#    Name: 3kko_GNP_1_INTS_M
#    Modification time : Mon Mar 24 19:44:59 2014

@<TRIPOS>MOLECULE
3kko_GNP_1_INTS_M
   71     0    15     0     0
SMALL
NO_CHARGES


@<TRIPOS>ATOM
      1 Zn         -7.8430  -37.1235   20.7925 Zn        4 ZIC7        0.0000 
      2 Zn         -7.0230  -37.6500   20.8730 Zn       14 ZIL7        0.0000 
      3 Zn         -8.6630  -36.5970   20.7120 Zn        9 ZIP7        0.0000 
      4 N          -7.4795  -39.0140   20.7470 N.am      2 SEC2        0.0000 
      5 N          -7.0230  -37.6500   20.8730 N.am     12 SEL2        0.0000 
      6 N          -7.9360  -40.3780   20.6210 N.am      7 SEP2        0.0000 
      7 NZ         -4.4590  -35.4635   20.1255 N.4       3 LYC4        0.0000 
      8 NZ         -4.6250  -36.7210   20.6520 N.4      13 LYL4        0.0000 
      9 NZ         -4.2930  -34.2060   19.5990 N.4       8 LYP4        0.0000 
     10 N          -4.4590  -35.4635   20.1255 N.am      2 SEC2        0.0000 
     11 N          -4.6250  -36.7210   20.6520 N.am     12 SEL2        0.0000 
     12 N          -4.2930  -34.2060   19.5990 N.am      7 SEP2        0.0000 
     13 N          -3.9650  -37.1180   19.4470 N.am      2 SEC2        0.0000 
     14 N          -3.3050  -37.5150   18.2420 N.am      7 SEP2        0.0000 
     15 NZ         -5.0320  -33.9710   20.7910 N.4       3 LYC4        0.0000 
     16 NZ         -5.7710  -33.7360   21.9830 N.4      13 LYL4        0.0000 
     17 N          -5.9090  -32.4825   22.8310 N.am      2 SEC2        0.0000 
     18 N          -5.7710  -33.7360   21.9830 N.am     12 SEL2        0.0000 
     19 N          -6.0470  -31.2290   23.6790 N.am      7 SEP2        0.0000 
     20 N          -6.6775  -32.5470   21.6535 N.am      2 SEC2        0.0000 
     21 N          -7.5840  -31.3580   21.3240 N.am      7 SEP2        0.0000 
     22 N          -5.0320  -33.9710   20.7910 N.am      2 SEC2        0.0000 
     23 Zn         -8.3125  -35.7720   21.1940 Zn        4 ZIC7        0.0000 
     24 Zn         -7.9620  -34.9470   21.6760 Zn       14 ZIL7        0.0000 
     25 N          -8.9150  -33.9405   21.1850 N.am      2 SEC2        0.0000 
     26 N          -7.9620  -34.9470   21.6760 N.am     12 SEL2        0.0000 
     27 N          -9.8680  -32.9340   20.6940 N.am      7 SEP2        0.0000 
     28 N          -6.5770  -32.7575   23.8005 N.am      2 SEC2        0.0000 
     29 N          -7.1070  -34.2860   23.9220 N.am     12 SEL2        0.0000 
     30 N         -10.5430  -32.7515   23.3990 N.am      2 SEC2        0.0000 
     31 N          -9.4810  -33.4220   24.0200 N.am     12 SEL2        0.0000 
     32 N         -11.6050  -32.0810   22.7780 N.am      7 SEP2        0.0000 
     33 CA         -5.5000  -34.4590   26.0420 C.3       5 GLC5        0.0000 
     34 CA         -7.2440  -34.2980   26.9260 C.3      15 GLL5        0.0000 
     35 CA         -3.7560  -34.6200   25.1580 C.3      10 GLP5        0.0000 
     36 CA         -7.2125  -36.1300   26.5735 C.3       5 GLC5        0.0000 
     37 CA         -7.1810  -37.9620   26.2210 C.3      10 GLP5        0.0000 
     38 N          -6.0300  -31.7325   28.5865 N.am      2 SEC2        0.0000 
     39 N          -7.4000  -32.5290   28.5640 N.am     12 SEL2        0.0000 
     40 N          -4.6600  -30.9360   28.6090 N.am      7 SEP2        0.0000 
     41 O         -12.0005  -32.9125   29.1680 O.2       1 ALC1        0.0000 
     42 O         -10.7950  -32.7720   29.6150 O.2      11 ALL1        0.0000 
     43 O         -13.2060  -33.0530   28.7210 O.2       6 ALP1        0.0000 
     44 CA         -6.8910  -30.8495   28.4145 C.3       5 GLC5        0.0000 
     45 CA         -8.6130  -31.9340   28.9950 C.3      15 GLL5        0.0000 
     46 CA         -5.1690  -29.7650   27.8340 C.3      10 GLP5        0.0000 
     47 N          -8.1955  -28.1700   25.6460 N.am      2 SEC2        0.0000 
     48 N          -8.9660  -29.1720   26.6350 N.am     12 SEL2        0.0000 
     49 N          -7.4250  -27.1680   24.6570 N.am      7 SEP2        0.0000 
     50 CA         -7.2110  -27.8955   27.8060 C.3       5 GLC5        0.0000 
     51 CA         -8.9270  -28.5100   27.8620 C.3      15 GLL5        0.0000 
     52 CA         -5.4950  -27.2810   27.7500 C.3      10 GLP5        0.0000 
     53 CA        -10.5665  -27.9100   26.5845 C.3       5 GLC5        0.0000 
     54 CA        -12.2060  -27.3100   25.3070 C.3      10 GLP5        0.0000 
     55 N         -10.2660  -25.6525   26.7460 N.am      2 SEC2        0.0000 
     56 N          -9.1090  -26.1680   27.4290 N.am     12 SEL2        0.0000 
     57 N         -11.4230  -25.1370   26.0630 N.am      7 SEP2        0.0000 
     58 O          -8.8740  -25.4955   29.9165 O.2       1 ALC1        0.0000 
     59 O          -8.9150  -26.8890   29.5630 O.2      11 ALL1        0.0000 
     60 O          -8.8330  -24.1020   30.2700 O.2       6 ALP1        0.0000 
     61 O          -8.9440  -26.0380   32.0930 O.2       1 ALC1        0.0000 
     62 O          -8.7200  -27.4480   31.8100 O.2      11 ALL1        0.0000 
     63 O          -9.1680  -24.6280   32.3760 O.2       6 ALP1        0.0000 
     64 CA         -6.9775  -29.5870   28.3675 C.3       5 GLC5        0.0000 
     65 CA         -8.7860  -29.4090   28.9010 C.3      15 GLL5        0.0000 
     66 CA         -8.0132  -36.0583   28.6442 C.3       5 GLC5        0.0000 
     67 CA         -7.5610  -33.9450   28.3720 C.3      15 GLL5        0.0000 
     68 CA         -7.7540  -38.0150   28.6900 C.3      10 GLP5        0.0000 
     69 CA        -10.7048  -31.1540   29.4895 C.3       5 GLC5        0.0000 
     70 CA         -9.7240  -32.9300   28.6930 C.3      15 GLL5        0.0000 
     71 CA        -12.2410  -29.8760   30.1350 C.3      10 GLP5        0.0000 
@<TRIPOS>BOND
@<TRIPOS>SUBSTRUCTURE
     1 ALC1       41 GROUP        1 X    ALC  0     ROOT ALC X 1
     2 SEC2        4 GROUP        1 X    SEC  0     **** SEC X 2
     3 LYC4        7 GROUP        1 X    LYC  0     **** LYC X 4
     4 ZIC7        1 GROUP        1 X    ZIC  0     **** ZIC X 5
     5 GLC5       33 GROUP        1 X    GLC  0     **** GLC X 6
     6 ALP1       43 GROUP        1 Y    ALP  0     ROOT ALP Y 8
     7 SEP2        6 GROUP        1 Y    SEP  0     **** SEP Y 9
     8 LYP4        9 GROUP        1 Y    LYP  0     **** LYP Y 11
     9 ZIP7        3 GROUP        1 Y    ZIP  0     **** ZIP Y 12
    10 GLP5       35 GROUP        1 Y    GLP  0     **** GLP Y 13
    11 ALL1       42 GROUP        1 Z    ALL  0     ROOT ALL Z 15
    12 SEL2        5 GROUP        1 Z    SEL  0     **** SEL Z 16
    13 LYL4        8 GROUP        1 Z    LYL  0     **** LYL Z 18
    14 ZIL7        2 GROUP        1 Z    ZIL  0     **** ZIL Z 19
    15 GLL5       34 GROUP        1 Z    GLL  0     **** GLL Z 20
@<TRIPOS>SET

