#    Name: 3kko_GNP_1_ligand
#    Modification time : Mon Mar 24 19:44:59 2014

@<TRIPOS>MOLECULE
3kko_GNP_1_ligand
   44    46     1     0     0
SMALL
NO_CHARGES


@<TRIPOS>ATOM
      1 PG         -5.7130  -37.3090   21.5230 P.3       1 GNP179      0.0000 
      2 O1G        -5.0800  -38.4980   22.1810 O.co2     1 GNP179      0.0000 
      3 O2G        -7.0230  -37.6500   20.8730 O.co2     1 GNP179      0.0000 
      4 O3G        -4.6250  -36.7210   20.6520 O.co2     1 GNP179      0.0000 
      5 N3B        -5.9880  -36.1730   22.6430 N.4       1 GNP179      0.0000 
      6 PB         -6.7240  -34.7390   22.4810 P.3       1 GNP179      0.0000 
      7 O1B        -5.7710  -33.7360   21.9830 O.co2     1 GNP179      0.0000 
      8 O2B        -7.9620  -34.9470   21.6760 O.co2     1 GNP179      0.0000 
      9 O3A        -7.1070  -34.2860   23.9220 O.3       1 GNP179      0.0000 
     10 PA         -8.4930  -34.3450   24.6330 P.3       1 GNP179      0.0000 
     11 O1A        -8.8490  -35.7660   24.7920 O.co2     1 GNP179      0.0000 
     12 O2A        -9.4810  -33.4220   24.0200 O.co2     1 GNP179      0.0000 
     13 O5'        -8.2280  -33.7100   26.0480 O.3       1 GNP179      0.0000 
     14 C5'        -7.2440  -34.2980   26.9260 C.3       1 GNP179      0.0000 
     15 C4'        -7.5610  -33.9450   28.3720 C.3       1 GNP179      0.0000 
     16 O4'        -7.4000  -32.5290   28.5640 O.3       1 GNP179      0.0000 
     17 C3'        -8.9840  -34.2580   28.8250 C.3       1 GNP179      0.0000 
     18 O3'        -8.9250  -34.6170   30.1970 O.3       1 GNP179      0.0000 
     19 C2'        -9.7240  -32.9300   28.6930 C.3       1 GNP179      0.0000 
     20 O2'       -10.7950  -32.7720   29.6150 O.3       1 GNP179      0.0000 
     21 C1'        -8.6130  -31.9340   28.9950 C.3       1 GNP179      0.0000 
     22 N9         -8.7510  -30.6490   28.3100 N.pl3     1 GNP179      0.0000 
     23 C8         -8.8560  -30.4310   26.9470 C.2       1 GNP179      0.0000 
     24 N7         -8.9660  -29.1720   26.6350 N.2       1 GNP179      0.0000 
     25 C5         -8.9270  -28.5100   27.8620 C.2       1 GNP179      0.0000 
     26 C6         -8.9880  -27.1300   28.1850 C.2       1 GNP179      0.0000 
     27 O6         -9.1090  -26.1680   27.4290 O.2       1 GNP179      0.0000 
     28 N1         -8.9150  -26.8890   29.5630 N.am      1 GNP179      0.0000 
     29 C2         -8.7770  -27.8630   30.5250 C.2       1 GNP179      0.0000 
     30 N2         -8.7200  -27.4480   31.8100 N.pl3     1 GNP179      0.0000 
     31 N3         -8.7070  -29.1580   30.2410 N.2       1 GNP179      0.0000 
     32 C4         -8.7860  -29.4090   28.9010 C.2       1 GNP179      0.0000 
     33 H          -6.2375  -33.9303   26.6980 H         1 GNP179      0.0000 
     34 H          -7.2328  -35.3898   26.8361 H         1 GNP179      0.0000 
     35 H          -6.8760  -34.4729   29.0270 H         1 GNP179      0.0000 
     36 H          -9.4035  -34.9654   28.2036 H         1 GNP179      0.0000 
     37 H          -9.9973  -32.8023   27.6743 H         1 GNP179      0.0000 
     38 H          -8.5815  -31.7838   30.0684 H         1 GNP179      0.0000 
     39 H          -8.8441  -31.1945   26.3013 H         1 GNP179      0.0000 
     40 H          -8.9713  -25.8753   29.8789 H         1 GNP179      0.0000 
     41 H          -8.7985  -26.4621   31.9579 H         1 GNP179      0.0000 
     42 H          -8.6044  -28.1637   32.4988 H         1 GNP179      0.0000 
     43 H          -9.5442  -33.9811   30.6576 H         1 GNP179      0.0000 
     44 H         -11.6228  -32.9490   29.0827 H         1 GNP179      0.0000 
@<TRIPOS>BOND
     1    2    1 ar   
     2    3    1 ar   
     3    4    1 ar   
     4    5    1 1    
     5    6    5 1    
     6    7    6 ar   
     7    8    6 ar   
     8    9    6 1    
     9   10    9 1    
    10   11   10 ar   
    11   12   10 ar   
    12   13   10 1    
    13   14   13 1    
    14   15   14 1    
    15   33   14 1    
    16   34   14 1    
    17   16   15 1    
    18   17   15 1    
    19   35   15 1    
    20   21   16 1    
    21   18   17 1    
    22   19   17 1    
    23   36   17 1    
    24   43   18 1    
    25   20   19 1    
    26   21   19 1    
    27   37   19 1    
    28   44   20 1    
    29   22   21 1    
    30   38   21 1    
    31   23   22 1    
    32   32   22 1    
    33   24   23 2    
    34   39   23 1    
    35   25   24 1    
    36   26   25 1    
    37   32   25 2    
    38   27   26 2    
    39   28   26 am   
    40   29   28 1    
    41   40   28 1    
    42   30   29 1    
    43   31   29 2    
    44   41   30 1    
    45   42   30 1    
    46   32   31 1    
@<TRIPOS>SUBSTRUCTURE
     1 GNP179      1 GROUP   
@<TRIPOS>SET

