#    Name: 2p2f_AMP_4_INTS_M
#    Modification time : Mon Mar 24 18:12:27 2014

@<TRIPOS>MOLECULE
2p2f_AMP_4_INTS_M
   58     0    12     0     0
SMALL
NO_CHARGES


@<TRIPOS>ATOM
      1 NZ        -38.6040   66.9190   17.9745 N.4       3 LYC4        0.0000 
      2 NZ        -37.2910   67.5420   18.0330 N.4      11 LYL4        0.0000 
      3 NZ        -40.4220   65.2420   17.2400 N.4       7 LYP4        0.0000 
      4 N         -37.5285   68.9080   18.1215 N.am      2 SEC2        0.0000 
      5 N         -37.2910   67.5420   18.0330 N.am     10 SEL2        0.0000 
      6 N         -37.7660   70.2740   18.2100 N.am      6 SEP2        0.0000 
      7 N         -36.9575   68.2080   17.0185 N.am      2 SEC2        0.0000 
      8 N         -36.6240   68.8740   16.0040 N.am      6 SEP2        0.0000 
      9 N         -38.6040   66.9190   17.9745 N.am      2 SEC2        0.0000 
     10 N         -39.9170   66.2960   17.9160 N.am      6 SEP2        0.0000 
     11 CA        -37.6940   68.4155   20.8125 C.3       4 GLC5        0.0000 
     12 CA        -37.2620   66.5980   21.0330 C.3      12 GLL5        0.0000 
     13 CA        -38.1260   70.2330   20.5920 C.3       8 GLP5        0.0000 
     14 CA        -37.8250   65.2455   19.3445 C.3       4 GLC5        0.0000 
     15 CA        -38.3880   63.8930   17.6560 C.3       8 GLP5        0.0000 
     16 CA        -39.3250   67.7745   22.5685 C.3       4 GLC5        0.0000 
     17 CA        -38.4030   65.9850   23.2470 C.3      12 GLL5        0.0000 
     18 CA        -40.2470   69.5640   21.8900 C.3       8 GLP5        0.0000 
     19 N         -40.7570   66.7475   22.4105 N.am      2 SEC2        0.0000 
     20 N         -39.8130   65.8790   22.9770 N.am     10 SEL2        0.0000 
     21 N         -41.7010   67.6160   21.8440 N.am      6 SEP2        0.0000 
     22 N         -40.7370   65.1885   21.8905 N.am      2 SEC2        0.0000 
     23 N         -41.6610   64.4980   20.8040 N.am      6 SEP2        0.0000 
     24 O         -40.4105   65.9960   24.1350 O.2       1 ALC1        0.0000 
     25 O         -39.8130   65.8790   22.9770 O.2       9 ALL1        0.0000 
     26 O         -41.0080   66.1130   25.2930 O.2       5 ALP1        0.0000 
     27 CA        -38.0700   66.6805   25.7860 C.3       4 GLC5        0.0000 
     28 CA        -37.9820   65.0550   24.3810 C.3      12 GLL5        0.0000 
     29 CA        -38.1580   68.3060   27.1910 C.3       8 GLP5        0.0000 
     30 CA        -39.5275   63.7085   23.5000 C.3       4 GLC5        0.0000 
     31 CA        -41.0730   62.3620   22.6190 C.3       8 GLP5        0.0000 
     32 O         -39.7405   63.8440   24.9640 O.2       1 ALC1        0.0000 
     33 O         -38.5170   63.7370   24.2460 O.2       9 ALL1        0.0000 
     34 O         -40.9640   63.9510   25.6820 O.2       5 ALP1        0.0000 
     35 CA        -34.7110   64.2300   25.2200 C.3       4 GLC5        0.0000 
     36 CA        -36.5090   64.8730   24.1450 C.3      12 GLL5        0.0000 
     37 CA        -32.9130   63.5870   26.2950 C.3       8 GLP5        0.0000 
     38 N         -33.0075   67.4740   25.1405 N.am      2 SEC2        0.0000 
     39 N         -34.5990   67.7220   25.4060 N.am     10 SEL2        0.0000 
     40 N         -31.4160   67.2260   24.8750 N.am      6 SEP2        0.0000 
     41 O         -32.9365   68.6420   29.4655 O.2       1 ALC1        0.0000 
     42 O         -33.6580   68.4510   28.3360 O.2       9 ALL1        0.0000 
     43 O         -32.2150   68.8330   30.5950 O.2       5 ALP1        0.0000 
     44 O         -33.4865   69.6180   27.5660 O.2       1 ALC1        0.0000 
     45 O         -33.3150   70.7850   26.7960 O.2       5 ALP1        0.0000 
     46 CA        -34.1930   64.4935   27.4230 C.3       4 GLC5        0.0000 
     47 CA        -35.4730   65.4000   28.5510 C.3      12 GLL5        0.0000 
     48 CA        -34.4545   64.2160   29.2900 C.3       4 GLC5        0.0000 
     49 CA        -33.4360   63.0320   30.0290 C.3       8 GLP5        0.0000 
     50 CA        -37.1890   65.1970   28.9545 C.3       4 GLC5        0.0000 
     51 CA        -38.9050   64.9940   29.3580 C.3       8 GLP5        0.0000 
     52 CA        -33.5072   66.3940   25.1477 C.3       4 GLC5        0.0000 
     53 CA        -35.5570   65.8920   26.2690 C.3      12 GLL5        0.0000 
     54 CA        -31.8470   66.2910   23.8730 C.3       8 GLP5        0.0000 
     55 CA        -35.3023   69.0118   27.3520 C.3       4 GLC5        0.0000 
     56 CA        -34.7780   67.1020   26.5760 C.3      12 GLL5        0.0000 
     57 CA        -36.0290   70.7900   27.4330 C.3       8 GLP5        0.0000 
     58 CA        -33.9896   65.0749   26.5325 C.3       4 GLC5        0.0000 
@<TRIPOS>BOND
@<TRIPOS>SUBSTRUCTURE
     1 ALC1       24 GROUP        1 X    ALC  0     ROOT ALC X 1
     2 SEC2        4 GROUP        1 X    SEC  0     **** SEC X 2
     3 LYC4        1 GROUP        1 X    LYC  0     **** LYC X 4
     4 GLC5       11 GROUP        1 X    GLC  0     **** GLC X 6
     5 ALP1       26 GROUP        1 Y    ALP  0     ROOT ALP Y 8
     6 SEP2        6 GROUP        1 Y    SEP  0     **** SEP Y 9
     7 LYP4        3 GROUP        1 Y    LYP  0     **** LYP Y 11
     8 GLP5       13 GROUP        1 Y    GLP  0     **** GLP Y 13
     9 ALL1       25 GROUP        1 Z    ALL  0     ROOT ALL Z 15
    10 SEL2        5 GROUP        1 Z    SEL  0     **** SEL Z 16
    11 LYL4        2 GROUP        1 Z    LYL  0     **** LYL Z 18
    12 GLL5       12 GROUP        1 Z    GLL  0     **** GLL Z 20
@<TRIPOS>SET

