#    Name: 2p2f_AMP_4_ligand
#    Modification time : Mon Mar 24 18:12:27 2014

@<TRIPOS>MOLECULE
2p2f_AMP_4_ligand
   35    37     1     0     0
SMALL
NO_CHARGES


@<TRIPOS>ATOM
      1 P         -36.0430   66.9300   18.6640 P.3       1 AMP998      0.0000 
      2 O1P       -37.2910   67.5420   18.0330 O.co2     1 AMP998      0.0000 
      3 O2P       -35.3240   65.9140   17.7760 O.co2     1 AMP998      0.0000 
      4 O3P       -35.1730   68.0220   19.2220 O.co2     1 AMP998      0.0000 
      5 O5'       -36.5470   66.0390   19.9250 O.3       1 AMP998      0.0000 
      6 C5'       -37.2620   66.5980   21.0330 C.3       1 AMP998      0.0000 
      7 C4'       -37.5170   65.5200   22.0890 C.3       1 AMP998      0.0000 
      8 O4'       -36.3070   65.0680   22.7200 O.3       1 AMP998      0.0000 
      9 C3'       -38.4030   65.9850   23.2470 C.3       1 AMP998      0.0000 
     10 O3'       -39.8130   65.8790   22.9770 O.3       1 AMP998      0.0000 
     11 C2'       -37.9820   65.0550   24.3810 C.3       1 AMP998      0.0000 
     12 O2'       -38.5170   63.7370   24.2460 O.3       1 AMP998      0.0000 
     13 C1'       -36.5090   64.8730   24.1450 C.3       1 AMP998      0.0000 
     14 N9        -35.7830   65.8790   24.9540 N.pl3     1 AMP998      0.0000 
     15 C8        -35.2090   66.9790   24.4370 C.2       1 AMP998      0.0000 
     16 N7        -34.5990   67.7220   25.4060 N.2       1 AMP998      0.0000 
     17 C5        -34.7780   67.1020   26.5760 C.ar      1 AMP998      0.0000 
     18 C6        -34.3730   67.3650   27.9660 C.ar      1 AMP998      0.0000 
     19 N6        -33.6580   68.4510   28.3360 N.pl3     1 AMP998      0.0000 
     20 N1        -34.7530   66.4840   28.8880 N.ar      1 AMP998      0.0000 
     21 C2        -35.4730   65.4000   28.5510 C.ar      1 AMP998      0.0000 
     22 N3        -35.8560   65.0790   27.3000 N.ar      1 AMP998      0.0000 
     23 C4        -35.5570   65.8920   26.2690 C.ar      1 AMP998      0.0000 
     24 H         -38.2342   67.0013   20.7259 H         1 AMP998      0.0000 
     25 H         -36.6988   67.4078   21.5117 H         1 AMP998      0.0000 
     26 H         -38.0204   64.6750   21.6222 H         1 AMP998      0.0000 
     27 H         -38.0949   66.9747   23.5164 H         1 AMP998      0.0000 
     28 H         -38.1319   65.4953   25.2988 H         1 AMP998      0.0000 
     29 H         -36.2406   63.8858   24.4392 H         1 AMP998      0.0000 
     30 H         -35.2206   67.2263   23.4864 H         1 AMP998      0.0000 
     31 H         -33.3999   69.0790   27.6018 H         1 AMP998      0.0000 
     32 H         -33.4506   68.5299   29.3111 H         1 AMP998      0.0000 
     33 H         -35.7686   64.7324   29.3459 H         1 AMP998      0.0000 
     34 H         -40.2106   65.5126   23.8182 H         1 AMP998      0.0000 
     35 H         -39.3945   63.7637   24.7248 H         1 AMP998      0.0000 
@<TRIPOS>BOND
     1    2    1 ar   
     2    3    1 ar   
     3    4    1 ar   
     4    5    1 1    
     5    6    5 1    
     6    7    6 1    
     7   24    6 1    
     8   25    6 1    
     9    8    7 1    
    10    9    7 1    
    11   26    7 1    
    12   13    8 1    
    13   10    9 1    
    14   11    9 1    
    15   27    9 1    
    16   34   10 1    
    17   12   11 1    
    18   13   11 1    
    19   28   11 1    
    20   35   12 1    
    21   14   13 1    
    22   29   13 1    
    23   15   14 1    
    24   23   14 1    
    25   16   15 2    
    26   30   15 1    
    27   17   16 1    
    28   18   17 ar   
    29   23   17 ar   
    30   19   18 1    
    31   20   18 ar   
    32   31   19 1    
    33   32   19 1    
    34   21   20 ar   
    35   22   21 ar   
    36   33   21 1    
    37   23   22 ar   
@<TRIPOS>SUBSTRUCTURE
     1 AMP998      1 GROUP   
@<TRIPOS>SET

