#    Name: 2HU4_8_CAVITY_N1_ALL.mol2
#    Modification time : Mon Mar 10 17:52:47 2014

@<TRIPOS>MOLECULE
2HU4_8_CAVITY_N1_ALL.mol2
   83     0     7     0     0
SMALL
NO_CHARGES


@<TRIPOS>ATOM
      1 OG        -35.7646  -70.7248   80.3638 O.2       1 SER1        0.0000 
      2 NZ        -36.7116  -69.6922   79.8281 N.2       4 LYS4        0.0000 
      3 DU        -37.6587  -68.6597   79.2924 H         7 CUB7        0.0000 
      4 CA        -38.6057  -67.6272   78.7567 C.3       6 GLY6        0.0000 
      5 OG        -35.6047  -71.2934   78.9851 O.2       1 SER1        0.0000 
      6 DU        -36.5517  -70.2609   78.4494 H         7 CUB7        0.0000 
      7 DU        -37.4987  -69.2284   77.9136 H         7 CUB7        0.0000 
      8 CA        -38.4458  -68.1958   77.3779 C.3       6 GLY6        0.0000 
      9 NZ        -35.4447  -71.8621   77.6063 N.2       4 LYS4        0.0000 
     10 NZ        -36.3918  -70.8296   77.0706 N.2       4 LYS4        0.0000 
     11 DU        -37.3388  -69.7970   76.5349 H         7 CUB7        0.0000 
     12 CA        -38.2858  -68.7645   75.9992 C.3       6 GLY6        0.0000 
     13 NZ        -36.2318  -71.3982   75.6918 N.2       4 LYS4        0.0000 
     14 N         -37.1789  -70.3657   75.1561 N.2       2 ALA2        0.0000 
     15 N         -38.1259  -69.3331   74.6204 N.2       2 ALA2        0.0000 
     16 NZ        -36.0719  -71.9669   74.3130 N.2       4 LYS4        0.0000 
     17 N         -37.0189  -70.9343   73.7773 N.2       2 ALA2        0.0000 
     18 N         -37.9785  -67.5224   82.0500 N.2       2 ALA2        0.0000 
     19 O         -36.8716  -69.1236   81.2069 O.2       2 ALA2        0.0000 
     20 DU        -37.8186  -68.0911   80.6712 H         7 CUB7        0.0000 
     21 NZ        -38.7657  -67.0585   80.1355 N.2       4 LYS4        0.0000 
     22 CZ        -33.7801  -67.7322   82.6236 C.ar      5 PHE5        0.0000 
     23 O         -34.7271  -66.6997   82.0879 O.2       2 ALA2        0.0000 
     24 DU        -34.5672  -67.2683   80.7091 H         7 CUB7        0.0000 
     25 OG        -35.5142  -66.2358   80.1734 O.2       1 SER1        0.0000 
     26 DU        -34.4073  -67.8370   79.3303 H         7 CUB7        0.0000 
     27 DU        -35.3543  -66.8044   78.7946 H         7 CUB7        0.0000 
     28 CA        -36.3013  -65.7719   78.2589 C.3       6 GLY6        0.0000 
     29 OD1       -37.2484  -64.7394   77.7232 O.3       3 ASP3        0.0000 
     30 NZ        -34.2473  -68.4056   77.9515 N.2       4 LYS4        0.0000 
     31 O         -35.1944  -67.3731   77.4158 O.2       2 ALA2        0.0000 
     32 O         -36.1414  -66.3406   76.8801 O.2       2 ALA2        0.0000 
     33 CA        -37.0885  -65.3080   76.3444 C.3       6 GLY6        0.0000 
     34 NZ        -34.0874  -68.9743   76.5727 N.2       4 LYS4        0.0000 
     35 O         -35.8793  -67.6273   82.3368 O.2       2 ALA2        0.0000 
     36 O         -36.8264  -66.5948   81.8011 O.2       2 ALA2        0.0000 
     37 O         -34.7723  -69.2285   81.4937 O.2       2 ALA2        0.0000 
     38 O         -35.7194  -68.1960   80.9580 O.2       2 ALA2        0.0000 
     39 CA        -36.6664  -67.1634   80.4223 C.3       6 GLY6        0.0000 
     40 CA        -37.6135  -66.1309   79.8866 C.3       6 GLY6        0.0000 
     41 DU        -34.6124  -69.7972   80.1149 H         7 CUB7        0.0000 
     42 DU        -35.5594  -68.7646   79.5792 H         7 CUB7        0.0000 
     43 DU        -36.5065  -67.7321   79.0435 H         7 CUB7        0.0000 
     44 O         -37.4535  -66.6995   78.5078 O.2       2 ALA2        0.0000 
     45 NZ        -34.4525  -70.3658   78.7361 N.2       4 LYS4        0.0000 
     46 NZ        -35.3995  -69.3333   78.2004 N.2       4 LYS4        0.0000 
     47 DU        -36.3466  -68.3007   77.6647 H         7 CUB7        0.0000 
     48 CA        -37.2936  -67.2682   77.1290 C.3       6 GLY6        0.0000 
     49 NZ        -35.2396  -69.9019   76.8216 N.2       4 LYS4        0.0000 
     50 O         -36.1866  -68.8694   76.2859 O.2       2 ALA2        0.0000 
     51 O         -37.1337  -67.8368   75.7502 O.2       2 ALA2        0.0000 
     52 NZ        -35.0796  -70.4706   75.4428 N.2       4 LYS4        0.0000 
     53 O         -36.0267  -69.4380   74.9071 O.2       2 ALA2        0.0000 
     54 O         -36.9737  -68.4055   74.3714 O.2       2 ALA2        0.0000 
     55 CA        -35.8667  -70.0067   73.5284 C.3       6 GLY6        0.0000 
     56 NZ        -40.7502  -70.0511   77.8758 N.2       4 LYS4        0.0000 
     57 NZ        -38.6961  -72.6848   77.5684 N.2       4 LYS4        0.0000 
     58 NZ        -39.6432  -71.6523   77.0327 N.2       4 LYS4        0.0000 
     59 NZ        -38.5362  -73.2535   76.1896 N.2       4 LYS4        0.0000 
     60 CA        -33.8370  -64.4853   76.3822 C.3       6 GLY6        0.0000 
     61 OG        -34.2021  -65.8768   78.5456 O.2       1 SER1        0.0000 
     62 OG        -35.1492  -64.8443   78.0099 O.2       1 SER1        0.0000 
     63 CA        -36.0962  -63.8117   77.4742 C.3       6 GLY6        0.0000 
     64 O         -34.0422  -66.4455   77.1669 O.2       2 ALA2        0.0000 
     65 CA        -34.9892  -65.4129   76.6312 C.3       6 GLY6        0.0000 
     66 O         -32.9352  -68.0467   76.3238 O.2       2 ALA2        0.0000 
     67 NZ        -38.9708  -69.0187   80.9202 N.2       4 LYS4        0.0000 
     68 CA        -39.9178  -67.9862   80.3845 C.3       6 GLY6        0.0000 
     69 NZ        -37.8638  -70.6199   80.0771 N.2       4 LYS4        0.0000 
     70 NZ        -38.8109  -69.5873   79.5414 N.2       4 LYS4        0.0000 
     71 CA        -39.7579  -68.5548   79.0057 C.3       6 GLY6        0.0000 
     72 NZ        -37.7039  -71.1885   78.6983 N.2       4 LYS4        0.0000 
     73 NZ        -38.6509  -70.1560   78.1626 N.2       4 LYS4        0.0000 
     74 CA        -39.5980  -69.1235   77.6269 C.3       6 GLY6        0.0000 
     75 OG        -36.5969  -72.7897   77.8552 O.2       1 SER1        0.0000 
     76 NZ        -37.5440  -71.7572   77.3195 N.2       4 LYS4        0.0000 
     77 NZ        -38.4910  -70.7246   76.7838 N.2       4 LYS4        0.0000 
     78 NZ        -39.4380  -69.6921   76.2481 N.2       4 LYS4        0.0000 
     79 NZ        -36.4370  -73.3584   76.4764 N.2       4 LYS4        0.0000 
     80 NZ        -37.3840  -72.3258   75.9407 N.2       4 LYS4        0.0000 
     81 NZ        -38.3311  -71.2933   75.4050 N.2       4 LYS4        0.0000 
     82 NZ        -39.2781  -70.2608   74.8693 N.2       4 LYS4        0.0000 
     83 N         -37.2241  -72.8945   74.5619 N.2       2 ALA2        0.0000 
@<TRIPOS>BOND
@<TRIPOS>SUBSTRUCTURE
     1 SER1        1 GROUP   
     2 ALA2       14 GROUP   
     3 ASP3       29 GROUP   
     4 LYS4        2 GROUP   
     5 PHE5       22 GROUP   
     6 GLY6        4 GROUP   
     7 CUB7        3 GROUP   
@<TRIPOS>SET

