#    Name: 2hu4_G39_8_INTS_M
#    Modification time : Tue Mar 25 17:02:27 2014

@<TRIPOS>MOLECULE
2hu4_G39_8_INTS_M
   64     0    15     0     0
SMALL
NO_CHARGES


@<TRIPOS>ATOM
      1 NZ        -36.5970  -71.9300   82.6855 N.4       4 LYC4        0.0000 
      2 NZ        -34.9570  -72.0240   82.2520 N.4      14 LYL4        0.0000 
      3 NZ        -37.9860  -70.7930   83.8900 N.4       9 LYP4        0.0000 
      4 NZ        -34.6545  -73.8355   82.7735 N.4       4 LYC4        0.0000 
      5 NZ        -34.5400  -75.0700   84.4460 N.4       9 LYP4        0.0000 
      6 N         -35.8520  -71.1745   83.1100 N.am      2 SEC2        0.0000 
      7 N         -34.9570  -72.0240   82.2520 N.am     12 SEL2        0.0000 
      8 N         -36.7470  -70.3250   83.9680 N.am      7 SEP2        0.0000 
      9 N         -36.5970  -71.9300   82.6855 N.am      2 SEC2        0.0000 
     10 N         -38.2370  -71.8360   83.1190 N.am      7 SEP2        0.0000 
     11 N         -34.9425  -72.9150   83.3200 N.am      2 SEC2        0.0000 
     12 N         -34.9280  -73.8060   84.3880 N.am      7 SEP2        0.0000 
     13 NZ        -34.3575  -74.8060   82.2435 N.4       4 LYC4        0.0000 
     14 NZ        -34.3810  -73.8650   81.1590 N.4      14 LYL4        0.0000 
     15 N         -34.6545  -73.8355   82.7735 N.am      2 SEC2        0.0000 
     16 N         -34.3810  -73.8650   81.1590 N.am     12 SEL2        0.0000 
     17 N         -34.3575  -74.8060   82.2435 N.am      2 SEC2        0.0000 
     18 N         -34.3340  -75.7470   83.3280 N.am      7 SEP2        0.0000 
     19 CA        -37.6245  -74.2800   76.7290 C.3       5 GLC5        0.0000 
     20 CA        -36.5690  -72.4340   77.4320 C.3      15 GLL5        0.0000 
     21 CA        -38.6800  -76.1260   76.0260 C.3      10 GLP5        0.0000 
     22 N         -34.8675  -68.3030   74.6095 N.am      2 SEC2        0.0000 
     23 N         -35.7270  -69.3200   75.1160 N.am     12 SEL2        0.0000 
     24 N         -34.0080  -67.2860   74.1030 N.am      7 SEP2        0.0000 
     25 CA        -36.6965  -68.2700   72.9745 C.3       5 GLC5        0.0000 
     26 CA        -37.9510  -69.1830   74.3230 C.3      15 GLL5        0.0000 
     27 CA        -35.4420  -67.3570   71.6260 C.3      10 GLP5        0.0000 
     28 CA        -38.2115  -69.0665   72.4300 C.3       5 GLC5        0.0000 
     29 CA        -38.4720  -68.9500   70.5370 C.3      10 GLP5        0.0000 
     30 CA        -39.5460  -69.9525   73.1865 C.3       5 GLC5        0.0000 
     31 CA        -41.1410  -70.7220   72.0500 C.3      10 GLP5        0.0000 
     32 CA        -37.8430  -67.0240   73.9105 C.3       5 GLC5        0.0000 
     33 CA        -37.7350  -64.8650   73.4980 C.3      10 GLP5        0.0000 
     34 CA        -39.7825  -68.0920   74.5680 C.3       5 GLC5        0.0000 
     35 CA        -41.6140  -67.0010   74.8130 C.3      10 GLP5        0.0000 
     36 CA        -40.4805  -67.1760   80.4350 C.3       5 GLC5        0.0000 
     37 CA        -38.7330  -67.9180   80.1130 C.3      15 GLL5        0.0000 
     38 CA        -42.2280  -66.4340   80.7570 C.3      10 GLP5        0.0000 
     39 CA        -37.1005  -65.0415   79.8615 C.3       5 GLC5        0.0000 
     40 CA        -37.2440  -66.4860   78.6240 C.3      15 GLL5        0.0000 
     41 CA        -36.9570  -63.5970   81.0990 C.3      10 GLP5        0.0000 
     42 CA        -37.2305  -65.5715   75.3645 C.3       5 GLC5        0.0000 
     43 CA        -36.7260  -66.2780   77.2310 C.3      15 GLL5        0.0000 
     44 CA        -38.2545  -67.0440   83.2900 C.3       5 GLC5        0.0000 
     45 CA        -37.9650  -67.9720   81.4550 C.3      15 GLL5        0.0000 
     46 CA        -38.5440  -66.1160   85.1250 C.3      10 GLP5        0.0000 
     47 OD1       -36.5365  -74.7295   75.3080 O.co2     3 ASC3        0.0000 
     48 OD1       -36.1690  -73.0260   76.1550 O.co2    13 ASL3        0.0000 
     49 OD1       -36.9040  -76.4330   74.4610 O.co2     8 ASP3        0.0000 
     50 OD1       -36.2615  -74.5490   76.3530 O.co2     3 ASC3        0.0000 
     51 OD1       -36.3540  -76.0720   76.5510 O.co2     8 ASP3        0.0000 
     52 OD1       -34.8760  -72.7720   76.0480 O.co2     3 ASC3        0.0000 
     53 OD1       -33.5830  -72.5180   75.9410 O.co2     8 ASP3        0.0000 
     54 O         -36.2615  -74.5490   76.3530 O.2       1 ALC1        0.0000 
     55 O         -36.1690  -73.0260   76.1550 O.2      11 ALL1        0.0000 
     56 O         -36.3540  -76.0720   76.5510 O.2       6 ALP1        0.0000 
     57 O         -34.8760  -72.7720   76.0480 O.2       1 ALC1        0.0000 
     58 O         -33.5830  -72.5180   75.9410 O.2       6 ALP1        0.0000 
     59 CA        -37.0515  -73.6265   80.0712 C.3       5 GLC5        0.0000 
     60 CA        -35.5960  -72.9940   78.5700 C.3      15 GLL5        0.0000 
     61 CA        -38.5190  -74.6690   80.8640 C.3      10 GLP5        0.0000 
     62 CA        -39.3772  -66.9665   78.1422 C.3       5 GLC5        0.0000 
     63 CA        -40.4500  -66.0450   76.8210 C.3      10 GLP5        0.0000 
     64 CA        -38.7175  -66.2135   77.3742 C.3       5 GLC5        0.0000 
@<TRIPOS>BOND
@<TRIPOS>SUBSTRUCTURE
     1 ALC1       54 GROUP        1 X    ALC  0     ROOT ALC X 1
     2 SEC2        6 GROUP        1 X    SEC  0     **** SEC X 2
     3 ASC3       47 GROUP        1 X    ASC  0     **** ASC X 3
     4 LYC4        1 GROUP        1 X    LYC  0     **** LYC X 4
     5 GLC5       19 GROUP        1 X    GLC  0     **** GLC X 6
     6 ALP1       56 GROUP        1 Y    ALP  0     ROOT ALP Y 8
     7 SEP2        8 GROUP        1 Y    SEP  0     **** SEP Y 9
     8 ASP3       49 GROUP        1 Y    ASP  0     **** ASP Y 10
     9 LYP4        3 GROUP        1 Y    LYP  0     **** LYP Y 11
    10 GLP5       21 GROUP        1 Y    GLP  0     **** GLP Y 13
    11 ALL1       55 GROUP        1 Z    ALL  0     ROOT ALL Z 15
    12 SEL2        7 GROUP        1 Z    SEL  0     **** SEL Z 16
    13 ASL3       48 GROUP        1 Z    ASL  0     **** ASL Z 17
    14 LYL4        2 GROUP        1 Z    LYL  0     **** LYL Z 18
    15 GLL5       20 GROUP        1 Z    GLL  0     **** GLL Z 20
@<TRIPOS>SET

