#    Name: 2hu4_G39_8_ligand
#    Modification time : Tue Mar 25 17:02:27 2014

@<TRIPOS>MOLECULE
2hu4_G39_8_ligand
   44    44     1     0     0
SMALL
NO_CHARGES


@<TRIPOS>ATOM
      1 C1        -34.9400  -72.7170   81.1790 C.2       1 G39807      0.0000 
      2 O1A       -34.9570  -72.0240   82.2520 O.co2     1 G39807      0.0000 
      3 O1B       -34.3810  -73.8650   81.1590 O.co2     1 G39807      0.0000 
      4 C2        -35.5720  -72.1740   79.9870 C.2       1 G39807      0.0000 
      5 C3        -35.5960  -72.9940   78.5700 C.3       1 G39807      0.0000 
      6 C4        -36.5690  -72.4340   77.4320 C.3       1 G39807      0.0000 
      7 C5        -36.4620  -70.9040   77.4010 C.3       1 G39807      0.0000 
      8 N5        -37.3910  -70.3840   76.3340 N.am      1 G39807      0.0000 
      9 C10       -36.9370  -69.6460   75.3030 C.2       1 G39807      0.0000 
     10 O10       -35.7270  -69.3200   75.1160 O.2       1 G39807      0.0000 
     11 C11       -37.9510  -69.1830   74.3230 C.3       1 G39807      0.0000 
     12 C6        -36.8830  -70.3200   78.8050 C.3       1 G39807      0.0000 
     13 C7        -36.2080  -70.8830   80.0320 C.2       1 G39807      0.0000 
     14 O7        -36.7470  -68.8320   78.7020 O.3       1 G39807      0.0000 
     15 C8        -37.8760  -67.8580   78.8140 C.3       1 G39807      0.0000 
     16 C9        -38.7330  -67.9180   80.1130 C.3       1 G39807      0.0000 
     17 C81       -37.2440  -66.4860   78.6240 C.3       1 G39807      0.0000 
     18 C82       -36.7260  -66.2780   77.2310 C.3       1 G39807      0.0000 
     19 C91       -37.9650  -67.9720   81.4550 C.3       1 G39807      0.0000 
     20 N4        -36.1690  -73.0260   76.1550 N.4       1 G39807      0.0000 
     21 H         -35.8793  -74.0280   78.7979 H         1 G39807      0.0000 
     22 H         -34.5706  -73.0037   78.1830 H         1 G39807      0.0000 
     23 H         -37.5583  -72.7179   77.7077 H         1 G39807      0.0000 
     24 H         -35.4648  -70.6195   77.2001 H         1 G39807      0.0000 
     25 H         -38.3819  -70.6356   76.4575 H         1 G39807      0.0000 
     26 H         -37.9853  -70.5205   78.8810 H         1 G39807      0.0000 
     27 H         -36.2189  -70.3306   80.8703 H         1 G39807      0.0000 
     28 H         -38.5475  -68.0066   77.9532 H         1 G39807      0.0000 
     29 H         -39.3973  -68.8053   80.0494 H         1 G39807      0.0000 
     30 H         -39.4059  -67.0350   80.1255 H         1 G39807      0.0000 
     31 H         -36.4211  -66.3726   79.3450 H         1 G39807      0.0000 
     32 H         -37.9933  -65.7157   78.8584 H         1 G39807      0.0000 
     33 H         -37.5390  -68.6419   73.5899 H         1 G39807      0.0000 
     34 H         -38.4262  -69.9491   73.8903 H         1 G39807      0.0000 
     35 H         -38.6489  -68.6104   74.7532 H         1 G39807      0.0000 
     36 H         -36.3154  -65.3731   77.1187 H         1 G39807      0.0000 
     37 H         -36.0250  -66.9497   76.9913 H         1 G39807      0.0000 
     38 H         -37.4529  -66.3568   76.5488 H         1 G39807      0.0000 
     39 H         -37.3732  -68.7760   81.5121 H         1 G39807      0.0000 
     40 H         -37.3821  -67.1694   81.5819 H         1 G39807      0.0000 
     41 H         -38.5866  -68.0094   82.2374 H         1 G39807      0.0000 
     42 H         -36.7469  -72.7107   75.4022 H         1 G39807      0.0000 
     43 H         -35.2257  -72.7941   75.9173 H         1 G39807      0.0000 
     44 H         -36.2298  -74.0240   76.1730 H         1 G39807      0.0000 
@<TRIPOS>BOND
     1    2    1 ar   
     2    3    1 ar   
     3    4    1 1    
     4    5    4 1    
     5   13    4 2    
     6    6    5 1    
     7   21    5 1    
     8   22    5 1    
     9    7    6 1    
    10   20    6 1    
    11   23    6 1    
    12    8    7 1    
    13   12    7 1    
    14   24    7 1    
    15    9    8 am   
    16   25    8 1    
    17   10    9 2    
    18   11    9 1    
    19   33   11 1    
    20   34   11 1    
    21   35   11 1    
    22   13   12 1    
    23   14   12 1    
    24   26   12 1    
    25   27   13 1    
    26   15   14 1    
    27   16   15 1    
    28   17   15 1    
    29   28   15 1    
    30   19   16 1    
    31   29   16 1    
    32   30   16 1    
    33   18   17 1    
    34   31   17 1    
    35   32   17 1    
    36   36   18 1    
    37   37   18 1    
    38   38   18 1    
    39   39   19 1    
    40   40   19 1    
    41   41   19 1    
    42   42   20 1    
    43   43   20 1    
    44   44   20 1    
@<TRIPOS>SUBSTRUCTURE
     1 G39807      1 GROUP   
@<TRIPOS>SET

