#    Name: 2a5c_8DA_1_INTS_M
#    Modification time : Mon Mar 24 18:30:56 2014

@<TRIPOS>MOLECULE
2a5c_8DA_1_INTS_M
   27     0     9     0     0
SMALL
NO_CHARGES


@<TRIPOS>ATOM
      1 N           4.2420    9.3930   22.2200 N.am      2 SEC2        0.0000 
      2 N           2.8790    9.8620   22.3510 N.am      8 SEL2        0.0000 
      3 N           5.6050    8.9240   22.0890 N.am      5 SEP2        0.0000 
      4 CA          3.2725    9.6770   20.8215 C.3       3 GLC5        0.0000 
      5 CA          1.5740   10.1070   21.8320 C.3       9 GLL5        0.0000 
      6 CA          4.9710    9.2470   19.8110 C.3       6 GLP5        0.0000 
      7 CA          1.0920    8.9835   20.3135 C.3       3 GLC5        0.0000 
      8 CA          0.6100    7.8600   18.7950 C.3       6 GLP5        0.0000 
      9 CA         -0.4790    9.9810   20.5595 C.3       3 GLC5        0.0000 
     10 CA         -0.2650   11.6700   21.9410 C.3       9 GLL5        0.0000 
     11 CA         -0.6930    8.2920   19.1780 C.3       6 GLP5        0.0000 
     12 O          -0.6930   12.8740   19.9060 O.2       1 ALC1        0.0000 
     13 O          -0.3550   12.9110   21.2600 O.2       7 ALL1        0.0000 
     14 O          -1.0310   12.8370   18.5520 O.2       4 ALP1        0.0000 
     15 CA          2.7605   13.0135   23.7495 C.3       3 GLC5        0.0000 
     16 CA          0.5660   12.6000   23.9590 C.3       9 GLL5        0.0000 
     17 CA          4.9550   13.4270   23.5400 C.3       6 GLP5        0.0000 
     18 CA          4.1470    8.3170   25.3260 C.3       3 GLC5        0.0000 
     19 CA          3.5740    9.9730   26.1620 C.3       9 GLL5        0.0000 
     20 CA          4.7200    6.6610   24.4900 C.3       6 GLP5        0.0000 
     21 CA          3.3342   11.4752   22.5700 C.3       3 GLC5        0.0000 
     22 CA          5.2770   12.0950   23.2890 C.3       6 GLP5        0.0000 
     23 CA          2.3397   11.7598   20.2620 C.3       3 GLC5        0.0000 
     24 CA          1.2090   11.6040   21.8700 C.3       9 GLL5        0.0000 
     25 CA          3.2880   12.6640   18.6730 C.3       6 GLP5        0.0000 
     26 CA         -2.0722   12.3477   22.4745 C.3       3 GLC5        0.0000 
     27 CA         -3.6590   12.7780   22.3360 C.3       6 GLP5        0.0000 
@<TRIPOS>BOND
@<TRIPOS>SUBSTRUCTURE
     1 ALC1       12 GROUP        1 X    ALC  0     ROOT ALC X 1
     2 SEC2        1 GROUP        1 X    SEC  0     **** SEC X 2
     3 GLC5        4 GROUP        1 X    GLC  0     **** GLC X 6
     4 ALP1       14 GROUP        1 Y    ALP  0     ROOT ALP Y 8
     5 SEP2        3 GROUP        1 Y    SEP  0     **** SEP Y 9
     6 GLP5        6 GROUP        1 Y    GLP  0     **** GLP Y 13
     7 ALL1       13 GROUP        1 Z    ALL  0     ROOT ALL Z 15
     8 SEL2        2 GROUP        1 Z    SEL  0     **** SEL Z 16
     9 GLL5        5 GROUP        1 Z    GLL  0     **** GLL Z 20
@<TRIPOS>SET

