#    Name: 2a5c_8DA_1_ligand
#    Modification time : Mon Mar 24 18:30:56 2014

@<TRIPOS>MOLECULE
2a5c_8DA_1_ligand
   33    35     1     0     0
SMALL
NO_CHARGES


@<TRIPOS>ATOM
      1 O19         2.8790    9.8620   22.3510 O.3       1 8DA303      0.0000 
      2 C5'         1.5740   10.1070   21.8320 C.3       1 8DA303      0.0000 
      3 C4'         1.2090   11.6040   21.8700 C.3       1 8DA303      0.0000 
      4 C3'        -0.2650   11.6700   21.9410 C.3       1 8DA303      0.0000 
      5 O3'        -0.3550   12.9110   21.2600 O.3       1 8DA303      0.0000 
      6 O4'         1.6310   12.2420   23.0740 O.3       1 8DA303      0.0000 
      7 C1'         0.5660   12.6000   23.9590 C.3       1 8DA303      0.0000 
      8 C2'        -0.7060   12.1650   23.2850 C.3       1 8DA303      0.0000 
      9 N9          0.7110   12.1260   25.3640 N.am      1 8DA303      0.0000 
     10 C4          1.6300   11.3520   25.9410 C.2       1 8DA303      0.0000 
     11 N3          2.7730   10.7070   25.3520 N.2       1 8DA303      0.0000 
     12 C5          1.3530   11.2090   27.3890 C.2       1 8DA303      0.0000 
     13 N7          0.2220   11.9220   27.6410 N.am      1 8DA303      0.0000 
     14 C8         -0.0830   12.4370   26.4110 C.2       1 8DA303      0.0000 
     15 O18        -1.1210   13.1860   26.2470 O.2       1 8DA303      0.0000 
     16 C6          2.2620   10.4010   28.1110 C.2       1 8DA303      0.0000 
     17 N6          2.0490   10.2300   29.4430 N.pl3     1 8DA303      0.0000 
     18 N1          3.3360    9.8070   27.4890 N.4       1 8DA303      0.0000 
     19 C2          3.5740    9.9730   26.1620 C.3       1 8DA303      0.0000 
     20 H           0.7977    9.5677   22.4037 H         1 8DA303      0.0000 
     21 H           1.4816    9.7756   20.7823 H         1 8DA303      0.0000 
     22 H           1.5457   12.0801   21.0050 H         1 8DA303      0.0000 
     23 H          -0.7548   10.9550   21.5569 H         1 8DA303      0.0000 
     24 H           0.5132   13.7279   23.9817 H         1 8DA303      0.0000 
     25 H          -1.1589   11.3714   23.8391 H         1 8DA303      0.0000 
     26 H          -1.3627   13.0005   23.1723 H         1 8DA303      0.0000 
     27 H          -0.2289   12.0331   28.4380 H         1 8DA303      0.0000 
     28 H           2.7264    9.6784   29.9297 H         1 8DA303      0.0000 
     29 H           1.2338   10.6710   29.8184 H         1 8DA303      0.0000 
     30 H           4.6847   10.3506   26.0294 H         1 8DA303      0.0000 
     31 H           3.7196    8.9071   25.6757 H         1 8DA303      0.0000 
     32 H           2.8433   10.1762   23.2997 H         1 8DA303      0.0000 
     33 H          -0.6178   12.6743   20.3246 H         1 8DA303      0.0000 
@<TRIPOS>BOND
     1    2    1 1    
     2   32    1 1    
     3    3    2 1    
     4   20    2 1    
     5   21    2 1    
     6    4    3 1    
     7    6    3 1    
     8   22    3 1    
     9    5    4 1    
    10    8    4 1    
    11   23    4 1    
    12   33    5 1    
    13    7    6 1    
    14    8    7 1    
    15    9    7 1    
    16   24    7 1    
    17   25    8 1    
    18   26    8 1    
    19   10    9 1    
    20   14    9 am   
    21   11   10 2    
    22   12   10 1    
    23   19   11 1    
    24   13   12 1    
    25   16   12 2    
    26   14   13 am   
    27   27   13 1    
    28   15   14 2    
    29   17   16 1    
    30   18   16 1    
    31   28   17 1    
    32   29   17 1    
    33   19   18 1    
    34   30   19 1    
    35   31   19 1    
@<TRIPOS>SUBSTRUCTURE
     1 8DA303      1 GROUP   
@<TRIPOS>SET

