#    Name: 3G0G_4_CAVITY_N1_ALL.mol2
#    Modification time : Mon Mar 10 18:03:19 2014

@<TRIPOS>MOLECULE
3G0G_4_CAVITY_N1_ALL.mol2
   89     0     6     0     0
SMALL
NO_CHARGES


@<TRIPOS>ATOM
      1 CA        -30.3717  -59.6437   54.7799 C.3       5 GLY6        0.0000 
      2 CA        -30.9089  -60.6580   53.8141 C.3       5 GLY6        0.0000 
      3 CA        -31.5538  -61.3970   54.9489 C.3       5 GLY6        0.0000 
      4 OG        -31.4461  -61.6722   52.8483 O.2       1 SER1        0.0000 
      5 OG        -32.0910  -62.4113   53.9832 O.2       1 SER1        0.0000 
      6 CZ        -38.7509  -54.7177   47.2784 C.ar      4 PHE5        0.0000 
      7 OG        -39.3958  -55.4567   48.4132 O.2       1 SER1        0.0000 
      8 CZ        -40.0407  -56.1958   49.5481 C.ar      4 PHE5        0.0000 
      9 CZ        -37.9983  -54.2538   44.0429 C.ar      4 PHE5        0.0000 
     10 CA        -38.6432  -54.9928   45.1777 C.3       5 GLY6        0.0000 
     11 CA        -39.2881  -55.7319   46.3126 C.3       5 GLY6        0.0000 
     12 CA        -39.9330  -56.4710   47.4474 C.3       5 GLY6        0.0000 
     13 OG        -40.5779  -57.2100   48.5823 O.2       1 SER1        0.0000 
     14 CA        -40.4702  -57.4852   46.4816 C.3       5 GLY6        0.0000 
     15 OG        -41.1151  -58.2243   47.6165 O.2       1 SER1        0.0000 
     16 N         -41.0074  -58.4994   45.5158 N.2       2 ALA2        0.0000 
     17 N         -41.6523  -59.2385   46.6507 N.2       2 ALA2        0.0000 
     18 CZ        -35.1290  -56.9075   49.8931 C.ar      4 PHE5        0.0000 
     19 CZ        -35.7739  -57.6465   51.0280 C.ar      4 PHE5        0.0000 
     20 OG        -35.6662  -57.9217   48.9273 O.2       1 SER1        0.0000 
     21 NZ        -36.3111  -58.6608   50.0622 N.2       3 LYS4        0.0000 
     22 CZ        -32.6426  -58.5508   50.2359 C.ar      4 PHE5        0.0000 
     23 CZ        -33.2876  -59.2898   51.3707 C.ar      4 PHE5        0.0000 
     24 CA        -33.9325  -60.0289   52.5056 C.3       5 GLY6        0.0000 
     25 N         -34.5774  -60.7680   53.6404 N.2       2 ALA2        0.0000 
     26 DU        -33.1798  -59.5650   49.2701 H         6 CUB7        0.0000 
     27 DU        -33.8247  -60.3041   50.4049 H         6 CUB7        0.0000 
     28 OG        -34.4696  -61.0431   51.5398 O.2       1 SER1        0.0000 
     29 N         -35.1146  -61.7822   52.6746 N.2       2 ALA2        0.0000 
     30 DU        -33.7170  -60.5792   48.3043 H         6 CUB7        0.0000 
     31 OG        -34.3619  -61.3183   49.4391 O.2       1 SER1        0.0000 
     32 N         -35.0068  -62.0574   50.5740 N.2       2 ALA2        0.0000 
     33 DU        -34.8991  -62.3325   48.4733 H         6 CUB7        0.0000 
     34 O         -29.6657  -61.4796   53.9855 O.2       2 ALA2        0.0000 
     35 OG        -32.5816  -61.1257   50.5763 O.2       1 SER1        0.0000 
     36 OG        -33.1187  -62.1399   49.6105 O.2       1 SER1        0.0000 
     37 CA        -40.6390  -54.6351   48.2418 C.3       5 GLY6        0.0000 
     38 OG        -36.3722  -56.0858   49.7218 O.2       1 SER1        0.0000 
     39 OG        -36.9094  -57.1000   48.7560 O.2       1 SER1        0.0000 
     40 CZ        -37.5543  -57.8391   49.8908 C.ar      4 PHE5        0.0000 
     41 OG        -36.8017  -57.3752   46.6553 O.2       1 SER1        0.0000 
     42 DU        -37.4466  -58.1143   47.7902 H         6 CUB7        0.0000 
     43 NZ        -38.0915  -58.8533   48.9250 N.2       3 LYS4        0.0000 
     44 NZ        -38.7364  -59.5924   50.0599 N.2       3 LYS4        0.0000 
     45 DU        -36.6940  -57.6504   44.5547 H         6 CUB7        0.0000 
     46 O         -37.3389  -58.3894   45.6895 O.2       2 ALA2        0.0000 
     47 O         -37.9838  -59.1285   46.8244 O.2       2 ALA2        0.0000 
     48 NZ        -38.6287  -59.8676   47.9592 N.2       3 LYS4        0.0000 
     49 O         -37.8761  -59.4037   44.7237 O.2       2 ALA2        0.0000 
     50 CA        -32.7970  -60.5754   54.7776 C.3       5 GLY6        0.0000 
     51 CZ        -32.0444  -60.1115   51.5421 C.ar      4 PHE5        0.0000 
     52 OG        -32.6893  -60.8506   52.6769 O.2       1 SER1        0.0000 
     53 OG        -33.3342  -61.5896   53.8118 O.2       1 SER1        0.0000 
     54 DU        -36.2034  -58.9359   47.9615 H         6 CUB7        0.0000 
     55 NZ        -36.8483  -59.6750   49.0964 N.2       3 LYS4        0.0000 
     56 NZ        -37.4932  -60.4141   50.2312 N.2       3 LYS4        0.0000 
     57 O         -36.7406  -59.9502   46.9957 O.2       2 ALA2        0.0000 
     58 NZ        -37.3855  -60.6892   48.1306 N.2       3 LYS4        0.0000 
     59 OG        -38.1526  -56.2784   48.5846 O.2       1 SER1        0.0000 
     60 CZ        -38.7975  -57.0175   49.7194 C.ar      4 PHE5        0.0000 
     61 CZ        -36.7551  -55.0754   44.2143 C.ar      4 PHE5        0.0000 
     62 CZ        -37.4000  -55.8145   45.3491 C.ar      4 PHE5        0.0000 
     63 OG        -38.0449  -56.5536   46.4839 O.2       1 SER1        0.0000 
     64 DU        -38.6898  -57.2926   47.6188 H         6 CUB7        0.0000 
     65 OG        -39.3347  -58.0317   48.7536 O.2       1 SER1        0.0000 
     66 OG        -39.9796  -58.7708   49.8885 O.2       1 SER1        0.0000 
     67 DU        -37.2923  -56.0896   43.2485 H         6 CUB7        0.0000 
     68 OG        -37.9372  -56.8287   44.3833 O.2       1 SER1        0.0000 
     69 OG        -38.5821  -57.5678   45.5182 O.2       1 SER1        0.0000 
     70 O         -39.2270  -58.3069   46.6530 O.2       2 ALA2        0.0000 
     71 NZ        -39.8719  -59.0459   47.7878 N.2       3 LYS4        0.0000 
     72 OG        -40.5168  -59.7850   48.9227 O.2       1 SER1        0.0000 
     73 OG        -38.4744  -57.8429   43.4175 O.2       1 SER1        0.0000 
     74 OG        -39.1193  -58.5820   44.5524 O.2       1 SER1        0.0000 
     75 O         -39.7642  -59.3211   45.6872 O.2       2 ALA2        0.0000 
     76 O         -40.4091  -60.0602   46.8220 O.2       2 ALA2        0.0000 
     77 CZ        -33.2409  -56.9900   48.9297 C.ar      4 PHE5        0.0000 
     78 CZ        -33.8858  -57.7291   50.0645 C.ar      4 PHE5        0.0000 
     79 CZ        -34.5307  -58.4682   51.1993 C.ar      4 PHE5        0.0000 
     80 CZ        -35.1756  -59.2073   52.3342 C.ar      4 PHE5        0.0000 
     81 DU        -34.4230  -58.7433   49.0987 H         6 CUB7        0.0000 
     82 DU        -35.0679  -59.4824   50.2335 H         6 CUB7        0.0000 
     83 NZ        -35.7128  -60.2215   51.3684 N.2       3 LYS4        0.0000 
     84 N         -35.6051  -60.4966   49.2678 N.2       2 ALA2        0.0000 
     85 N         -36.2500  -61.2357   50.4026 N.2       2 ALA2        0.0000 
     86 NZ        -36.1423  -61.5109   48.3020 N.2       3 LYS4        0.0000 
     87 CA        -41.1762  -55.6493   47.2760 C.3       5 GLY6        0.0000 
     88 OG        -41.8211  -56.3884   48.4109 O.2       1 SER1        0.0000 
     89 OG        -42.3583  -57.4026   47.4451 O.2       1 SER1        0.0000 
@<TRIPOS>BOND
@<TRIPOS>SUBSTRUCTURE
     1 SER1        4 GROUP   
     2 ALA2       16 GROUP   
     3 LYS4       21 GROUP   
     4 PHE5        6 GROUP   
     5 GLY6        1 GROUP   
     6 CUB7       26 GROUP   
@<TRIPOS>SET

