#    Name: 3g0g_RUM_4_INTS_M
#    Modification time : Tue Mar 25 06:57:50 2014

@<TRIPOS>MOLECULE
3g0g_RUM_4_INTS_M
   49     0    12     0     0
SMALL
NO_CHARGES


@<TRIPOS>ATOM
      1 CA        -41.6805  -58.9420   45.4190 C.3       4 GLC5        0.0000 
      2 CA        -40.5670  -58.1120   47.1190 C.3      12 GLL5        0.0000 
      3 CA        -42.7940  -59.7720   43.7190 C.3       8 GLP5        0.0000 
      4 CA        -42.2995  -53.7340   47.1875 C.3       4 GLC5        0.0000 
      5 CA        -42.9520  -55.6510   48.1460 C.3      12 GLL5        0.0000 
      6 CA        -41.6470  -51.8170   46.2290 C.3       8 GLP5        0.0000 
      7 CA        -38.5015  -55.8220   50.3965 C.3       4 GLC5        0.0000 
      8 CA        -38.7050  -56.3090   48.5860 C.3      12 GLL5        0.0000 
      9 CA        -38.2980  -55.3350   52.2070 C.3       8 GLP5        0.0000 
     10 CA        -37.3580  -53.1195   44.5800 C.3       4 GLC5        0.0000 
     11 CA        -38.0940  -54.7470   43.4900 C.3      12 GLL5        0.0000 
     12 CA        -36.6220  -51.4920   45.6700 C.3       8 GLP5        0.0000 
     13 N         -40.4330  -53.8870   45.8950 N.am      2 SEC2        0.0000 
     14 N         -39.1410  -54.7110   46.3250 N.am     10 SEL2        0.0000 
     15 N         -41.7250  -53.0630   45.4650 N.am      6 SEP2        0.0000 
     16 CA        -38.8115  -61.8935   49.8230 C.3       4 GLC5        0.0000 
     17 CA        -37.1280  -60.6360   49.2670 C.3      12 GLL5        0.0000 
     18 CA        -40.4950  -63.1510   50.3790 C.3       8 GLP5        0.0000 
     19 OD1       -39.0210  -61.2835   49.0845 O.co2     3 ASC3        0.0000 
     20 OD1       -38.4550  -60.3470   49.7850 O.co2    11 ASL3        0.0000 
     21 OD1       -39.5870  -62.2200   48.3840 O.co2     7 ASP3        0.0000 
     22 OD1       -38.5245  -60.3820   51.1400 O.co2     3 ASC3        0.0000 
     23 OD1       -38.5940  -60.4170   52.4950 O.co2     7 ASP3        0.0000 
     24 OD1       -39.5640  -60.0360   51.1585 O.co2     3 ASC3        0.0000 
     25 OD1       -40.6730  -59.7250   52.5320 O.co2     7 ASP3        0.0000 
     26 O         -39.0210  -61.2835   49.0845 O.2       1 ALC1        0.0000 
     27 O         -38.4550  -60.3470   49.7850 O.2       9 ALL1        0.0000 
     28 O         -39.5870  -62.2200   48.3840 O.2       5 ALP1        0.0000 
     29 O         -38.5245  -60.3820   51.1400 O.2       1 ALC1        0.0000 
     30 O         -38.5940  -60.4170   52.4950 O.2       5 ALP1        0.0000 
     31 CA        -37.2765  -57.0000   51.3505 C.3       4 GLC5        0.0000 
     32 CA        -36.2550  -58.6650   50.4940 C.3      12 GLL5        0.0000 
     33 CA        -42.0977  -55.8530   46.0277 C.3       4 GLC5        0.0000 
     34 CA        -42.4130  -56.7930   47.5530 C.3      12 GLL5        0.0000 
     35 CA        -41.5130  -55.4840   44.2060 C.3       8 GLP5        0.0000 
     36 CA        -44.2717  -56.8985   47.2428 C.3       4 GLC5        0.0000 
     37 CA        -45.8610  -57.5750   46.6360 C.3       8 GLP5        0.0000 
     38 CA        -44.3045  -54.5118   48.5948 C.3       4 GLC5        0.0000 
     39 CA        -46.0540  -53.8220   48.6910 C.3       8 GLP5        0.0000 
     40 CA        -40.9415  -53.3205   48.0255 C.3       4 GLC5        0.0000 
     41 CA        -42.1580  -54.7520   48.8510 C.3      12 GLL5        0.0000 
     42 CA        -40.4090  -51.7800   47.1330 C.3       8 GLP5        0.0000 
     43 CA        -41.0080  -56.1612   46.0554 C.3       4 GLC5        0.0000 
     44 CA        -40.1960  -56.0930   48.4190 C.3      12 GLL5        0.0000 
     45 CA        -39.7070  -55.4098   44.2052 C.3       4 GLC5        0.0000 
     46 CA        -37.7080  -55.9240   44.9190 C.3      12 GLL5        0.0000 
     47 CA        -34.9432  -56.8538   50.8972 C.3       4 GLC5        0.0000 
     48 CA        -36.0540  -57.8980   49.1930 C.3      12 GLL5        0.0000 
     49 CA        -33.7320  -55.4260   51.9510 C.3       8 GLP5        0.0000 
@<TRIPOS>BOND
@<TRIPOS>SUBSTRUCTURE
     1 ALC1       26 GROUP        1 X    ALC  0     ROOT ALC X 1
     2 SEC2       13 GROUP        1 X    SEC  0     **** SEC X 2
     3 ASC3       19 GROUP        1 X    ASC  0     **** ASC X 3
     4 GLC5        1 GROUP        1 X    GLC  0     **** GLC X 6
     5 ALP1       28 GROUP        1 Y    ALP  0     ROOT ALP Y 8
     6 SEP2       15 GROUP        1 Y    SEP  0     **** SEP Y 9
     7 ASP3       21 GROUP        1 Y    ASP  0     **** ASP Y 10
     8 GLP5        3 GROUP        1 Y    GLP  0     **** GLP Y 13
     9 ALL1       27 GROUP        1 Z    ALL  0     ROOT ALL Z 15
    10 SEL2       14 GROUP        1 Z    SEL  0     **** SEL Z 16
    11 ASL3       20 GROUP        1 Z    ASL  0     **** ASL Z 17
    12 GLL5        2 GROUP        1 Z    GLL  0     **** GLL Z 20
@<TRIPOS>SET

