#    Name: 3g0g_RUM_4_ligand
#    Modification time : Tue Mar 25 06:57:50 2014

@<TRIPOS>MOLECULE
3g0g_RUM_4_ligand
   43    45     1     0     0
SMALL
NO_CHARGES


@<TRIPOS>ATOM
      1 N17       -40.1090  -59.0620   46.6460 N.1       1 RUM800      0.0000 
      2 C16       -40.5670  -58.1120   47.1190 C.1       1 RUM800      0.0000 
      3 C15       -41.0530  -57.0560   47.6620 C.ar      1 RUM800      0.0000 
      4 C14       -42.4130  -56.7930   47.5530 C.ar      1 RUM800      0.0000 
      5 C13       -42.9520  -55.6510   48.1460 C.ar      1 RUM800      0.0000 
      6 C12       -42.1580  -54.7520   48.8510 C.ar      1 RUM800      0.0000 
      7 C11       -40.7900  -54.9700   48.9850 C.ar      1 RUM800      0.0000 
      8 C10       -40.1960  -56.0930   48.4190 C.ar      1 RUM800      0.0000 
      9 C9        -38.7050  -56.3090   48.5860 C.3       1 RUM800      0.0000 
     10 N2        -38.0640  -56.5480   47.2890 N.am      1 RUM800      0.0000 
     11 C3        -37.1630  -57.6320   47.0600 C.2       1 RUM800      0.0000 
     12 N4        -36.5820  -57.8010   45.8400 N.2       1 RUM800      0.0000 
     13 C5        -36.8340  -56.9970   44.7910 C.2       1 RUM800      0.0000 
     14 C6        -37.7080  -55.9240   44.9190 C.2       1 RUM800      0.0000 
     15 BR7       -38.0940  -54.7470   43.4900 Br        1 RUM800      0.0000 
     16 C1        -38.3560  -55.6770   46.2170 C.2       1 RUM800      0.0000 
     17 O8        -39.1410  -54.7110   46.3250 O.2       1 RUM800      0.0000 
     18 N18       -36.7680  -58.5230   48.0680 N.3       1 RUM800      0.0000 
     19 C23       -36.9490  -59.9690   47.9040 C.3       1 RUM800      0.0000 
     20 C22       -37.1280  -60.6360   49.2670 C.3       1 RUM800      0.0000 
     21 N24       -38.4550  -60.3470   49.7850 N.4       1 RUM800      0.0000 
     22 C21       -36.0610  -60.1500   50.2420 C.3       1 RUM800      0.0000 
     23 C20       -36.2550  -58.6650   50.4940 C.3       1 RUM800      0.0000 
     24 C19       -36.0540  -57.8980   49.1930 C.3       1 RUM800      0.0000 
     25 H         -43.0237  -57.4379   47.0363 H         1 RUM800      0.0000 
     26 H         -43.9708  -55.4690   48.0581 H         1 RUM800      0.0000 
     27 H         -42.5869  -53.9163   49.2783 H         1 RUM800      0.0000 
     28 H         -40.2129  -54.2937   49.5078 H         1 RUM800      0.0000 
     29 H         -38.5489  -57.1638   49.2558 H         1 RUM800      0.0000 
     30 H         -38.2758  -55.4228   49.0700 H         1 RUM800      0.0000 
     31 H         -36.3816  -57.1630   43.8700 H         1 RUM800      0.0000 
     32 H         -36.0801  -60.4160   47.4139 H         1 RUM800      0.0000 
     33 H         -37.8329  -60.1834   47.2976 H         1 RUM800      0.0000 
     34 H         -37.0023  -61.7050   49.1340 H         1 RUM800      0.0000 
     35 H         -35.0803  -60.3209   49.8152 H         1 RUM800      0.0000 
     36 H         -36.1540  -60.6920   51.1751 H         1 RUM800      0.0000 
     37 H         -35.5324  -58.3240   51.2275 H         1 RUM800      0.0000 
     38 H         -37.2590  -58.4879   50.8641 H         1 RUM800      0.0000 
     39 H         -36.4033  -56.8650   49.3427 H         1 RUM800      0.0000 
     40 H         -34.9746  -57.8496   48.9829 H         1 RUM800      0.0000 
     41 H         -38.7927  -59.4609   49.4677 H         1 RUM800      0.0000 
     42 H         -39.1228  -61.0344   49.4997 H         1 RUM800      0.0000 
     43 H         -38.4667  -60.3242   50.7847 H         1 RUM800      0.0000 
@<TRIPOS>BOND
     1    2    1 3    
     2    3    2 1    
     3    4    3 ar   
     4    8    3 ar   
     5    5    4 ar   
     6   25    4 1    
     7    6    5 ar   
     8   26    5 1    
     9    7    6 ar   
    10   27    6 1    
    11    8    7 ar   
    12   28    7 1    
    13    9    8 1    
    14   10    9 1    
    15   29    9 1    
    16   30    9 1    
    17   11   10 1    
    18   16   10 am   
    19   12   11 2    
    20   18   11 1    
    21   13   12 1    
    22   14   13 2    
    23   31   13 1    
    24   15   14 1    
    25   16   14 1    
    26   17   16 2    
    27   19   18 1    
    28   24   18 1    
    29   20   19 1    
    30   32   19 1    
    31   33   19 1    
    32   21   20 1    
    33   22   20 1    
    34   34   20 1    
    35   41   21 1    
    36   42   21 1    
    37   43   21 1    
    38   23   22 1    
    39   35   22 1    
    40   36   22 1    
    41   24   23 1    
    42   37   23 1    
    43   38   23 1    
    44   39   24 1    
    45   40   24 1    
@<TRIPOS>SUBSTRUCTURE
     1 RUM800      1 GROUP   
@<TRIPOS>SET

