#    Name: 1qd1_FON_1_INTS_M
#    Modification time : Mon Mar 24 23:22:15 2014

@<TRIPOS>MOLECULE
1qd1_FON_1_INTS_M
   70     0    12     0     0
SMALL
NO_CHARGES


@<TRIPOS>ATOM
      1 CA          1.5715   32.4230   41.3080 C.3       4 GLC5        0.0000 
      2 CA          2.6260   30.7100   41.2460 C.3      12 GLL5        0.0000 
      3 CA          0.5170   34.1360   41.3700 C.3       8 GLP5        0.0000 
      4 CA          3.8025   32.1215   38.6675 C.3       4 GLC5        0.0000 
      5 CA          3.6650   31.0060   40.1800 C.3      12 GLL5        0.0000 
      6 CA          3.9400   33.2370   37.1550 C.3       8 GLP5        0.0000 
      7 CA          4.9265   30.0480   39.0480 C.3       4 GLC5        0.0000 
      8 CA          6.1880   29.0900   37.9160 C.3       8 GLP5        0.0000 
      9 CA          1.9795   32.3160   39.5550 C.3       4 GLC5        0.0000 
     10 CA          0.2940   33.6260   38.9300 C.3       8 GLP5        0.0000 
     11 O           5.0210   32.6735   39.8320 O.2       1 ALC1        0.0000 
     12 O           4.6630   31.8060   40.6430 O.2       9 ALL1        0.0000 
     13 O           5.3790   33.5410   39.0210 O.2       5 ALP1        0.0000 
     14 CA          1.8885   27.6190   42.1820 C.3       4 GLC5        0.0000 
     15 CA          2.2340   29.2610   41.3360 C.3      12 GLL5        0.0000 
     16 CA          1.5430   25.9770   43.0280 C.3       8 GLP5        0.0000 
     17 CA         -0.1895   32.0385   41.4220 C.3       4 GLC5        0.0000 
     18 CA         -0.8960   29.9410   41.4740 C.3      12 GLL5        0.0000 
     19 N          -6.1440   31.9215   40.7210 N.am      2 SEC2        0.0000 
     20 N          -5.0070   31.1120   40.6390 N.am     10 SEL2        0.0000 
     21 N          -7.2810   32.7310   40.8030 N.am      6 SEP2        0.0000 
     22 O          -4.1755   29.3450   37.4005 O.2       1 ALC1        0.0000 
     23 O          -4.9000   30.2480   38.5250 O.2       9 ALL1        0.0000 
     24 O          -3.4510   28.4420   36.2760 O.2       5 ALP1        0.0000 
     25 CA         -9.2085   28.8565   36.7180 C.3       4 GLC5        0.0000 
     26 CA         -8.1490   30.8340   36.7330 C.3      12 GLL5        0.0000 
     27 CA        -10.2680   26.8790   36.7030 C.3       8 GLP5        0.0000 
     28 CA         -9.1350   32.3905   37.0250 C.3       4 GLC5        0.0000 
     29 CA        -10.1210   33.9470   37.3170 C.3       8 GLP5        0.0000 
     30 NZ         -8.9365   32.4065   33.8910 N.4       3 LYC4        0.0000 
     31 NZ         -9.9020   30.9620   35.0610 N.4      11 LYL4        0.0000 
     32 NZ         -9.0120   34.3820   33.2390 N.4       7 LYP4        0.0000 
     33 N         -10.4080   30.5450   33.9130 N.am      2 SEC2        0.0000 
     34 N          -9.9020   30.9620   35.0610 N.am     10 SEL2        0.0000 
     35 N         -10.9140   30.1280   32.7650 N.am      6 SEP2        0.0000 
     36 N          -9.9575   32.2425   34.2415 N.am      2 SEC2        0.0000 
     37 N         -10.0130   33.5230   33.4220 N.am      6 SEP2        0.0000 
     38 NZ         -7.8080   32.6285   33.8635 N.4       3 LYC4        0.0000 
     39 NZ         -7.8600   31.2900   34.3600 N.4      11 LYL4        0.0000 
     40 N          -8.9365   32.4065   33.8910 N.am      2 SEC2        0.0000 
     41 N          -7.8600   31.2900   34.3600 N.am     10 SEL2        0.0000 
     42 N          -7.8080   32.6285   33.8635 N.am      2 SEC2        0.0000 
     43 N          -7.7560   33.9670   33.3670 N.am      6 SEP2        0.0000 
     44 NZ         -8.4255   27.0600   39.5730 N.4       3 LYC4        0.0000 
     45 NZ         -7.8630   28.4660   39.3120 N.4      11 LYL4        0.0000 
     46 NZ         -8.6350   24.5660   39.1590 N.4       7 LYP4        0.0000 
     47 N          -8.4255   27.0600   39.5730 N.am      2 SEC2        0.0000 
     48 N          -7.8630   28.4660   39.3120 N.am     10 SEL2        0.0000 
     49 N          -8.9880   25.6540   39.8340 N.am      6 SEP2        0.0000 
     50 NZ         -5.1190   26.4435   37.6400 N.4       3 LYC4        0.0000 
     51 NZ         -6.5470   27.6640   37.7670 N.4      11 LYL4        0.0000 
     52 NZ         -3.6910   25.2230   37.5130 N.4       7 LYP4        0.0000 
     53 NZ         -7.1365   26.1610   37.9810 N.4       3 LYC4        0.0000 
     54 N          -7.1365   26.1610   37.9810 N.am      2 SEC2        0.0000 
     55 N          -6.5470   27.6640   37.7670 N.am     10 SEL2        0.0000 
     56 N          -7.7260   24.6580   38.1950 N.am      6 SEP2        0.0000 
     57 CA          5.3380   29.6210   41.9205 C.3       4 GLC5        0.0000 
     58 CA          4.4230   31.2170   42.9020 C.3      12 GLL5        0.0000 
     59 CA          5.8610   27.7110   41.4360 C.3       8 GLP5        0.0000 
     60 CA          4.2754   28.8852   41.2302 C.3       4 GLC5        0.0000 
     61 CA         -3.1150   28.3783   40.4900 C.3       4 GLC5        0.0000 
     62 CA         -2.2330   29.4430   39.0400 C.3      12 GLL5        0.0000 
     63 CA         -3.6330   26.9860   41.4120 C.3       8 GLP5        0.0000 
     64 CA         -2.0995   28.0703   40.5902 C.3       4 GLC5        0.0000 
     65 CA         -0.9140   28.9580   39.1910 C.3      12 GLL5        0.0000 
     66 CA         -1.2414   27.5529   39.1869 C.3       4 GLC5        0.0000 
     67 CA         -1.5870   25.8300   38.6430 C.3       8 GLP5        0.0000 
     68 CA         -0.6689   29.9264   38.0439 C.3       4 GLC5        0.0000 
     69 CA         -0.4420   30.5770   36.3570 C.3       8 GLP5        0.0000 
     70 CA         -2.6168   28.5415   41.4188 C.3       4 GLC5        0.0000 
@<TRIPOS>BOND
@<TRIPOS>SUBSTRUCTURE
     1 ALC1       11 GROUP        1 X    ALC  0     ROOT ALC X 1
     2 SEC2       19 GROUP        1 X    SEC  0     **** SEC X 2
     3 LYC4       30 GROUP        1 X    LYC  0     **** LYC X 4
     4 GLC5        1 GROUP        1 X    GLC  0     **** GLC X 6
     5 ALP1       13 GROUP        1 Y    ALP  0     ROOT ALP Y 8
     6 SEP2       21 GROUP        1 Y    SEP  0     **** SEP Y 9
     7 LYP4       32 GROUP        1 Y    LYP  0     **** LYP Y 11
     8 GLP5        3 GROUP        1 Y    GLP  0     **** GLP Y 13
     9 ALL1       12 GROUP        1 Z    ALL  0     ROOT ALL Z 15
    10 SEL2       20 GROUP        1 Z    SEL  0     **** SEL Z 16
    11 LYL4       31 GROUP        1 Z    LYL  0     **** LYL Z 18
    12 GLL5        2 GROUP        1 Z    GLL  0     **** GLL Z 20
@<TRIPOS>SET

