#    Name: 1qd1_FON_1_ligand
#    Modification time : Mon Mar 24 23:22:15 2014

@<TRIPOS>MOLECULE
1qd1_FON_1_ligand
   55    57     1     0     0
SMALL
NO_CHARGES


@<TRIPOS>ATOM
      1 N1          6.5650   31.8650   42.0760 N.pl3     1 FON330      0.0000 
      2 C2          6.9910   31.0390   43.0590 C.2       1 FON330      0.0000 
      3 NA2         8.4480   30.9130   43.1980 N.pl3     1 FON330      0.0000 
      4 N3          6.4260   30.3430   43.8960 N.2       1 FON330      0.0000 
      5 C4          5.0380   30.2760   43.7460 C.2       1 FON330      0.0000 
      6 O4          4.2260   29.3400   44.3640 O.2       1 FON330      0.0000 
      7 C4A         4.4230   31.2170   42.9020 C.2       1 FON330      0.0000 
      8 N5          3.0820   31.2410   42.6130 N.am      1 FON330      0.0000 
      9 C6          2.6260   30.7100   41.2460 C.3       1 FON330      0.0000 
     10 C7          3.6650   31.0060   40.1800 C.3       1 FON330      0.0000 
     11 N8          4.6630   31.8060   40.6430 N.pl3     1 FON330      0.0000 
     12 C8A         5.2070   31.8450   41.9080 C.2       1 FON330      0.0000 
     13 C9          2.2340   29.2610   41.3360 C.3       1 FON330      0.0000 
     14 N10         1.1970   28.9790   40.3260 N.pl3     1 FON330      0.0000 
     15 C11        -2.9610   30.0980   40.0960 C.ar      1 FON330      0.0000 
     16 C12        -2.2330   29.4430   39.0400 C.ar      1 FON330      0.0000 
     17 C13        -0.9140   28.9580   39.1910 C.ar      1 FON330      0.0000 
     18 C14        -0.2180   29.3510   40.3460 C.ar      1 FON330      0.0000 
     19 C15        -0.8960   29.9410   41.4740 C.ar      1 FON330      0.0000 
     20 C16        -2.3050   30.2530   41.3770 C.ar      1 FON330      0.0000 
     21 C          -4.3380   30.5150   39.7670 C.2       1 FON330      0.0000 
     22 O          -5.0070   31.1120   40.6390 O.2       1 FON330      0.0000 
     23 N          -4.9000   30.2480   38.5250 N.am      1 FON330      0.0000 
     24 CA         -6.3490   30.0760   38.2880 C.3       1 FON330      0.0000 
     25 CB         -6.6440   30.5570   36.9270 C.3       1 FON330      0.0000 
     26 CG         -8.1490   30.8340   36.7330 C.3       1 FON330      0.0000 
     27 CD         -8.6680   31.0450   35.2810 C.2       1 FON330      0.0000 
     28 OE1        -9.9020   30.9620   35.0610 O.co2     1 FON330      0.0000 
     29 OE2        -7.8600   31.2900   34.3600 O.co2     1 FON330      0.0000 
     30 CT         -6.9500   28.6220   38.4720 C.2       1 FON330      0.0000 
     31 O1         -7.8630   28.4660   39.3120 O.co2     1 FON330      0.0000 
     32 O2         -6.5470   27.6640   37.7670 O.co2     1 FON330      0.0000 
     33 CP1         2.0240   31.7250   43.5690 C.2       1 FON330      0.0000 
     34 O3          2.1720   31.4140   44.9840 O.2       1 FON330      0.0000 
     35 H           7.1685   32.4306   41.5284 H         1 FON330      0.0000 
     36 H           8.9988   31.4249   42.5387 H         1 FON330      0.0000 
     37 H           8.7700   30.3257   43.9405 H         1 FON330      0.0000 
     38 H           1.7105   31.2917   40.9838 H         1 FON330      0.0000 
     39 H           3.1170   31.4512   39.3153 H         1 FON330      0.0000 
     40 H           4.0347   30.0190   39.8120 H         1 FON330      0.0000 
     41 H           5.0922   32.5098   39.9246 H         1 FON330      0.0000 
     42 H           1.8543   29.0545   42.3366 H         1 FON330      0.0000 
     43 H           3.1129   28.6409   41.1599 H         1 FON330      0.0000 
     44 H           1.5252   28.4327   39.4714 H         1 FON330      0.0000 
     45 H          -2.7117   29.3262   38.1237 H         1 FON330      0.0000 
     46 H          -0.4982   28.3612   38.5031 H         1 FON330      0.0000 
     47 H          -0.3930   30.1353   42.3249 H         1 FON330      0.0000 
     48 H          -2.8146   30.5685   42.1761 H         1 FON330      0.0000 
     49 H          -4.2891   30.1563   37.6817 H         1 FON330      0.0000 
     50 H          -6.9078   30.7307   38.9886 H         1 FON330      0.0000 
     51 H          -6.3376   29.8153   36.1786 H         1 FON330      0.0000 
     52 H          -6.0995   31.4864   36.7176 H         1 FON330      0.0000 
     53 H          -8.4242   31.7340   37.3318 H         1 FON330      0.0000 
     54 H          -8.7257   29.9939   37.1867 H         1 FON330      0.0000 
     55 H           1.2563   32.2396   43.2225 H         1 FON330      0.0000 
@<TRIPOS>BOND
     1    2    1 1    
     2   12    1 1    
     3   35    1 1    
     4    3    2 1    
     5    4    2 2    
     6   36    3 1    
     7   37    3 1    
     8    5    4 1    
     9    6    5 2    
    10    7    5 1    
    11    8    7 1    
    12   12    7 2    
    13    9    8 1    
    14   33    8 am   
    15   10    9 1    
    16   13    9 1    
    17   38    9 1    
    18   11   10 1    
    19   39   10 1    
    20   40   10 1    
    21   12   11 1    
    22   41   11 1    
    23   14   13 1    
    24   42   13 1    
    25   43   13 1    
    26   18   14 1    
    27   44   14 1    
    28   16   15 ar   
    29   20   15 ar   
    30   21   15 1    
    31   17   16 ar   
    32   45   16 1    
    33   18   17 ar   
    34   46   17 1    
    35   19   18 ar   
    36   20   19 ar   
    37   47   19 1    
    38   48   20 1    
    39   22   21 2    
    40   23   21 am   
    41   24   23 1    
    42   49   23 1    
    43   25   24 1    
    44   30   24 1    
    45   50   24 1    
    46   26   25 1    
    47   51   25 1    
    48   52   25 1    
    49   27   26 1    
    50   53   26 1    
    51   54   26 1    
    52   28   27 ar   
    53   29   27 ar   
    54   31   30 ar   
    55   32   30 ar   
    56   34   33 2    
    57   55   33 1    
@<TRIPOS>SUBSTRUCTURE
     1 FON330      1 GROUP   
@<TRIPOS>SET

