#    Name: 3g0y_P9A_1_INTS_M
#    Modification time : Tue Mar 25 06:58:56 2014

@<TRIPOS>MOLECULE
3g0y_P9A_1_INTS_M
   45     0     9     0     0
SMALL
NO_CHARGES


@<TRIPOS>ATOM
      1 N         -26.0330   30.3605    6.6810 N.am      2 SEC2        0.0000 
      2 N         -25.3850   30.3450    5.3420 N.am      8 SEL2        0.0000 
      3 N         -26.6810   30.3760    8.0200 N.am      5 SEP2        0.0000 
      4 N         -23.5080   34.4770   -0.2855 N.am      2 SEC2        0.0000 
      5 N         -23.1250   33.4700    0.7190 N.am      8 SEL2        0.0000 
      6 N         -23.8910   35.4840   -1.2900 N.am      5 SEP2        0.0000 
      7 N         -22.7180   36.7175    2.8175 N.am      2 SEC2        0.0000 
      8 N         -23.6970   36.5430    3.8610 N.am      8 SEL2        0.0000 
      9 N         -21.7390   36.8920    1.7740 N.am      5 SEP2        0.0000 
     10 N         -21.3245   40.7350    8.3795 N.am      2 SEC2        0.0000 
     11 N         -21.0000   39.4760    8.7290 N.am      8 SEL2        0.0000 
     12 N         -21.6490   41.9940    8.0300 N.am      5 SEP2        0.0000 
     13 N         -19.7140   39.7400    9.0025 N.am      2 SEC2        0.0000 
     14 N         -18.4280   40.0040    9.2760 N.am      5 SEP2        0.0000 
     15 O         -25.1370   34.4135    6.2565 O.2       1 ALC1        0.0000 
     16 O         -24.3220   35.4960    5.8110 O.2       7 ALL1        0.0000 
     17 O         -25.9520   33.3310    6.7020 O.2       4 ALP1        0.0000 
     18 CA        -26.3350   33.8900    4.1170 C.3       3 GLC5        0.0000 
     19 CA        -24.4140   34.2240    3.7020 C.3       9 GLL5        0.0000 
     20 CA        -28.2560   33.5560    4.5320 C.3       6 GLP5        0.0000 
     21 CA        -26.0855   35.5835    3.8105 C.3       3 GLC5        0.0000 
     22 CA        -27.7570   36.9430    3.9190 C.3       6 GLP5        0.0000 
     23 CA        -25.2410   34.5970    1.7075 C.3       3 GLC5        0.0000 
     24 CA        -26.0680   34.9700   -0.2870 C.3       6 GLP5        0.0000 
     25 CA        -21.9105   34.6605    2.8020 C.3       3 GLC5        0.0000 
     26 CA        -23.1530   33.3820    3.8510 C.3       9 GLL5        0.0000 
     27 CA        -20.6680   35.9390    1.7530 C.3       6 GLP5        0.0000 
     28 CA        -25.0785   31.1275    6.8310 C.3       3 GLC5        0.0000 
     29 CA        -24.0750   30.8150    4.8880 C.3       9 GLL5        0.0000 
     30 CA        -26.0820   31.4400    8.7740 C.3       6 GLP5        0.0000 
     31 CA        -20.0885   31.1810    4.1035 C.3       3 GLC5        0.0000 
     32 CA        -21.5280   31.5760    2.9960 C.3       9 GLL5        0.0000 
     33 CA        -18.6490   30.7860    5.2110 C.3       6 GLP5        0.0000 
     34 CA        -26.6265   35.9735    6.5070 C.3       3 GLC5        0.0000 
     35 CA        -25.1040   37.3610    7.3570 C.3       9 GLL5        0.0000 
     36 CA        -28.1490   34.5860    5.6570 C.3       6 GLP5        0.0000 
     37 CA        -26.4305   37.1520    5.6380 C.3       3 GLC5        0.0000 
     38 CA        -25.1440   40.6265    8.2040 C.3       3 GLC5        0.0000 
     39 CA        -24.8070   38.4260    8.2180 C.3       9 GLL5        0.0000 
     40 CA        -25.4810   42.8270    8.1900 C.3       6 GLP5        0.0000 
     41 CA        -22.8355   40.6455    7.6650 C.3       3 GLC5        0.0000 
     42 CA        -23.5260   38.7410    8.4520 C.3       9 GLL5        0.0000 
     43 CA        -22.1450   42.5500    6.8780 C.3       6 GLP5        0.0000 
     44 CA        -24.5942   39.2338    9.9565 C.3       3 GLC5        0.0000 
     45 CA        -25.0220   39.8840   11.5780 C.3       6 GLP5        0.0000 
@<TRIPOS>BOND
@<TRIPOS>SUBSTRUCTURE
     1 ALC1       15 GROUP        1 X    ALC  0     ROOT ALC X 1
     2 SEC2        1 GROUP        1 X    SEC  0     **** SEC X 2
     3 GLC5       18 GROUP        1 X    GLC  0     **** GLC X 6
     4 ALP1       17 GROUP        1 Y    ALP  0     ROOT ALP Y 8
     5 SEP2        3 GROUP        1 Y    SEP  0     **** SEP Y 9
     6 GLP5       20 GROUP        1 Y    GLP  0     **** GLP Y 13
     7 ALL1       16 GROUP        1 Z    ALL  0     ROOT ALL Z 15
     8 SEL2        2 GROUP        1 Z    SEL  0     **** SEL Z 16
     9 GLL5       19 GROUP        1 Z    GLL  0     **** GLL Z 20
@<TRIPOS>SET

