#    Name: 3g0y_P9A_1_ligand
#    Modification time : Tue Mar 25 06:58:56 2014

@<TRIPOS>MOLECULE
3g0y_P9A_1_ligand
   60    64     1     0     0
SMALL
NO_CHARGES


@<TRIPOS>ATOM
      1 O16       -25.3850   30.3450    5.3420 O.3       1 P9A413      0.0000 
      2 O19       -23.1250   33.4700    0.7190 O.2       1 P9A413      0.0000 
      3 O20       -23.6970   36.5430    3.8610 O.2       1 P9A413      0.0000 
      4 O30       -26.4230   37.0760    7.1560 O.3       1 P9A413      0.0000 
      5 O31       -21.8290   36.1680    6.3160 O.3       1 P9A413      0.0000 
      6 O32       -20.1100   37.6940    7.6670 O.co2     1 P9A413      0.0000 
      7 O33       -21.0000   39.4760    8.7290 O.co2     1 P9A413      0.0000 
      8 N28       -24.3220   35.4960    5.8110 N.am      1 P9A413      0.0000 
      9 C1        -24.1170   35.5070    4.4580 C.2       1 P9A413      0.0000 
     10 C2        -24.4140   34.2240    3.7020 C.3       1 P9A413      0.0000 
     11 C3        -23.1530   33.3820    3.8510 C.3       1 P9A413      0.0000 
     12 C4        -22.9990   32.1790    2.8980 C.3       1 P9A413      0.0000 
     13 C5        -23.2410   32.4070    1.3400 C.2       1 P9A413      0.0000 
     14 C6        -23.6440   31.2190    0.5720 C.3       1 P9A413      0.0000 
     15 C7        -24.9160   30.6240    1.1520 C.3       1 P9A413      0.0000 
     16 C8        -24.6950   30.1600    2.5450 C.3       1 P9A413      0.0000 
     17 C9        -24.1890   31.3220    3.4380 C.3       1 P9A413      0.0000 
     18 C10       -24.0750   30.8150    4.8880 C.3       1 P9A413      0.0000 
     19 C11       -23.2270   29.5400    4.9920 C.3       1 P9A413      0.0000 
     20 C12       -24.1550   28.5790    4.2480 C.3       1 P9A413      0.0000 
     21 C13       -23.8330   28.8440    2.7580 C.3       1 P9A413      0.0000 
     22 C14       -26.0470   29.7530    3.1750 C.3       1 P9A413      0.0000 
     23 C15       -25.6020   29.1600    4.5300 C.3       1 P9A413      0.0000 
     24 C17       -26.6110   28.2420    5.2430 C.3       1 P9A413      0.0000 
     25 C18       -21.5280   31.5760    2.9960 C.3       1 P9A413      0.0000 
     26 C21       -21.0500   38.3840    8.0810 C.2       1 P9A413      0.0000 
     27 C22       -22.4780   38.0080    7.8270 C.ar      1 P9A413      0.0000 
     28 C23       -22.7540   36.9390    6.9670 C.ar      1 P9A413      0.0000 
     29 C24       -24.0980   36.6190    6.7330 C.ar      1 P9A413      0.0000 
     30 C25       -25.1040   37.3610    7.3570 C.ar      1 P9A413      0.0000 
     31 C26       -24.8070   38.4260    8.2180 C.ar      1 P9A413      0.0000 
     32 C27       -23.5260   38.7410    8.4520 C.ar      1 P9A413      0.0000 
     33 H         -24.6774   34.6073    6.2776 H         1 P9A413      0.0000 
     34 H         -24.5824   34.4401    2.6719 H         1 P9A413      0.0000 
     35 H         -25.2382   33.7198    4.1521 H         1 P9A413      0.0000 
     36 H         -23.0930   33.0048    4.8983 H         1 P9A413      0.0000 
     37 H         -22.2626   34.0408    3.7248 H         1 P9A413      0.0000 
     38 H         -22.8584   30.4585    0.6007 H         1 P9A413      0.0000 
     39 H         -23.8270   31.4818   -0.4739 H         1 P9A413      0.0000 
     40 H         -25.2328   29.7871    0.5215 H         1 P9A413      0.0000 
     41 H         -25.7032   31.3842    1.1281 H         1 P9A413      0.0000 
     42 H         -25.0963   32.0496    3.4749 H         1 P9A413      0.0000 
     43 H         -23.6937   31.5446    5.5231 H         1 P9A413      0.0000 
     44 H         -23.1404   29.2533    5.9890 H         1 P9A413      0.0000 
     45 H         -22.3392   29.6617    4.4622 H         1 P9A413      0.0000 
     46 H         -24.0586   27.6455    4.5218 H         1 P9A413      0.0000 
     47 H         -22.8329   29.0802    2.6425 H         1 P9A413      0.0000 
     48 H         -24.2242   28.0918    2.1660 H         1 P9A413      0.0000 
     49 H         -26.4980   29.0062    2.5921 H         1 P9A413      0.0000 
     50 H         -26.6329   30.6081    3.3375 H         1 P9A413      0.0000 
     51 H         -25.5848   38.9434    8.6523 H         1 P9A413      0.0000 
     52 H         -23.2585   39.5151    9.0845 H         1 P9A413      0.0000 
     53 H         -26.7914   27.4101    4.7183 H         1 P9A413      0.0000 
     54 H         -26.2812   27.9554    6.1425 H         1 P9A413      0.0000 
     55 H         -27.4907   28.6960    5.3843 H         1 P9A413      0.0000 
     56 H         -20.8324   32.2525    2.7541 H         1 P9A413      0.0000 
     57 H         -21.3180   31.2574    3.9203 H         1 P9A413      0.0000 
     58 H         -21.4046   30.7963    2.3821 H         1 P9A413      0.0000 
     59 H         -26.7137   37.6966    6.4278 H         1 P9A413      0.0000 
     60 H         -20.9424   36.5026    6.6355 H         1 P9A413      0.0000 
@<TRIPOS>BOND
     1   18    1 1    
     2   23    1 1    
     3   13    2 2    
     4    9    3 2    
     5   30    4 1    
     6   59    4 1    
     7   28    5 1    
     8   60    5 1    
     9   26    6 ar   
    10   26    7 ar   
    11    9    8 am   
    12   29    8 1    
    13   33    8 1    
    14   10    9 1    
    15   11   10 1    
    16   34   10 1    
    17   35   10 1    
    18   12   11 1    
    19   36   11 1    
    20   37   11 1    
    21   13   12 1    
    22   17   12 1    
    23   25   12 1    
    24   14   13 1    
    25   15   14 1    
    26   38   14 1    
    27   39   14 1    
    28   16   15 1    
    29   40   15 1    
    30   41   15 1    
    31   17   16 1    
    32   21   16 1    
    33   22   16 1    
    34   18   17 1    
    35   42   17 1    
    36   19   18 1    
    37   43   18 1    
    38   20   19 1    
    39   44   19 1    
    40   45   19 1    
    41   21   20 1    
    42   23   20 1    
    43   46   20 1    
    44   47   21 1    
    45   48   21 1    
    46   23   22 1    
    47   49   22 1    
    48   50   22 1    
    49   24   23 1    
    50   53   24 1    
    51   54   24 1    
    52   55   24 1    
    53   56   25 1    
    54   57   25 1    
    55   58   25 1    
    56   27   26 1    
    57   28   27 ar   
    58   32   27 ar   
    59   29   28 ar   
    60   30   29 ar   
    61   31   30 ar   
    62   32   31 ar   
    63   51   31 1    
    64   52   32 1    
@<TRIPOS>SUBSTRUCTURE
     1 P9A413      1 GROUP   
@<TRIPOS>SET

