#    Name: 4gf5_SAH_18_INTS_M
#    Modification time : Mon Mar 24 22:07:45 2014

@<TRIPOS>MOLECULE
4gf5_SAH_18_INTS_M
   89     0    15     0     0
SMALL
NO_CHARGES


@<TRIPOS>ATOM
      1 OD1       -19.5620   99.4290   55.1360 O.co2     3 ASC3        0.0000 
      2 OD1       -19.2620   99.7790   53.9850 O.co2    13 ASL3        0.0000 
      3 OD1       -19.8620   99.0790   56.2870 O.co2     8 ASP3        0.0000 
      4 O         -20.4025   99.6545   53.2440 O.2       1 ALC1        0.0000 
      5 O         -19.2620   99.7790   53.9850 O.2      11 ALL1        0.0000 
      6 O         -21.5430   99.5300   52.5030 O.2       6 ALP1        0.0000 
      7 O         -19.5620   99.4290   55.1360 O.2       1 ALC1        0.0000 
      8 O         -19.8620   99.0790   56.2870 O.2       6 ALP1        0.0000 
      9 CA        -19.8670  101.1485   52.0790 C.3       5 GLC5        0.0000 
     10 CA        -18.7320  101.1370   53.8820 C.3      15 GLL5        0.0000 
     11 CA        -21.0020  101.1600   50.2760 C.3      10 GLP5        0.0000 
     12 CA        -22.4765  101.0310   53.5735 C.3       5 GLC5        0.0000 
     13 CA        -21.0530  102.0890   54.7290 C.3      15 GLL5        0.0000 
     14 CA        -23.9000   99.9730   52.4180 C.3      10 GLP5        0.0000 
     15 CA        -22.2035  105.3635   56.4995 C.3       5 GLC5        0.0000 
     16 CA        -21.6970  103.3900   55.8360 C.3      15 GLL5        0.0000 
     17 CA        -22.7100  107.3370   57.1630 C.3      10 GLP5        0.0000 
     18 NZ        -15.7775  100.1035   55.6940 N.4       4 LYC4        0.0000 
     19 NZ        -16.6050  100.1290   54.4090 N.4      14 LYL4        0.0000 
     20 NZ        -13.7640  100.2720   56.4210 N.4       9 LYP4        0.0000 
     21 N         -15.1235  100.2190   54.7530 N.am      2 SEC2        0.0000 
     22 N         -16.6050  100.1290   54.4090 N.am     12 SEL2        0.0000 
     23 N         -13.6420  100.3090   55.0970 N.am      7 SEP2        0.0000 
     24 N         -15.7775  100.1035   55.6940 N.am      2 SEC2        0.0000 
     25 N         -14.9500  100.0780   56.9790 N.am      7 SEP2        0.0000 
     26 CA        -23.7705  106.2060   54.8840 C.3       5 GLC5        0.0000 
     27 CA        -24.4270  104.6770   54.0010 C.3      15 GLL5        0.0000 
     28 CA        -23.1140  107.7350   55.7670 C.3      10 GLP5        0.0000 
     29 N         -23.9995  106.1510   52.0230 N.am      2 SEC2        0.0000 
     30 N         -23.7380  105.0600   52.8400 N.am     12 SEL2        0.0000 
     31 N         -24.2610  107.2420   51.2060 N.am      7 SEP2        0.0000 
     32 O         -24.6215  104.8215   51.4955 O.2       1 ALC1        0.0000 
     33 O         -23.7380  105.0600   52.8400 O.2      11 ALL1        0.0000 
     34 O         -25.5050  104.5830   50.1510 O.2       6 ALP1        0.0000 
     35 O         -23.7945  104.1665   51.7925 O.2       1 ALC1        0.0000 
     36 O         -23.8510  103.2730   50.7450 O.2       6 ALP1        0.0000 
     37 CA        -26.2990  106.7295   53.4145 C.3       5 GLC5        0.0000 
     38 CA        -25.9210  104.7090   53.7060 C.3      15 GLL5        0.0000 
     39 CA        -26.6770  108.7500   53.1230 C.3      10 GLP5        0.0000 
     40 CA        -26.9095  105.1105   55.4085 C.3       5 GLC5        0.0000 
     41 CA        -27.8980  105.5120   57.1110 C.3      10 GLP5        0.0000 
     42 O         -25.8675  105.0255   51.3560 O.2       1 ALC1        0.0000 
     43 O         -26.2300  105.4680   52.5610 O.2      11 ALL1        0.0000 
     44 CA        -25.0690  101.6080   52.9355 C.3       5 GLC5        0.0000 
     45 CA        -26.2380  103.2430   53.4530 C.3      15 GLL5        0.0000 
     46 CA        -27.0010  101.2625   53.5375 C.3       5 GLC5        0.0000 
     47 CA        -27.7640   99.2820   53.6220 C.3      10 GLP5        0.0000 
     48 CA        -30.8525  101.2085   54.7675 C.3       5 GLC5        0.0000 
     49 CA        -29.7650  102.4220   53.3260 C.3      15 GLL5        0.0000 
     50 CA        -31.9400   99.9950   56.2090 C.3      10 GLP5        0.0000 
     51 CA        -30.5090  103.7680   51.1730 C.3       5 GLC5        0.0000 
     52 CA        -30.8680  102.0820   52.5470 C.3      15 GLL5        0.0000 
     53 CA        -30.1500  105.4540   49.7990 C.3      10 GLP5        0.0000 
     54 CA        -31.8205  103.7755   52.8315 C.3       5 GLC5        0.0000 
     55 CA        -32.7730  105.4690   53.1160 C.3      10 GLP5        0.0000 
     56 CA        -31.9565  102.2370   50.5910 C.3       5 GLC5        0.0000 
     57 CA        -33.0450  102.3920   48.6350 C.3      10 GLP5        0.0000 
     58 CA        -31.1815  100.3340   52.0715 C.3       5 GLC5        0.0000 
     59 CA        -31.4950   98.5860   51.5960 C.3      10 GLP5        0.0000 
     60 CA        -31.5435  100.6510   53.7685 C.3       5 GLC5        0.0000 
     61 CA        -32.2190   99.2200   54.9900 C.3      10 GLP5        0.0000 
     62 O         -33.1495  101.6850   52.0720 O.2       1 ALC1        0.0000 
     63 O         -32.0570  101.8780   53.1100 O.2      11 ALL1        0.0000 
     64 O         -34.2420  101.4920   51.0340 O.2       6 ALP1        0.0000 
     65 N         -31.4785  101.0570   50.2215 N.am      2 SEC2        0.0000 
     66 N         -30.7250  101.9310   51.1850 N.am     12 SEL2        0.0000 
     67 N         -32.2320  100.1830   49.2580 N.am      7 SEP2        0.0000 
     68 CA        -27.8885  102.2040   49.4970 C.3       5 GLC5        0.0000 
     69 CA        -29.4900  102.1320   50.5980 C.3      15 GLL5        0.0000 
     70 CA        -26.2870  102.2760   48.3960 C.3      10 GLP5        0.0000 
     71 CA        -29.8200  103.7930   50.1985 C.3       5 GLC5        0.0000 
     72 CA        -31.2675  102.2620   49.6165 C.3       5 GLC5        0.0000 
     73 CA        -29.5805  100.2985   50.2345 C.3       5 GLC5        0.0000 
     74 CA        -29.6710   98.4650   49.8710 C.3      10 GLP5        0.0000 
     75 CA        -28.6270  100.7070   52.1100 C.3       5 GLC5        0.0000 
     76 N         -28.0620  103.3655   49.9910 N.am      2 SEC2        0.0000 
     77 N         -28.4040  102.4820   51.3770 N.am     12 SEL2        0.0000 
     78 N         -27.7200  104.2490   48.6050 N.am      7 SEP2        0.0000 
     79 CA        -29.3450  104.0360   51.2575 C.3       5 GLC5        0.0000 
     80 CA        -28.5400  102.6180   52.7160 C.3      15 GLL5        0.0000 
     81 CA        -19.3550  103.2593   53.3787 C.3       5 GLC5        0.0000 
     82 CA        -19.5220  102.1480   54.7110 C.3      15 GLL5        0.0000 
     83 CA        -19.5830  104.8760   52.4610 C.3      10 GLP5        0.0000 
     84 CA        -20.4790  103.8077   53.8717 C.3       5 GLC5        0.0000 
     85 CA        -23.8400  101.5320   53.7050 C.3       5 GLC5        0.0000 
     86 CA        -23.4550  102.9730   55.6740 C.3      15 GLL5        0.0000 
     87 CA        -30.2933  104.1530   53.3730 C.3       5 GLC5        0.0000 
     88 CA        -31.4340  105.7860   53.7250 C.3      10 GLP5        0.0000 
     89 CA        -28.5961  100.8585   53.2241 C.3       5 GLC5        0.0000 
@<TRIPOS>BOND
@<TRIPOS>SUBSTRUCTURE
     1 ALC1        4 GROUP        1 X    ALC  0     ROOT ALC X 1
     2 SEC2       21 GROUP        1 X    SEC  0     **** SEC X 2
     3 ASC3        1 GROUP        1 X    ASC  0     **** ASC X 3
     4 LYC4       18 GROUP        1 X    LYC  0     **** LYC X 4
     5 GLC5        9 GROUP        1 X    GLC  0     **** GLC X 6
     6 ALP1        6 GROUP        1 Y    ALP  0     ROOT ALP Y 8
     7 SEP2       23 GROUP        1 Y    SEP  0     **** SEP Y 9
     8 ASP3        3 GROUP        1 Y    ASP  0     **** ASP Y 10
     9 LYP4       20 GROUP        1 Y    LYP  0     **** LYP Y 11
    10 GLP5       11 GROUP        1 Y    GLP  0     **** GLP Y 13
    11 ALL1        5 GROUP        1 Z    ALL  0     ROOT ALL Z 15
    12 SEL2       22 GROUP        1 Z    SEL  0     **** SEL Z 16
    13 ASL3        2 GROUP        1 Z    ASL  0     **** ASL Z 17
    14 LYL4       19 GROUP        1 Z    LYL  0     **** LYL Z 18
    15 GLL5       10 GROUP        1 Z    GLL  0     **** GLL Z 20
@<TRIPOS>SET

