#    Name: 4gf5_SAH_18_ligand
#    Modification time : Mon Mar 24 22:07:45 2014

@<TRIPOS>MOLECULE
4gf5_SAH_18_ligand
   46    48     1     0     0
SMALL
NO_CHARGES


@<TRIPOS>ATOM
      1 N         -19.2620   99.7790   53.9850 N.4       1 SAH301      0.0000 
      2 CA        -18.7320  101.1370   53.8820 C.3       1 SAH301      0.0000 
      3 CB        -19.5220  102.1480   54.7110 C.3       1 SAH301      0.0000 
      4 CG        -21.0530  102.0890   54.7290 C.3       1 SAH301      0.0000 
      5 SD        -21.6970  103.3900   55.8360 S.3       1 SAH301      0.0000 
      6 C         -17.2470  101.1770   54.2610 C.2       1 SAH301      0.0000 
      7 O         -16.6050  100.1290   54.4090 O.co2     1 SAH301      0.0000 
      8 OXT       -16.6510  102.2450   54.4260 O.co2     1 SAH301      0.0000 
      9 C5'       -23.4550  102.9730   55.6740 C.3       1 SAH301      0.0000 
     10 C4'       -24.1050  103.2090   54.3100 C.3       1 SAH301      0.0000 
     11 O4'       -25.3460  102.5130   54.2590 O.3       1 SAH301      0.0000 
     12 C3'       -24.4270  104.6770   54.0010 C.3       1 SAH301      0.0000 
     13 O3'       -23.7380  105.0600   52.8400 O.3       1 SAH301      0.0000 
     14 C2'       -25.9210  104.7090   53.7060 C.3       1 SAH301      0.0000 
     15 O2'       -26.2300  105.4680   52.5610 O.3       1 SAH301      0.0000 
     16 C1'       -26.2380  103.2430   53.4530 C.3       1 SAH301      0.0000 
     17 N9        -27.6480  102.9410   53.7010 N.pl3     1 SAH301      0.0000 
     18 C8        -28.3050  102.9360   54.9050 C.2       1 SAH301      0.0000 
     19 N7        -29.5930  102.6090   54.6590 N.2       1 SAH301      0.0000 
     20 C5        -29.7650  102.4220   53.3260 C.ar      1 SAH301      0.0000 
     21 C6        -30.8680  102.0820   52.5470 C.ar      1 SAH301      0.0000 
     22 N6        -32.0570  101.8780   53.1100 N.pl3     1 SAH301      0.0000 
     23 N1        -30.7250  101.9310   51.1850 N.ar      1 SAH301      0.0000 
     24 C2        -29.4900  102.1320   50.5980 C.ar      1 SAH301      0.0000 
     25 N3        -28.4040  102.4820   51.3770 N.ar      1 SAH301      0.0000 
     26 C4        -28.5400  102.6180   52.7160 C.ar      1 SAH301      0.0000 
     27 H         -18.7917  101.4693   52.8261 H         1 SAH301      0.0000 
     28 H         -19.2165  103.1853   54.3864 H         1 SAH301      0.0000 
     29 H         -19.1579  102.0899   55.7781 H         1 SAH301      0.0000 
     30 H         -21.4413  101.2090   55.1679 H         1 SAH301      0.0000 
     31 H         -21.5009  102.3395   53.8046 H         1 SAH301      0.0000 
     32 H         -23.9060  103.5691   56.4713 H         1 SAH301      0.0000 
     33 H         -23.4703  101.9236   55.9790 H         1 SAH301      0.0000 
     34 H         -23.4434  102.8416   53.5369 H         1 SAH301      0.0000 
     35 H         -24.2254  105.2587   54.8430 H         1 SAH301      0.0000 
     36 H         -26.4310  105.0048   54.5846 H         1 SAH301      0.0000 
     37 H         -26.0058  103.0671   52.3900 H         1 SAH301      0.0000 
     38 H         -27.9140  103.1294   55.7534 H         1 SAH301      0.0000 
     39 H         -32.7969  101.6129   52.4918 H         1 SAH301      0.0000 
     40 H         -32.1030  102.0082   54.1004 H         1 SAH301      0.0000 
     41 H         -29.3794  102.0207   49.5789 H         1 SAH301      0.0000 
     42 H         -19.6904   99.6140   54.8734 H         1 SAH301      0.0000 
     43 H         -19.9546   99.5967   53.2871 H         1 SAH301      0.0000 
     44 H         -18.5449   99.0910   53.8730 H         1 SAH301      0.0000 
     45 H         -23.9062  104.3237   52.1846 H         1 SAH301      0.0000 
     46 H         -25.8840  104.9296   51.7926 H         1 SAH301      0.0000 
@<TRIPOS>BOND
     1    2    1 1    
     2   42    1 1    
     3   43    1 1    
     4   44    1 1    
     5    3    2 1    
     6    6    2 1    
     7   27    2 1    
     8    4    3 1    
     9   28    3 1    
    10   29    3 1    
    11    5    4 1    
    12   30    4 1    
    13   31    4 1    
    14    9    5 1    
    15    7    6 ar   
    16    8    6 ar   
    17   10    9 1    
    18   32    9 1    
    19   33    9 1    
    20   11   10 1    
    21   12   10 1    
    22   34   10 1    
    23   16   11 1    
    24   13   12 1    
    25   14   12 1    
    26   35   12 1    
    27   45   13 1    
    28   15   14 1    
    29   16   14 1    
    30   36   14 1    
    31   46   15 1    
    32   17   16 1    
    33   37   16 1    
    34   18   17 1    
    35   26   17 1    
    36   19   18 2    
    37   38   18 1    
    38   20   19 1    
    39   21   20 ar   
    40   26   20 ar   
    41   22   21 1    
    42   23   21 ar   
    43   39   22 1    
    44   40   22 1    
    45   24   23 ar   
    46   25   24 ar   
    47   41   24 1    
    48   26   25 ar   
@<TRIPOS>SUBSTRUCTURE
     1 SAH301      1 GROUP   
@<TRIPOS>SET

