#    Name: 4nw5_2NR_1_INTS_M
#    Modification time : Tue Mar 25 13:20:28 2014

@<TRIPOS>MOLECULE
4nw5_2NR_1_INTS_M
   78     0     9     0     0
SMALL
NO_CHARGES


@<TRIPOS>ATOM
      1 CA        -15.1530    1.7060  -25.8870 C.3       3 GLC5        0.0000 
      2 CA        -16.3070    2.1520  -24.8180 C.3       9 GLL5        0.0000 
      3 CA        -13.9990    1.2600  -26.9560 C.3       6 GLP5        0.0000 
      4 CA        -14.2820    6.4525  -23.8235 C.3       3 GLC5        0.0000 
      5 CA        -15.0320    4.7470  -22.6830 C.3       9 GLL5        0.0000 
      6 CA        -13.5320    8.1580  -24.9640 C.3       6 GLP5        0.0000 
      7 CA        -13.7600    3.8795  -24.3130 C.3       3 GLC5        0.0000 
      8 CA        -12.4880    3.0120  -25.9430 C.3       6 GLP5        0.0000 
      9 CA        -15.2005    1.4005  -20.2470 C.3       3 GLC5        0.0000 
     10 CA        -14.3120    2.6100  -21.8420 C.3       9 GLL5        0.0000 
     11 CA        -16.0890    0.1910  -18.6520 C.3       6 GLP5        0.0000 
     12 N         -13.3505    0.5335  -20.2960 N.am      2 SEC2        0.0000 
     13 N         -13.7690    1.8020  -20.8850 N.am      8 SEL2        0.0000 
     14 N         -12.9320   -0.7350  -19.7070 N.am      5 SEP2        0.0000 
     15 CA        -13.6570    2.5275  -17.7015 C.3       3 GLC5        0.0000 
     16 CA        -13.2940    2.4110  -19.6860 C.3       9 GLL5        0.0000 
     17 CA        -14.0200    2.6440  -15.7170 C.3       6 GLP5        0.0000 
     18 CA        -14.6915    1.3010  -19.1690 C.3       3 GLC5        0.0000 
     19 CA        -11.4490    2.2190  -19.5380 C.3       3 GLC5        0.0000 
     20 CA         -9.6040    2.0270  -19.3900 C.3       6 GLP5        0.0000 
     21 CA        -13.7085    2.4785  -24.4345 C.3       3 GLC5        0.0000 
     22 CA        -14.9290    1.9450  -22.9260 C.3       9 GLL5        0.0000 
     23 CA        -11.8120   -2.1455  -24.3645 C.3       3 GLC5        0.0000 
     24 CA        -13.5380   -1.5790  -23.3650 C.3       9 GLL5        0.0000 
     25 CA        -10.0860   -2.7120  -25.3640 C.3       6 GLP5        0.0000 
     26 CA        -14.2025   -2.6670  -21.5445 C.3       3 GLC5        0.0000 
     27 CA        -14.6890   -2.3400  -23.5210 C.3       9 GLL5        0.0000 
     28 CA        -13.7160   -2.9940  -19.5680 C.3       6 GLP5        0.0000 
     29 CA        -16.4615   -1.2455  -21.4175 C.3       3 GLC5        0.0000 
     30 CA        -15.9280   -1.6950  -23.4860 C.3       9 GLL5        0.0000 
     31 CA        -16.9950   -0.7960  -19.3490 C.3       6 GLP5        0.0000 
     32 CA        -17.0775   -0.2195  -21.6755 C.3       3 GLC5        0.0000 
     33 CA        -15.9800   -0.3230  -23.2900 C.3       9 GLL5        0.0000 
     34 CA        -18.1750   -0.1160  -20.0610 C.3       6 GLP5        0.0000 
     35 N         -17.9310   -3.4890  -23.6230 N.am      2 SEC2        0.0000 
     36 N         -17.2160   -2.2070  -23.6410 N.am      8 SEL2        0.0000 
     37 N         -18.6460   -4.7710  -23.6050 N.am      5 SEP2        0.0000 
     38 O         -20.1410   -2.0800  -23.1910 O.2       1 ALC1        0.0000 
     39 O         -19.3330   -1.0410  -23.5500 O.2       7 ALL1        0.0000 
     40 O         -20.9490   -3.1190  -22.8320 O.2       4 ALP1        0.0000 
     41 CA        -23.1925   -1.7065  -25.5750 C.3       3 GLC5        0.0000 
     42 CA        -24.2930   -0.5330  -24.3060 C.3       9 GLL5        0.0000 
     43 CA        -22.0920   -2.8800  -26.8440 C.3       6 GLP5        0.0000 
     44 CA        -23.4190   -0.2140  -22.2925 C.3       3 GLC5        0.0000 
     45 CA        -22.5450    0.1050  -20.2790 C.3       6 GLP5        0.0000 
     46 CA        -17.1685    2.5838  -25.7570 C.3       3 GLC5        0.0000 
     47 CA        -18.3750    2.7160  -27.1930 C.3       6 GLP5        0.0000 
     48 CA        -14.6803    3.1022  -25.3103 C.3       3 GLC5        0.0000 
     49 CA        -15.6170    2.7510  -23.8240 C.3       9 GLL5        0.0000 
     50 CA        -13.7120    2.7690  -26.8410 C.3       6 GLP5        0.0000 
     51 CA        -16.1400    5.6277  -24.5720 C.3       3 GLC5        0.0000 
     52 CA        -15.6800    4.1200  -23.7350 C.3       9 GLL5        0.0000 
     53 CA        -16.9240    6.8220  -25.9350 C.3       6 GLP5        0.0000 
     54 CA        -12.7973    5.2060  -22.7040 C.3       3 GLC5        0.0000 
     55 CA        -10.9040    6.0390  -23.1980 C.3       6 GLP5        0.0000 
     56 CA        -13.0500   -1.4925  -21.5690 C.3       3 GLC5        0.0000 
     57 CA        -13.6040   -0.2050  -23.1450 C.3       9 GLL5        0.0000 
     58 CA        -12.5290   -2.0930  -19.8830 C.3       6 GLP5        0.0000 
     59 CA        -14.5312   -2.1943  -25.2120 C.3       3 GLC5        0.0000 
     60 CA        -14.9490   -2.4290  -26.9810 C.3       6 GLP5        0.0000 
     61 CA        -15.9102   -3.7403  -22.4612 C.3       3 GLC5        0.0000 
     62 CA        -16.5120   -5.4630  -21.4190 C.3       6 GLP5        0.0000 
     63 CA        -15.4515   -1.7190  -25.1845 C.3       3 GLC5        0.0000 
     64 CA        -14.5496    0.5804  -25.0819 C.3       3 GLC5        0.0000 
     65 CA        -20.2035    0.9728  -25.3997 C.3       3 GLC5        0.0000 
     66 CA        -19.7530    1.3570  -23.2030 C.3       9 GLL5        0.0000 
     67 CA        -20.4310    1.2300  -27.4410 C.3       6 GLP5        0.0000 
     68 CA        -21.2605    0.4103  -21.8188 C.3       3 GLC5        0.0000 
     69 CA        -20.1990    0.0740  -23.5140 C.3       9 GLL5        0.0000 
     70 CA        -19.0755    0.2997  -21.7097 C.3       3 GLC5        0.0000 
     71 CA        -20.8788    1.7645  -25.3885 C.3       3 GLC5        0.0000 
     72 CA        -20.6520    2.4100  -23.1780 C.3       9 GLL5        0.0000 
     73 CA        -21.9358    1.2020  -21.8075 C.3       3 GLC5        0.0000 
     74 CA        -22.0010    2.1880  -23.4940 C.3       9 GLL5        0.0000 
     75 CA        -21.2100    0.8002  -25.6210 C.3       3 GLC5        0.0000 
     76 CA        -22.4380    0.8960  -23.7960 C.3       9 GLL5        0.0000 
     77 CA        -22.2670    0.2378  -22.0400 C.3       3 GLC5        0.0000 
     78 CA        -21.5400   -0.1550  -23.8060 C.3       9 GLL5        0.0000 
@<TRIPOS>BOND
@<TRIPOS>SUBSTRUCTURE
     1 ALC1       38 GROUP        1 X    ALC  0     ROOT ALC X 1
     2 SEC2       12 GROUP        1 X    SEC  0     **** SEC X 2
     3 GLC5        1 GROUP        1 X    GLC  0     **** GLC X 6
     4 ALP1       40 GROUP        1 Y    ALP  0     ROOT ALP Y 8
     5 SEP2       14 GROUP        1 Y    SEP  0     **** SEP Y 9
     6 GLP5        3 GROUP        1 Y    GLP  0     **** GLP Y 13
     7 ALL1       39 GROUP        1 Z    ALL  0     ROOT ALL Z 15
     8 SEL2       13 GROUP        1 Z    SEL  0     **** SEL Z 16
     9 GLL5        2 GROUP        1 Z    GLL  0     **** GLL Z 20
@<TRIPOS>SET

