#    Name: 4nw5_2NR_1_ligand
#    Modification time : Tue Mar 25 13:20:28 2014

@<TRIPOS>MOLECULE
4nw5_2NR_1_ligand
   52    55     1     0     0
SMALL
NO_CHARGES


@<TRIPOS>ATOM
      1 F         -16.3070    2.1520  -24.8180 F         1 2NR1001     0.0000 
      2 C8        -15.6170    2.7510  -23.8240 C.ar      1 2NR1001     0.0000 
      3 C9        -15.6800    4.1200  -23.7350 C.ar      1 2NR1001     0.0000 
      4 C10       -15.0320    4.7470  -22.6830 C.ar      1 2NR1001     0.0000 
      5 C11       -14.3490    3.9990  -21.7370 C.ar      1 2NR1001     0.0000 
      6 C12       -14.3120    2.6100  -21.8420 C.ar      1 2NR1001     0.0000 
      7 O2        -13.7690    1.8020  -20.8850 O.3       1 2NR1001     0.0000 
      8 C13       -13.2940    2.4110  -19.6860 C.3       1 2NR1001     0.0000 
      9 C7        -14.9290    1.9450  -22.9260 C.ar      1 2NR1001     0.0000 
     10 C6        -14.8370    0.4540  -23.1060 C.ar      1 2NR1001     0.0000 
     11 C5        -13.6040   -0.2050  -23.1450 C.ar      1 2NR1001     0.0000 
     12 C4        -13.5380   -1.5790  -23.3650 C.ar      1 2NR1001     0.0000 
     13 C3        -14.6890   -2.3400  -23.5210 C.ar      1 2NR1001     0.0000 
     14 C2        -15.9280   -1.6950  -23.4860 C.ar      1 2NR1001     0.0000 
     15 C1        -15.9800   -0.3230  -23.2900 C.ar      1 2NR1001     0.0000 
     16 N1        -17.2160   -2.2070  -23.6410 N.2       1 2NR1001     0.0000 
     17 C14       -17.9720   -1.0980  -23.5330 C.2       1 2NR1001     0.0000 
     18 O1        -17.3110    0.0530  -23.3370 O.3       1 2NR1001     0.0000 
     19 N2        -19.3330   -1.0410  -23.5500 N.pl3     1 2NR1001     0.0000 
     20 C15       -20.1990    0.0740  -23.5140 C.ar      1 2NR1001     0.0000 
     21 C20       -19.7530    1.3570  -23.2030 C.ar      1 2NR1001     0.0000 
     22 C19       -20.6520    2.4100  -23.1780 C.ar      1 2NR1001     0.0000 
     23 O3        -20.3390    3.6910  -22.8090 O.3       1 2NR1001     0.0000 
     24 C21       -19.0000    3.9690  -22.3840 C.3       1 2NR1001     0.0000 
     25 C18       -22.0010    2.1880  -23.4940 C.ar      1 2NR1001     0.0000 
     26 O4        -22.8990    3.2400  -23.5040 O.3       1 2NR1001     0.0000 
     27 C22       -22.9380    4.0210  -24.7040 C.3       1 2NR1001     0.0000 
     28 C17       -22.4380    0.8960  -23.7960 C.ar      1 2NR1001     0.0000 
     29 C16       -21.5400   -0.1550  -23.8060 C.ar      1 2NR1001     0.0000 
     30 O5        -23.7850    0.7650  -24.0140 O.3       1 2NR1001     0.0000 
     31 C23       -24.2930   -0.5330  -24.3060 C.3       1 2NR1001     0.0000 
     32 H         -16.1928    4.6700  -24.4276 H         1 2NR1001     0.0000 
     33 H         -15.0579    5.7755  -22.6033 H         1 2NR1001     0.0000 
     34 H         -13.8686    4.4657  -20.9566 H         1 2NR1001     0.0000 
     35 H         -12.7352    0.3345  -23.0091 H         1 2NR1001     0.0000 
     36 H         -12.6106   -2.0406  -23.4129 H         1 2NR1001     0.0000 
     37 H         -14.6355   -3.3472  -23.6582 H         1 2NR1001     0.0000 
     38 H         -19.8574   -2.0096  -23.5995 H         1 2NR1001     0.0000 
     39 H         -18.7603    1.5171  -22.9936 H         1 2NR1001     0.0000 
     40 H         -21.8592   -1.1078  -24.0288 H         1 2NR1001     0.0000 
     41 H         -12.9200    1.7363  -19.0497 H         1 2NR1001     0.0000 
     42 H         -12.5690    3.0750  -19.8687 H         1 2NR1001     0.0000 
     43 H         -14.0220    2.8974  -19.2029 H         1 2NR1001     0.0000 
     44 H         -18.3329    3.7635  -23.1000 H         1 2NR1001     0.0000 
     45 H         -18.8802    4.9312  -22.1392 H         1 2NR1001     0.0000 
     46 H         -18.7451    3.4286  -21.5821 H         1 2NR1001     0.0000 
     47 H         -22.0514    4.4375  -24.9050 H         1 2NR1001     0.0000 
     48 H         -23.1892    3.4685  -25.4987 H         1 2NR1001     0.0000 
     49 H         -23.6037    4.7646  -24.6417 H         1 2NR1001     0.0000 
     50 H         -23.8801   -0.9162  -25.1322 H         1 2NR1001     0.0000 
     51 H         -24.1141   -1.1777  -23.5628 H         1 2NR1001     0.0000 
     52 H         -25.2823   -0.5206  -24.4514 H         1 2NR1001     0.0000 
@<TRIPOS>BOND
     1    2    1 1    
     2    3    2 ar   
     3    9    2 ar   
     4    4    3 ar   
     5   32    3 1    
     6    5    4 ar   
     7   33    4 1    
     8    6    5 ar   
     9   34    5 1    
    10    7    6 1    
    11    9    6 ar   
    12    8    7 1    
    13   41    8 1    
    14   42    8 1    
    15   43    8 1    
    16   10    9 1    
    17   11   10 ar   
    18   15   10 ar   
    19   12   11 ar   
    20   35   11 1    
    21   13   12 ar   
    22   36   12 1    
    23   14   13 ar   
    24   37   13 1    
    25   15   14 ar   
    26   16   14 1    
    27   18   15 1    
    28   17   16 2    
    29   18   17 1    
    30   19   17 1    
    31   20   19 1    
    32   38   19 1    
    33   21   20 ar   
    34   29   20 ar   
    35   22   21 ar   
    36   39   21 1    
    37   23   22 1    
    38   25   22 ar   
    39   24   23 1    
    40   44   24 1    
    41   45   24 1    
    42   46   24 1    
    43   26   25 1    
    44   28   25 ar   
    45   27   26 1    
    46   47   27 1    
    47   48   27 1    
    48   49   27 1    
    49   29   28 ar   
    50   30   28 1    
    51   40   29 1    
    52   31   30 1    
    53   50   31 1    
    54   51   31 1    
    55   52   31 1    
@<TRIPOS>SUBSTRUCTURE
     1 2NR1001     1 GROUP   
@<TRIPOS>SET

