#    Name: 3o0g_3O0_1_INTS_M
#    Modification time : Tue Mar 25 03:03:00 2014

@<TRIPOS>MOLECULE
3o0g_3O0_1_INTS_M
   48     0     9     0     0
SMALL
NO_CHARGES


@<TRIPOS>ATOM
      1 CA         -3.8165   68.8280   61.2035 C.3       3 GLC5        0.0000 
      2 CA         -3.5840   67.0120   61.6530 C.3       9 GLL5        0.0000 
      3 CA         -4.0490   70.6440   60.7540 C.3       6 GLP5        0.0000 
      4 O          -7.5035   58.2455   55.9170 O.2       1 ALC1        0.0000 
      5 O          -7.4780   58.5100   57.2400 O.2       7 ALL1        0.0000 
      6 O          -7.5290   57.9810   54.5940 O.2       4 ALP1        0.0000 
      7 CA         -8.1430   60.7295   61.6080 C.3       3 GLC5        0.0000 
      8 CA         -6.9870   59.0860   62.4710 C.3       9 GLL5        0.0000 
      9 CA         -9.2990   62.3730   60.7450 C.3       6 GLP5        0.0000 
     10 N          -6.8655   61.2055   56.0690 N.am      2 SEC2        0.0000 
     11 N          -6.4290   60.6020   57.5390 N.am      8 SEL2        0.0000 
     12 N          -7.3020   61.8090   54.5990 N.am      5 SEP2        0.0000 
     13 CA         -3.9055   60.8570   59.3905 C.3       3 GLC5        0.0000 
     14 CA         -5.8600   60.5720   59.9820 C.3       9 GLL5        0.0000 
     15 CA         -1.9510   61.1420   58.7990 C.3       6 GLP5        0.0000 
     16 CA         -7.5795   61.4725   60.3635 C.3       3 GLC5        0.0000 
     17 O          -5.7455   63.2695   57.0335 O.2       1 ALC1        0.0000 
     18 O          -5.3510   62.5970   58.2040 O.2       7 ALL1        0.0000 
     19 O          -6.1400   63.9420   55.8630 O.2       4 ALP1        0.0000 
     20 CA         -7.2715   62.9570   60.5940 C.3       3 GLC5        0.0000 
     21 CA         -5.2440   63.5410   60.4430 C.3       9 GLL5        0.0000 
     22 CA         -6.6415   65.1295   62.0965 C.3       3 GLC5        0.0000 
     23 CA         -4.8180   64.6030   61.2520 C.3       9 GLL5        0.0000 
     24 CA         -8.4650   65.6560   62.9410 C.3       6 GLP5        0.0000 
     25 CA         -8.3205   57.4220   64.7025 C.3       3 GLC5        0.0000 
     26 CA         -6.8320   59.0240   63.8580 C.3       9 GLL5        0.0000 
     27 CA         -9.9420   56.4320   65.2380 C.3       6 GLP5        0.0000 
     28 CA         -9.0548   58.4828   61.6572 C.3       3 GLC5        0.0000 
     29 CA        -11.1780   58.4560   61.2290 C.3       6 GLP5        0.0000 
     30 CA         -4.8373   56.8515   62.4853 C.3       3 GLC5        0.0000 
     31 CA         -6.8760   57.9330   61.7000 C.3       9 GLL5        0.0000 
     32 CA         -2.9250   56.3780   62.9610 C.3       6 GLP5        0.0000 
     33 CA         -5.4855   58.5267   57.5815 C.3       3 GLC5        0.0000 
     34 CA         -6.6390   59.2000   59.3770 C.3       9 GLL5        0.0000 
     35 CA         -4.2180   57.7480   56.4690 C.3       6 GLP5        0.0000 
     36 CA         -8.2640   60.0143   58.7985 C.3       3 GLC5        0.0000 
     37 CA         -6.8670   59.4110   58.0110 C.3       9 GLL5        0.0000 
     38 CA         -9.7750   60.7230   58.9030 C.3       6 GLP5        0.0000 
     39 CA         -5.7530   66.2080   59.7903 C.3       3 GLC5        0.0000 
     40 CA         -4.1280   65.6850   60.6830 C.3       9 GLL5        0.0000 
     41 CA         -7.0330   67.2720   58.6130 C.3       6 GLP5        0.0000 
     42 CA         -4.7200   56.8008   63.5240 C.3       3 GLC5        0.0000 
     43 CA         -6.5660   57.8000   64.4760 C.3       9 GLL5        0.0000 
     44 CA         -8.2428   56.5570   64.1232 C.3       3 GLC5        0.0000 
     45 CA         -6.4640   56.6470   63.6980 C.3       9 GLL5        0.0000 
     46 CA         -5.7818   65.8201   58.8019 C.3       3 GLC5        0.0000 
     47 CA         -4.9830   63.5610   59.0640 C.3       9 GLL5        0.0000 
     48 CA         -3.4461   62.4823   59.2080 C.3       3 GLC5        0.0000 
@<TRIPOS>BOND
@<TRIPOS>SUBSTRUCTURE
     1 ALC1        4 GROUP        1 X    ALC  0     ROOT ALC X 1
     2 SEC2       10 GROUP        1 X    SEC  0     **** SEC X 2
     3 GLC5        1 GROUP        1 X    GLC  0     **** GLC X 6
     4 ALP1        6 GROUP        1 Y    ALP  0     ROOT ALP Y 8
     5 SEP2       12 GROUP        1 Y    SEP  0     **** SEP Y 9
     6 GLP5        3 GROUP        1 Y    GLP  0     **** GLP Y 13
     7 ALL1        5 GROUP        1 Z    ALL  0     ROOT ALL Z 15
     8 SEL2       11 GROUP        1 Z    SEL  0     **** SEL Z 16
     9 GLL5        2 GROUP        1 Z    GLL  0     **** GLL Z 20
@<TRIPOS>SET

