#    Name: 3o0g_3O0_1_ligand
#    Modification time : Tue Mar 25 03:03:00 2014

@<TRIPOS>MOLECULE
3o0g_3O0_1_ligand
   36    38     1     0     0
SMALL
NO_CHARGES


@<TRIPOS>ATOM
      1 CLA        -3.5840   67.0120   61.6530 Cl        1 3O0293      0.0000 
      2 NAA        -7.4780   58.5100   57.2400 N.pl3     1 3O0293      0.0000 
      3 CAC        -6.8320   59.0240   63.8580 C.ar      1 3O0293      0.0000 
      4 CAD        -6.9870   59.0860   62.4710 C.ar      1 3O0293      0.0000 
      5 CAE        -6.8760   57.9330   61.7000 C.ar      1 3O0293      0.0000 
      6 CAF        -7.0430   57.9580   60.1840 C.2       1 3O0293      0.0000 
      7 CAG        -6.6390   59.2000   59.3770 C.2       1 3O0293      0.0000 
      8 CAH        -6.8670   59.4110   58.0110 C.2       1 3O0293      0.0000 
      9 NAI        -6.4290   60.6020   57.5390 N.2       1 3O0293      0.0000 
     10 CAJ        -4.2940   64.6470   58.5180 C.ar      1 3O0293      0.0000 
     11 CAK        -3.8620   65.7040   59.3170 C.ar      1 3O0293      0.0000 
     12 CAL        -4.1280   65.6850   60.6830 C.ar      1 3O0293      0.0000 
     13 CAM        -6.5660   57.8000   64.4760 C.ar      1 3O0293      0.0000 
     14 CAN        -6.4640   56.6470   63.6980 C.ar      1 3O0293      0.0000 
     15 CAO        -6.6230   56.7170   62.3190 C.ar      1 3O0293      0.0000 
     16 OAP        -7.5210   56.9810   59.6180 O.2       1 3O0293      0.0000 
     17 SAQ        -5.8600   60.5720   59.9820 S.3       1 3O0293      0.0000 
     18 CAR        -5.8480   61.3800   58.4740 C.2       1 3O0293      0.0000 
     19 NAS        -5.3510   62.5970   58.2040 N.pl3     1 3O0293      0.0000 
     20 CAT        -4.9830   63.5610   59.0640 C.ar      1 3O0293      0.0000 
     21 CAU        -5.2440   63.5410   60.4430 C.ar      1 3O0293      0.0000 
     22 CAV        -4.8180   64.6030   61.2520 C.ar      1 3O0293      0.0000 
     23 OAW        -5.9380   55.3250   65.6300 O.2       1 3O0293      0.0000 
     24 NAX        -6.2240   55.4630   64.2350 N.pl3     1 3O0293      0.0000 
     25 OAY        -6.2770   54.3090   63.4020 O.2       1 3O0293      0.0000 
     26 H          -7.7659   57.6662   57.6929 H         1 3O0293      0.0000 
     27 H          -7.5932   58.7594   56.2785 H         1 3O0293      0.0000 
     28 H          -6.9135   59.8769   64.4221 H         1 3O0293      0.0000 
     29 H          -7.1841   59.9897   62.0197 H         1 3O0293      0.0000 
     30 H          -4.1016   64.6654   57.5009 H         1 3O0293      0.0000 
     31 H          -3.3523   66.4891   58.9010 H         1 3O0293      0.0000 
     32 H          -6.4472   57.7506   65.4905 H         1 3O0293      0.0000 
     33 H          -6.5522   55.8573   61.7518 H         1 3O0293      0.0000 
     34 H          -5.2283   62.8381   57.1343 H         1 3O0293      0.0000 
     35 H          -5.7458   62.7499   60.8570 H         1 3O0293      0.0000 
     36 H          -5.0095   64.5907   62.2579 H         1 3O0293      0.0000 
@<TRIPOS>BOND
     1   12    1 1    
     2    8    2 1    
     3   26    2 1    
     4   27    2 1    
     5    4    3 ar   
     6   13    3 ar   
     7   28    3 1    
     8    5    4 ar   
     9   29    4 1    
    10    6    5 1    
    11   15    5 ar   
    12    7    6 1    
    13   16    6 2    
    14    8    7 2    
    15   17    7 1    
    16    9    8 1    
    17   18    9 2    
    18   11   10 ar   
    19   20   10 ar   
    20   30   10 1    
    21   12   11 ar   
    22   31   11 1    
    23   22   12 ar   
    24   14   13 ar   
    25   32   13 1    
    26   15   14 ar   
    27   24   14 1    
    28   33   15 1    
    29   18   17 1    
    30   19   18 1    
    31   20   19 1    
    32   34   19 1    
    33   21   20 ar   
    34   22   21 ar   
    35   35   21 1    
    36   36   22 1    
    37   24   23 2    
    38   25   24 2    
@<TRIPOS>SUBSTRUCTURE
     1 3O0293      1 GROUP   
@<TRIPOS>SET

