#    Name: 4c5o_FAD_5_INTS_M
#    Modification time : Tue Mar 25 09:00:09 2014

@<TRIPOS>MOLECULE
4c5o_FAD_5_INTS_M
   81     0     9     0     0
SMALL
NO_CHARGES


@<TRIPOS>ATOM
      1 N        -100.5250  102.9885  -30.2825 N.am      2 SEC2        0.0000 
      2 N        -100.9930  104.4380  -30.9360 N.am      8 SEL2        0.0000 
      3 N        -100.0570  101.5390  -29.6290 N.am      5 SEP2        0.0000 
      4 CA       -100.3150  104.6580  -28.6775 C.3       3 GLC5        0.0000 
      5 CA       -101.9250  106.0270  -28.6490 C.3       9 GLL5        0.0000 
      6 CA        -98.7050  103.2890  -28.7060 C.3       6 GLP5        0.0000 
      7 CA       -102.4005  107.7275  -26.4805 C.3       3 GLC5        0.0000 
      8 CA       -102.0820  105.8820  -27.1450 C.3       9 GLL5        0.0000 
      9 CA       -102.7190  109.5730  -25.8160 C.3       6 GLP5        0.0000 
     10 CA       -100.2885  103.8590  -27.6700 C.3       3 GLC5        0.0000 
     11 CA       -101.8720  104.4290  -26.6340 C.3       9 GLL5        0.0000 
     12 O        -100.3185  105.4265  -25.3850 O.2       1 ALC1        0.0000 
     13 O        -100.5580  104.3230  -26.0150 O.2       7 ALL1        0.0000 
     14 O        -100.0790  106.5300  -24.7550 O.2       4 ALP1        0.0000 
     15 O        -101.9545  102.3210  -24.5855 O.2       1 ALC1        0.0000 
     16 O        -102.5820  103.4240  -24.5570 O.2       7 ALL1        0.0000 
     17 O        -101.3270  101.2180  -24.6140 O.2       4 ALP1        0.0000 
     18 CA       -103.0105  107.6265  -25.5500 C.3       3 GLC5        0.0000 
     19 CA       -103.3020  105.6800  -25.2840 C.3       9 GLL5        0.0000 
     20 CA       -104.8245  106.6715  -26.5300 C.3       3 GLC5        0.0000 
     21 CA       -106.3470  107.6630  -27.7760 C.3       6 GLP5        0.0000 
     22 CA       -106.7235  108.9145  -20.3890 C.3       3 GLC5        0.0000 
     23 CA       -106.2310  107.3330  -21.5900 C.3       9 GLL5        0.0000 
     24 CA       -107.2160  110.4960  -19.1880 C.3       6 GLP5        0.0000 
     25 O        -108.2340  107.7080  -19.9360 O.2       1 ALC1        0.0000 
     26 O        -107.5130  107.3150  -21.1620 O.2       7 ALL1        0.0000 
     27 O        -108.9550  108.1010  -18.7100 O.2       4 ALP1        0.0000 
     28 N        -105.7130  108.2930  -19.5410 N.am      2 SEC2        0.0000 
     29 N        -105.2660  108.0390  -20.9400 N.am      8 SEL2        0.0000 
     30 N        -106.1600  108.5470  -18.1420 N.am      5 SEP2        0.0000 
     31 CA       -105.1350  109.5350  -22.3210 C.3       3 GLC5        0.0000 
     32 CA       -104.0140  108.0450  -21.3980 C.3       9 GLL5        0.0000 
     33 CA       -106.2560  111.0250  -23.2440 C.3       6 GLP5        0.0000 
     34 CA       -102.1390  108.1610  -21.7705 C.3       3 GLC5        0.0000 
     35 CA       -100.2640  108.2770  -22.1430 C.3       6 GLP5        0.0000 
     36 CA       -103.3530  106.2815  -20.9495 C.3       3 GLC5        0.0000 
     37 CA       -102.6920  104.5180  -20.5010 C.3       6 GLP5        0.0000 
     38 CA       -104.4090  107.3720  -19.3700 C.3       3 GLC5        0.0000 
     39 CA       -104.8040  106.6990  -17.3420 C.3       6 GLP5        0.0000 
     40 CA       -104.9460  109.6145  -20.3770 C.3       3 GLC5        0.0000 
     41 CA       -105.8780  111.1840  -19.3560 C.3       6 GLP5        0.0000 
     42 CA       -103.6240  108.1205  -24.5540 C.3       3 GLC5        0.0000 
     43 CA       -104.5290  106.6680  -23.2920 C.3       9 GLL5        0.0000 
     44 N         -99.8770  105.0245  -40.7630 N.am      2 SEC2        0.0000 
     45 N         -99.9300  103.7930  -41.3120 N.am      8 SEL2        0.0000 
     46 N         -99.8240  106.2560  -40.2140 N.am      5 SEP2        0.0000 
     47 N         -98.0920   98.7075  -42.9815 N.am      2 SEC2        0.0000 
     48 N         -99.0330   99.3740  -41.9070 N.am      8 SEL2        0.0000 
     49 N         -97.1510   98.0410  -44.0560 N.am      5 SEP2        0.0000 
     50 CA       -102.3905   93.6090  -37.2275 C.3       3 GLC5        0.0000 
     51 CA       -102.8060   95.3260  -37.0160 C.3       9 GLL5        0.0000 
     52 CA       -101.9750   91.8920  -37.4390 C.3       6 GLP5        0.0000 
     53 CA       -106.2385   96.8955  -34.8880 C.3       3 GLC5        0.0000 
     54 CA       -104.3480   97.5830  -35.5730 C.3       9 GLL5        0.0000 
     55 CA       -108.1290   96.2080  -34.2030 C.3       6 GLP5        0.0000 
     56 N        -100.7810  104.5620  -37.2540 N.am      2 SEC2        0.0000 
     57 N        -101.0810  103.3110  -37.7510 N.am      8 SEL2        0.0000 
     58 N        -100.4810  105.8130  -36.7570 N.am      5 SEP2        0.0000 
     59 CA       -100.7185  105.3245  -34.8075 C.3       3 GLC5        0.0000 
     60 CA       -101.8800  103.4680  -34.6270 C.3       9 GLL5        0.0000 
     61 CA        -99.5570  107.1810  -34.9880 C.3       6 GLP5        0.0000 
     62 N        -103.5675  108.3025  -33.3830 N.am      2 SEC2        0.0000 
     63 N        -104.0160  107.2560  -32.7590 N.am      8 SEL2        0.0000 
     64 N        -103.1190  109.3490  -34.0070 N.am      5 SEP2        0.0000 
     65 N        -100.9165  108.2565  -32.6640 N.am      2 SEC2        0.0000 
     66 N        -101.5880  107.0130  -32.1810 N.am      8 SEL2        0.0000 
     67 N        -100.2450  109.5000  -33.1470 N.am      5 SEP2        0.0000 
     68 CA       -100.5157  106.6122  -28.8630 C.3       3 GLC5        0.0000 
     69 CA        -99.0280  107.2700  -29.8290 C.3       6 GLP5        0.0000 
     70 CA       -100.9013  103.3625  -25.0998 C.3       3 GLC5        0.0000 
     71 CA        -99.3590  102.3990  -24.0540 C.3       6 GLP5        0.0000 
     72 CA       -106.1617  108.9990  -22.7175 C.3       3 GLC5        0.0000 
     73 CA       -105.9040  106.6130  -22.7920 C.3       9 GLL5        0.0000 
     74 CA       -103.9543  105.5793  -21.7715 C.3       3 GLC5        0.0000 
     75 CA       -106.2527  107.6853  -24.3910 C.3       3 GLC5        0.0000 
     76 CA       -107.2890  108.7300  -25.7400 C.3       6 GLP5        0.0000 
     77 CA       -100.8179   95.2623  -37.4059 C.3       3 GLC5        0.0000 
     78 CA        -99.1240   94.3730  -37.3440 C.3       6 GLP5        0.0000 
     79 CA       -100.3502  102.1983  -36.0413 C.3       3 GLC5        0.0000 
     80 CA       -102.2370  102.4540  -35.6510 C.3       9 GLL5        0.0000 
     81 CA        -98.6280  101.2940  -36.5900 C.3       6 GLP5        0.0000 
@<TRIPOS>BOND
@<TRIPOS>SUBSTRUCTURE
     1 ALC1       12 GROUP        1 X    ALC  0     ROOT ALC X 1
     2 SEC2        1 GROUP        1 X    SEC  0     **** SEC X 2
     3 GLC5        4 GROUP        1 X    GLC  0     **** GLC X 6
     4 ALP1       14 GROUP        1 Y    ALP  0     ROOT ALP Y 8
     5 SEP2        3 GROUP        1 Y    SEP  0     **** SEP Y 9
     6 GLP5        6 GROUP        1 Y    GLP  0     **** GLP Y 13
     7 ALL1       13 GROUP        1 Z    ALL  0     ROOT ALL Z 15
     8 SEL2        2 GROUP        1 Z    SEL  0     **** SEL Z 16
     9 GLL5        5 GROUP        1 Z    GLL  0     **** GLL Z 20
@<TRIPOS>SET

