#    Name: 4c5o_FAD_5_ligand
#    Modification time : Tue Mar 25 09:00:09 2014

@<TRIPOS>MOLECULE
4c5o_FAD_5_ligand
   84    89     1     0     0
SMALL
NO_CHARGES


@<TRIPOS>ATOM
      1 PA       -102.4360  104.3810  -30.5590 P.3       1 FAD1353     0.0000 
      2 O1A      -100.9930  104.4380  -30.9360 O.co2     1 FAD1353     0.0000 
      3 O2A      -103.1400  103.1430  -30.3570 O.co2     1 FAD1353     0.0000 
      4 O5B      -102.8260  105.2160  -29.2870 O.3       1 FAD1353     0.0000 
      5 C5B      -101.9250  106.0270  -28.6490 C.3       1 FAD1353     0.0000 
      6 C4B      -102.0820  105.8820  -27.1450 C.3       1 FAD1353     0.0000 
      7 O4B      -103.3120  106.3280  -26.6110 O.3       1 FAD1353     0.0000 
      8 C3B      -101.8720  104.4290  -26.6340 C.3       1 FAD1353     0.0000 
      9 O3B      -100.5580  104.3230  -26.0150 O.3       1 FAD1353     0.0000 
     10 C2B      -103.0150  104.2230  -25.6570 C.3       1 FAD1353     0.0000 
     11 O2B      -102.5820  103.4240  -24.5570 O.3       1 FAD1353     0.0000 
     12 C1B      -103.3020  105.6800  -25.2840 C.3       1 FAD1353     0.0000 
     13 N9A      -104.4870  105.9270  -24.4220 N.pl3     1 FAD1353     0.0000 
     14 C8A      -105.7230  105.4680  -24.6460 C.2       1 FAD1353     0.0000 
     15 N7A      -106.5740  105.9090  -23.6610 N.2       1 FAD1353     0.0000 
     16 C5A      -105.9040  106.6130  -22.7920 C.ar      1 FAD1353     0.0000 
     17 C6A      -106.2310  107.3330  -21.5900 C.ar      1 FAD1353     0.0000 
     18 N6A      -107.5130  107.3150  -21.1620 N.pl3     1 FAD1353     0.0000 
     19 N1A      -105.2660  108.0390  -20.9400 N.ar      1 FAD1353     0.0000 
     20 C2A      -104.0140  108.0450  -21.3980 C.ar      1 FAD1353     0.0000 
     21 N3A      -103.6330  107.3720  -22.5150 N.ar      1 FAD1353     0.0000 
     22 C4A      -104.5290  106.6680  -23.2920 C.ar      1 FAD1353     0.0000 
     23 N1       -101.0510  102.4070  -39.9660 N.2       1 FAD1353     0.0000 
     24 C2       -100.1610  102.6050  -40.9730 C.2       1 FAD1353     0.0000 
     25 O2        -99.9300  103.7930  -41.3120 O.2       1 FAD1353     0.0000 
     26 N3        -99.5010  101.6150  -41.6040 N.am      1 FAD1353     0.0000 
     27 C4        -99.6660  100.3320  -41.3060 C.2       1 FAD1353     0.0000 
     28 O4        -99.0330   99.3740  -41.9070 O.2       1 FAD1353     0.0000 
     29 C4X      -100.6210  100.0540  -40.2160 C.2       1 FAD1353     0.0000 
     30 N5       -100.8380   98.7950  -39.8240 N.2       1 FAD1353     0.0000 
     31 C5X      -101.6670   98.4880  -38.8170 C.ar      1 FAD1353     0.0000 
     32 C6       -101.8060   97.1600  -38.4420 C.ar      1 FAD1353     0.0000 
     33 C7       -102.6290   96.7940  -37.3970 C.ar      1 FAD1353     0.0000 
     34 C7M      -102.8060   95.3260  -37.0160 C.3       1 FAD1353     0.0000 
     35 C8       -103.3550   97.8760  -36.6780 C.ar      1 FAD1353     0.0000 
     36 C8M      -104.3480   97.5830  -35.5730 C.3       1 FAD1353     0.0000 
     37 C9       -103.1830   99.2020  -37.0450 C.ar      1 FAD1353     0.0000 
     38 C9A      -102.3730   99.5690  -38.0990 C.ar      1 FAD1353     0.0000 
     39 N10      -102.1890  100.9040  -38.4750 N.pl3     1 FAD1353     0.0000 
     40 C10      -101.3060  101.1680  -39.5380 C.2       1 FAD1353     0.0000 
     41 C1'      -102.9570  101.9720  -37.8660 C.3       1 FAD1353     0.0000 
     42 C2'      -102.2930  103.0200  -37.0650 C.3       1 FAD1353     0.0000 
     43 O2'      -101.0810  103.3110  -37.7510 O.3       1 FAD1353     0.0000 
     44 C3'      -102.2370  102.4540  -35.6510 C.3       1 FAD1353     0.0000 
     45 O3'      -103.5760  102.0540  -35.3180 O.3       1 FAD1353     0.0000 
     46 C4'      -101.8800  103.4680  -34.6270 C.3       1 FAD1353     0.0000 
     47 O4'      -101.5990  102.7910  -33.4200 O.3       1 FAD1353     0.0000 
     48 C5'      -103.0770  104.3580  -34.3070 C.3       1 FAD1353     0.0000 
     49 O5'      -102.5290  105.5550  -33.8910 O.3       1 FAD1353     0.0000 
     50 P        -102.8450  106.3540  -32.6310 P.3       1 FAD1353     0.0000 
     51 O1P      -104.0160  107.2560  -32.7590 O.co2     1 FAD1353     0.0000 
     52 O2P      -101.5880  107.0130  -32.1810 O.co2     1 FAD1353     0.0000 
     53 O3P      -103.3350  105.1440  -31.6780 O.3       1 FAD1353     0.0000 
     54 H        -102.0622  107.0968  -28.8866 H         1 FAD1353     0.0000 
     55 H        -100.8756  105.7808  -28.8896 H         1 FAD1353     0.0000 
     56 H        -101.2495  106.4653  -26.6639 H         1 FAD1353     0.0000 
     57 H        -101.9968  103.7836  -27.4640 H         1 FAD1353     0.0000 
     58 H        -103.8363  103.8472  -26.1918 H         1 FAD1353     0.0000 
     59 H        -102.3758  106.0317  -24.7724 H         1 FAD1353     0.0000 
     60 H        -105.9999  104.9042  -25.3898 H         1 FAD1353     0.0000 
     61 H        -107.7089  107.8449  -20.3369 H         1 FAD1353     0.0000 
     62 H        -108.1518  106.7734  -21.7085 H         1 FAD1353     0.0000 
     63 H        -103.2727  108.5979  -20.8733 H         1 FAD1353     0.0000 
     64 H         -98.8166  101.8823  -42.3769 H         1 FAD1353     0.0000 
     65 H        -101.2789   96.4291  -38.9600 H         1 FAD1353     0.0000 
     66 H        -103.6835   99.9430  -36.5047 H         1 FAD1353     0.0000 
     67 H        -103.7857  101.5100  -37.2203 H         1 FAD1353     0.0000 
     68 H        -103.5762  102.4929  -38.6798 H         1 FAD1353     0.0000 
     69 H        -102.9706  103.8746  -37.0625 H         1 FAD1353     0.0000 
     70 H        -101.5807  101.6306  -35.6141 H         1 FAD1353     0.0000 
     71 H        -101.0777  104.0684  -34.9434 H         1 FAD1353     0.0000 
     72 H        -103.6567  103.8597  -33.5390 H         1 FAD1353     0.0000 
     73 H        -103.6678  104.4459  -35.2111 H         1 FAD1353     0.0000 
     74 H        -101.9385   94.9031  -36.7542 H         1 FAD1353     0.0000 
     75 H        -103.4309   95.2156  -36.2432 H         1 FAD1353     0.0000 
     76 H        -103.1777   94.7881  -37.7727 H         1 FAD1353     0.0000 
     77 H        -103.9221   97.0962  -34.8104 H         1 FAD1353     0.0000 
     78 H        -104.7464   98.4209  -35.1999 H         1 FAD1353     0.0000 
     79 H        -105.1061   97.0163  -35.8956 H         1 FAD1353     0.0000 
     80 H        -100.2154  105.2616  -25.9729 H         1 FAD1353     0.0000 
     81 H        -102.1451  102.6264  -24.9728 H         1 FAD1353     0.0000 
     82 H        -101.3512  103.4579  -38.7025 H         1 FAD1353     0.0000 
     83 H        -103.4799  101.1499  -34.9016 H         1 FAD1353     0.0000 
     84 H        -101.4139  103.5143  -32.7547 H         1 FAD1353     0.0000 
@<TRIPOS>BOND
     1    2    1 ar   
     2    3    1 ar   
     3    4    1 1    
     4   53    1 1    
     5    5    4 1    
     6    6    5 1    
     7   54    5 1    
     8   55    5 1    
     9    7    6 1    
    10    8    6 1    
    11   56    6 1    
    12   12    7 1    
    13    9    8 1    
    14   10    8 1    
    15   57    8 1    
    16   80    9 1    
    17   11   10 1    
    18   12   10 1    
    19   58   10 1    
    20   81   11 1    
    21   13   12 1    
    22   59   12 1    
    23   14   13 1    
    24   22   13 1    
    25   15   14 2    
    26   60   14 1    
    27   16   15 1    
    28   17   16 ar   
    29   22   16 ar   
    30   18   17 1    
    31   19   17 ar   
    32   61   18 1    
    33   62   18 1    
    34   20   19 ar   
    35   21   20 ar   
    36   63   20 1    
    37   22   21 ar   
    38   24   23 1    
    39   40   23 2    
    40   25   24 2    
    41   26   24 am   
    42   27   26 am   
    43   64   26 1    
    44   28   27 2    
    45   29   27 1    
    46   30   29 2    
    47   40   29 1    
    48   31   30 1    
    49   32   31 ar   
    50   38   31 ar   
    51   33   32 ar   
    52   65   32 1    
    53   34   33 1    
    54   35   33 ar   
    55   74   34 1    
    56   75   34 1    
    57   76   34 1    
    58   36   35 1    
    59   37   35 ar   
    60   77   36 1    
    61   78   36 1    
    62   79   36 1    
    63   38   37 ar   
    64   66   37 1    
    65   39   38 1    
    66   40   39 1    
    67   41   39 1    
    68   42   41 1    
    69   67   41 1    
    70   68   41 1    
    71   43   42 1    
    72   44   42 1    
    73   69   42 1    
    74   82   43 1    
    75   45   44 1    
    76   46   44 1    
    77   70   44 1    
    78   83   45 1    
    79   47   46 1    
    80   48   46 1    
    81   71   46 1    
    82   84   47 1    
    83   49   48 1    
    84   72   48 1    
    85   73   48 1    
    86   50   49 1    
    87   51   50 ar   
    88   52   50 ar   
    89   53   50 1    
@<TRIPOS>SUBSTRUCTURE
     1 FAD1353     1 GROUP   
@<TRIPOS>SET

