#    Name: 1sqv_UHD_1_INTS_M
#    Modification time : Tue Mar 25 02:40:26 2014

@<TRIPOS>MOLECULE
1sqv_UHD_1_INTS_M
   57     0     3     0     0
SMALL
NO_CHARGES


@<TRIPOS>ATOM
      1 CA         71.0155   55.9575  170.4200 C.3       1 GLC5        0.0000 
      2 CA         70.0320   54.3560  169.6330 C.3       3 GLL5        0.0000 
      3 CA         71.9990   57.5590  171.2070 C.3       2 GLP5        0.0000 
      4 CA         68.6150   54.5875  168.5430 C.3       1 GLC5        0.0000 
      5 CA         67.1980   54.8190  167.4530 C.3       2 GLP5        0.0000 
      6 CA         72.2065   52.9135  170.6550 C.3       1 GLC5        0.0000 
      7 CA         70.2310   53.2200  170.4060 C.3       3 GLL5        0.0000 
      8 CA         74.1820   52.6070  170.9040 C.3       2 GLP5        0.0000 
      9 CA         68.6880   53.4175  166.2145 C.3       1 GLC5        0.0000 
     10 CA         70.3410   53.4690  165.1430 C.3       3 GLL5        0.0000 
     11 CA         67.0350   53.3660  167.2860 C.3       2 GLP5        0.0000 
     12 CA         69.7595   52.1390  162.3090 C.3       1 GLC5        0.0000 
     13 CA         70.9270   53.3400  163.7340 C.3       3 GLL5        0.0000 
     14 CA         68.5920   50.9380  160.8840 C.3       2 GLP5        0.0000 
     15 CA         71.3655   51.4450  162.6105 C.3       1 GLC5        0.0000 
     16 CA         71.8040   49.5500  161.4870 C.3       2 GLP5        0.0000 
     17 CA         69.3495   55.4370  163.1135 C.3       1 GLC5        0.0000 
     18 CA         70.8770   54.6480  162.9500 C.3       3 GLL5        0.0000 
     19 CA         67.8220   56.2260  163.2770 C.3       2 GLP5        0.0000 
     20 CA         71.9025   55.4455  159.8950 C.3       1 GLC5        0.0000 
     21 CA         72.0800   54.8820  162.0340 C.3       3 GLL5        0.0000 
     22 CA         71.7250   56.0090  157.7560 C.3       2 GLP5        0.0000 
     23 CA         70.9515   57.3955  162.3945 C.3       1 GLC5        0.0000 
     24 CA         72.7580   56.2260  162.3160 C.3       3 GLL5        0.0000 
     25 CA         69.1450   58.5650  162.4730 C.3       2 GLP5        0.0000 
     26 CA         72.5880   56.4155  159.4245 C.3       1 GLC5        0.0000 
     27 CA         73.4510   56.8220  161.0930 C.3       3 GLL5        0.0000 
     28 CA         74.4310   59.5170  160.9500 C.3       1 GLC5        0.0000 
     29 CA         74.8320   57.3940  161.4140 C.3       3 GLL5        0.0000 
     30 CA         74.0300   61.6400  160.4860 C.3       2 GLP5        0.0000 
     31 CA         75.2740   56.9565  163.5050 C.3       1 GLC5        0.0000 
     32 CA         75.7160   56.5190  165.5960 C.3       2 GLP5        0.0000 
     33 CA         75.5255   57.2085  156.6255 C.3       1 GLC5        0.0000 
     34 CA         75.6620   58.2140  158.2200 C.3       3 GLL5        0.0000 
     35 CA         75.3890   56.2030  155.0310 C.3       2 GLP5        0.0000 
     36 CA         70.6520   54.3515  173.7010 C.3       1 GLC5        0.0000 
     37 CA         69.6440   53.5130  172.0630 C.3       3 GLL5        0.0000 
     38 CA         71.6600   55.1900  175.3390 C.3       2 GLP5        0.0000 
     39 CA         71.6860   52.9170  172.1880 C.3       1 GLC5        0.0000 
     40 CA         73.7280   52.3210  172.3130 C.3       2 GLP5        0.0000 
     41 CA         68.5450   53.1920  173.6275 C.3       1 GLC5        0.0000 
     42 CA         67.4460   52.8710  175.1920 C.3       2 GLP5        0.0000 
     43 CA         68.3912   53.0902  169.9462 C.3       1 GLC5        0.0000 
     44 CA         66.8450   52.8140  168.6580 C.3       2 GLP5        0.0000 
     45 CA         72.4390   54.4527  167.0032 C.3       1 GLC5        0.0000 
     46 CA         70.9140   53.1990  167.6780 C.3       3 GLL5        0.0000 
     47 CA         73.7310   55.7280  167.0550 C.3       2 GLP5        0.0000 
     48 CA         69.0910   53.2717  167.1187 C.3       1 GLC5        0.0000 
     49 CA         71.3800   53.1560  166.2250 C.3       3 GLL5        0.0000 
     50 CA         71.7470   54.9203  165.2523 C.3       1 GLC5        0.0000 
     51 CA         72.8600   56.4360  166.0660 C.3       2 GLP5        0.0000 
     52 CA         68.9090   54.1673  164.0888 C.3       1 GLC5        0.0000 
     53 CA         67.1840   54.9300  163.7390 C.3       2 GLP5        0.0000 
     54 CA         72.4891   55.9657  164.2350 C.3       1 GLC5        0.0000 
     55 CA         75.7037   59.9335  159.3230 C.3       1 GLC5        0.0000 
     56 CA         76.4190   58.0400  159.5340 C.3       3 GLL5        0.0000 
     57 CA         75.3670   61.7400  159.7690 C.3       2 GLP5        0.0000 
@<TRIPOS>BOND
@<TRIPOS>SUBSTRUCTURE
     1 GLC5        1 GROUP        1 X    GLC  0     ROOT GLC X 6
     2 GLP5        3 GROUP        1 Y    GLP  0     ROOT GLP Y 13
     3 GLL5        2 GROUP        1 Z    GLL  0     ROOT GLL Z 20
@<TRIPOS>SET

