#    Name: 1sqv_UHD_1_ligand
#    Modification time : Tue Mar 25 02:40:26 2014

@<TRIPOS>MOLECULE
1sqv_UHD_1_ligand
   47    48     1     0     0
SMALL
NO_CHARGES


@<TRIPOS>ATOM
      1 C2         69.1960   55.1800  171.5760 C.2       1 UHD383      0.0000 
      2 N3         69.4710   55.4410  170.2590 N.2       1 UHD383      0.0000 
      3 C4         70.0320   54.3560  169.6330 C.2       1 UHD383      0.0000 
      4 C7         70.2310   53.2200  170.4060 C.2       1 UHD383      0.0000 
      5 C7A        70.7490   52.0640  169.8420 C.2       1 UHD383      0.0000 
      6 O7         70.8860   51.0930  170.5560 O.2       1 UHD383      0.0000 
      7 C6         71.1220   52.0600  168.4870 C.2       1 UHD383      0.0000 
      8 O6         71.6050   51.0390  168.0270 O.co2     1 UHD383      0.0000 
      9 C4A        70.4110   54.3690  168.2860 C.2       1 UHD383      0.0000 
     10 O4         70.2300   55.4020  167.6770 O.2       1 UHD383      0.0000 
     11 C5         70.9140   53.1990  167.6780 C.2       1 UHD383      0.0000 
     12 C8         71.3800   53.1560  166.2250 C.3       1 UHD383      0.0000 
     13 C9         70.3410   53.4690  165.1430 C.3       1 UHD383      0.0000 
     14 C10        70.9270   53.3400  163.7340 C.3       1 UHD383      0.0000 
     15 C11        70.8770   54.6480  162.9500 C.3       1 UHD383      0.0000 
     16 C12        72.0800   54.8820  162.0340 C.3       1 UHD383      0.0000 
     17 C13        72.7580   56.2260  162.3160 C.3       1 UHD383      0.0000 
     18 C14        73.4510   56.8220  161.0930 C.3       1 UHD383      0.0000 
     19 C15        74.8320   57.3940  161.4140 C.3       1 UHD383      0.0000 
     20 C16        75.8790   56.9090  160.4090 C.3       1 UHD383      0.0000 
     21 C17        76.4190   58.0400  159.5340 C.3       1 UHD383      0.0000 
     22 C18        75.6620   58.2140  158.2200 C.3       1 UHD383      0.0000 
     23 S1         69.6440   53.5130  172.0630 S.3       1 UHD383      0.0000 
     24 H          68.8331   55.6501  172.2890 H         1 UHD383      0.0000 
     25 H          71.8094   52.1453  166.0185 H         1 UHD383      0.0000 
     26 H          72.2370   53.8628  166.1048 H         1 UHD383      0.0000 
     27 H          69.9720   54.4873  165.2856 H         1 UHD383      0.0000 
     28 H          69.4995   52.7799  165.2454 H         1 UHD383      0.0000 
     29 H          70.3697   52.5701  163.1858 H         1 UHD383      0.0000 
     30 H          71.9693   53.0061  163.8111 H         1 UHD383      0.0000 
     31 H          70.8025   55.4896  163.6610 H         1 UHD383      0.0000 
     32 H          69.9568   54.6654  162.3398 H         1 UHD383      0.0000 
     33 H          71.7480   54.8603  160.9934 H         1 UHD383      0.0000 
     34 H          72.8048   54.0780  162.1814 H         1 UHD383      0.0000 
     35 H          73.4979   56.0901  163.1175 H         1 UHD383      0.0000 
     36 H          72.0027   56.9357  162.6824 H         1 UHD383      0.0000 
     37 H          72.8219   57.6190  160.6769 H         1 UHD383      0.0000 
     38 H          73.5556   56.0448  160.3255 H         1 UHD383      0.0000 
     39 H          75.1259   57.0820  162.4161 H         1 UHD383      0.0000 
     40 H          74.7854   58.4826  161.3854 H         1 UHD383      0.0000 
     41 H          75.4305   56.1422  159.7675 H         1 UHD383      0.0000 
     42 H          76.7109   56.4485  160.9536 H         1 UHD383      0.0000 
     43 H          77.4801   57.8449  159.3132 H         1 UHD383      0.0000 
     44 H          76.3738   58.9828  160.1013 H         1 UHD383      0.0000 
     45 H          76.0391   58.9592  157.6700 H         1 UHD383      0.0000 
     46 H          75.6985   57.3876  157.6581 H         1 UHD383      0.0000 
     47 H          74.6959   58.4222  158.3727 H         1 UHD383      0.0000 
@<TRIPOS>BOND
     1    2    1 2    
     2   23    1 1    
     3   24    1 1    
     4    3    2 1    
     5    4    3 2    
     6    9    3 1    
     7    5    4 1    
     8   23    4 1    
     9    6    5 2    
    10    7    5 1    
    11    8    7 ar   
    12   11    7 2    
    13   10    9 2    
    14   11    9 1    
    15   12   11 1    
    16   13   12 1    
    17   25   12 1    
    18   26   12 1    
    19   14   13 1    
    20   27   13 1    
    21   28   13 1    
    22   15   14 1    
    23   29   14 1    
    24   30   14 1    
    25   16   15 1    
    26   31   15 1    
    27   32   15 1    
    28   17   16 1    
    29   33   16 1    
    30   34   16 1    
    31   18   17 1    
    32   35   17 1    
    33   36   17 1    
    34   19   18 1    
    35   37   18 1    
    36   38   18 1    
    37   20   19 1    
    38   39   19 1    
    39   40   19 1    
    40   21   20 1    
    41   41   20 1    
    42   42   20 1    
    43   22   21 1    
    44   43   21 1    
    45   44   21 1    
    46   45   22 1    
    47   46   22 1    
    48   47   22 1    
@<TRIPOS>SUBSTRUCTURE
     1 UHD383      1 GROUP   
@<TRIPOS>SET

