#    Name: 3R6G_2_CAVITY_N1_ALL.mol2
#    Modification time : Mon Mar 10 19:27:30 2014

@<TRIPOS>MOLECULE
3R6G_2_CAVITY_N1_ALL.mol2
   80     0     4     0     0
SMALL
NO_CHARGES


@<TRIPOS>ATOM
      1 N         -13.5635   -6.6136   33.8988 N.2       1 ALA2        0.0000 
      2 N         -12.3321   -7.4662   33.8173 N.2       1 ALA2        0.0000 
      3 CA        -11.1007   -8.3189   33.7359 C.3       3 GLY6        0.0000 
      4 O         -15.2300   -6.2607   32.6346 O.2       1 ALA2        0.0000 
      5 O         -13.9986   -7.1134   32.5531 O.2       1 ALA2        0.0000 
      6 DU        -12.7672   -7.9660   32.4717 H         4 CUB7        0.0000 
      7 CZ        -11.5358   -8.8187   32.3902 C.ar      2 PHE5        0.0000 
      8 O         -15.6651   -6.7606   31.2889 O.2       1 ALA2        0.0000 
      9 O         -14.4337   -7.6132   31.2074 O.2       1 ALA2        0.0000 
     10 DU        -13.2023   -8.4659   31.1260 H         4 CUB7        0.0000 
     11 CZ        -11.9709   -9.3185   31.0445 C.ar      2 PHE5        0.0000 
     12 CA        -16.1002   -7.2604   29.9432 C.3       3 GLY6        0.0000 
     13 DU        -14.8688   -8.1130   29.8617 H         4 CUB7        0.0000 
     14 DU        -13.6374   -8.9657   29.7803 H         4 CUB7        0.0000 
     15 CZ        -12.4060   -9.8183   29.6988 C.ar      2 PHE5        0.0000 
     16 CZ        -11.1746  -10.6710   29.6174 C.ar      2 PHE5        0.0000 
     17 CA        -16.5353   -7.7602   28.5975 C.3       3 GLY6        0.0000 
     18 DU        -15.3039   -8.6129   28.5161 H         4 CUB7        0.0000 
     19 DU        -14.0725   -9.4655   28.4346 H         4 CUB7        0.0000 
     20 CZ        -12.8411  -10.3182   28.3532 C.ar      2 PHE5        0.0000 
     21 CZ        -11.6097  -11.1708   28.2717 C.ar      2 PHE5        0.0000 
     22 N         -10.3783  -12.0235   28.1903 N.2       1 ALA2        0.0000 
     23 O         -16.9704   -8.2600   27.2518 O.2       1 ALA2        0.0000 
     24 DU        -15.7390   -9.1127   27.1704 H         4 CUB7        0.0000 
     25 N         -12.0448  -11.6706   26.9260 N.2       1 ALA2        0.0000 
     26 CA        -12.4799  -12.1705   25.5803 C.3       3 GLY6        0.0000 
     27 O         -11.5943   -6.3379   33.1597 O.2       1 ALA2        0.0000 
     28 O         -10.3629   -7.1905   33.0782 O.2       1 ALA2        0.0000 
     29 O         -12.0294   -6.8377   31.8140 O.2       1 ALA2        0.0000 
     30 N         -10.7980   -7.6904   31.7326 N.2       1 ALA2        0.0000 
     31 O         -13.6959   -6.4849   30.5498 O.2       1 ALA2        0.0000 
     32 O         -12.4645   -7.3375   30.4683 O.2       1 ALA2        0.0000 
     33 N         -11.2331   -8.1902   30.3869 N.2       1 ALA2        0.0000 
     34 CA        -10.0017   -9.0428   30.3054 C.3       3 GLY6        0.0000 
     35 O         -14.1310   -6.9847   29.2041 O.2       1 ALA2        0.0000 
     36 DU        -12.8996   -7.8373   29.1226 H         4 CUB7        0.0000 
     37 CA        -11.6682   -8.6900   29.0412 C.3       3 GLY6        0.0000 
     38 CA        -10.4368   -9.5427   28.9597 C.3       3 GLY6        0.0000 
     39 O         -14.5661   -7.4845   27.8584 O.2       1 ALA2        0.0000 
     40 DU        -13.3347   -8.3372   27.7770 H         4 CUB7        0.0000 
     41 CA        -12.1033   -9.1898   27.6955 C.3       3 GLY6        0.0000 
     42 CA        -10.8719  -10.0425   27.6141 C.3       3 GLY6        0.0000 
     43 O         -15.0012   -7.9843   26.5127 O.2       1 ALA2        0.0000 
     44 DU        -13.7698   -8.8370   26.4313 H         4 CUB7        0.0000 
     45 DU        -12.5384   -9.6896   26.3498 H         4 CUB7        0.0000 
     46 CA        -11.3070  -10.5423   26.2684 C.3       3 GLY6        0.0000 
     47 O         -11.0474   -2.6000   29.9225 O.2       1 ALA2        0.0000 
     48 N          -9.8160   -3.4527   29.8411 N.2       1 ALA2        0.0000 
     49 O         -11.4825   -3.0998   28.5768 O.2       1 ALA2        0.0000 
     50 CA        -10.2511   -3.9525   28.4954 C.3       3 GLY6        0.0000 
     51 CZ        -13.8077   -9.7229   35.1326 C.ar      2 PHE5        0.0000 
     52 CA        -13.8662   -7.2421   35.9021 C.3       3 GLY6        0.0000 
     53 CA        -15.5327   -6.8892   34.6379 C.3       3 GLY6        0.0000 
     54 DU        -14.3013   -7.7419   34.5564 H         4 CUB7        0.0000 
     55 DU        -13.0699   -8.5946   34.4750 H         4 CUB7        0.0000 
     56 CZ        -11.8385   -9.4472   34.3935 C.ar      2 PHE5        0.0000 
     57 DU        -14.7364   -8.2417   33.2108 H         4 CUB7        0.0000 
     58 CZ        -13.5050   -9.0944   33.1293 C.ar      2 PHE5        0.0000 
     59 CZ        -12.2736   -9.9470   33.0479 C.ar      2 PHE5        0.0000 
     60 DU        -15.1715   -8.7416   31.8651 H         4 CUB7        0.0000 
     61 CZ        -13.9401   -9.5942   31.7836 C.ar      2 PHE5        0.0000 
     62 DU        -15.6066   -9.2414   30.5194 H         4 CUB7        0.0000 
     63 CZ        -14.3752  -10.0940   30.4379 C.ar      2 PHE5        0.0000 
     64 CZ        -12.3475  -12.2992   28.9294 C.ar      2 PHE5        0.0000 
     65 CZ        -11.1161  -13.1518   28.8479 C.ar      2 PHE5        0.0000 
     66 N         -11.2916   -5.7094   31.1564 N.2       1 ALA2        0.0000 
     67 N         -11.7267   -6.2092   29.8107 N.2       1 ALA2        0.0000 
     68 O         -13.3932   -5.8563   28.5464 O.2       1 ALA2        0.0000 
     69 CA        -12.1618   -6.7090   28.4650 C.3       3 GLY6        0.0000 
     70 CA        -12.5969   -7.2088   27.1193 C.3       3 GLY6        0.0000 
     71 O         -13.0320   -7.7087   25.7736 O.2       1 ALA2        0.0000 
     72 CA        -11.8006   -8.5613   25.6922 C.3       3 GLY6        0.0000 
     73 N         -10.5692   -9.4140   25.6107 N.2       1 ALA2        0.0000 
     74 DU        -13.4671   -8.2085   24.4279 H         4 CUB7        0.0000 
     75 N         -12.2357   -9.0611   24.3465 N.2       1 ALA2        0.0000 
     76 O         -11.7852   -3.7284   30.5802 O.2       1 ALA2        0.0000 
     77 N         -10.5538   -4.5810   30.4987 N.2       1 ALA2        0.0000 
     78 O         -12.2203   -4.2282   29.2345 O.2       1 ALA2        0.0000 
     79 N         -10.9889   -5.0808   29.1530 N.2       1 ALA2        0.0000 
     80 CA        -12.2942   -6.5803   25.1160 C.3       3 GLY6        0.0000 
@<TRIPOS>BOND
@<TRIPOS>SUBSTRUCTURE
     1 ALA2        1 GROUP   
     2 PHE5        7 GROUP   
     3 GLY6        3 GROUP   
     4 CUB7        6 GROUP   
@<TRIPOS>SET

