#    Name: 3r6g_VAL_ASP_VAL_ALA_ACE_ASA_2_INTS_M
#    Modification time : Mon Apr  7 19:56:02 2014

@<TRIPOS>MOLECULE
3r6g_VAL_ASP_VAL_ALA_ACE_ASA_2_INTS_M
   90     0    12     0     0
SMALL
NO_CHARGES


@<TRIPOS>ATOM
      1 O         -14.5990   -5.8850   40.7755 O.2       1 ALC1        0.0000 
      2 O         -13.7050   -6.7720   41.5800 O.2       9 ALL1        0.0000 
      3 O         -15.4930   -4.9980   39.9710 O.2       5 ALP1        0.0000 
      4 N         -13.1285   -5.0800   38.7710 N.am      2 SEC2        0.0000 
      5 N         -12.8720   -6.4580   38.9150 N.am     10 SEL2        0.0000 
      6 N         -13.3850   -3.7020   38.6270 N.am      6 SEP2        0.0000 
      7 N         -14.1825   -5.7280   39.4430 N.am      2 SEC2        0.0000 
      8 N         -15.4930   -4.9980   39.9710 N.am      6 SEP2        0.0000 
      9 CA        -12.6670  -10.6810   39.9175 C.3       4 GLC5        0.0000 
     10 CA        -13.9300   -9.0960   40.6700 C.3      12 GLL5        0.0000 
     11 CA        -11.4040  -12.2660   39.1650 C.3       8 GLP5        0.0000 
     12 CA        -15.4880   -7.0705   38.6260 C.3       4 GLC5        0.0000 
     13 CA        -15.0140   -8.8380   39.6260 C.3      12 GLL5        0.0000 
     14 CA        -15.9620   -5.3030   37.6260 C.3       8 GLP5        0.0000 
     15 O         -10.8180   -9.1445   40.0345 O.2       1 ALC1        0.0000 
     16 O         -11.4340   -8.2000   39.0680 O.2       9 ALL1        0.0000 
     17 O         -10.2020  -10.0890   41.0010 O.2       5 ALP1        0.0000 
     18 CA        -10.8625   -5.7945   38.0675 C.3       4 GLC5        0.0000 
     19 CA        -10.7450   -7.9630   37.7970 C.3      12 GLL5        0.0000 
     20 CA        -10.9800   -3.6260   38.3380 C.3       8 GLP5        0.0000 
     21 CA         -7.2470   -7.8995   37.5250 C.3       4 GLC5        0.0000 
     22 CA         -9.2900   -8.3880   37.9470 C.3      12 GLL5        0.0000 
     23 CA         -5.2040   -7.4110   37.1030 C.3       8 GLP5        0.0000 
     24 CA         -7.5530   -9.4850   38.4305 C.3       4 GLC5        0.0000 
     25 CA         -5.8160  -10.5820   38.9140 C.3       8 GLP5        0.0000 
     26 N          -7.6160   -5.7200   37.9875 N.am      2 SEC2        0.0000 
     27 N          -8.8210   -6.2350   38.6890 N.am     10 SEL2        0.0000 
     28 N          -6.4110   -5.2050   37.2860 N.am      6 SEP2        0.0000 
     29 N          -7.5025   -9.1385   40.1770 N.am      2 SEC2        0.0000 
     30 N          -7.6400   -7.8430   39.6340 N.am     10 SEL2        0.0000 
     31 N          -7.3650  -10.4340   40.7200 N.am      6 SEP2        0.0000 
     32 O         -11.4745   -6.4630   35.7505 O.2       1 ALC1        0.0000 
     33 O         -11.6880   -7.8250   35.5430 O.2       9 ALL1        0.0000 
     34 O         -11.2610   -5.1010   35.9580 O.2       5 ALP1        0.0000 
     35 CA        -10.3440   -8.8200   34.2680 C.3       4 GLC5        0.0000 
     36 CA        -12.2980   -8.3430   34.2960 C.3      12 GLL5        0.0000 
     37 CA         -8.3900   -9.2970   34.2400 C.3       8 GLP5        0.0000 
     38 CA        -12.0930  -10.4955   34.1065 C.3       4 GLC5        0.0000 
     39 CA        -11.8880  -12.6480   33.9170 C.3       8 GLP5        0.0000 
     40 N          -9.9715   -5.7775   33.5785 N.am      2 SEC2        0.0000 
     41 N         -10.7530   -6.9090   33.1410 N.am     10 SEL2        0.0000 
     42 N          -9.1900   -4.6460   34.0160 N.am      6 SEP2        0.0000 
     43 CA        -15.2990   -6.8955   36.5065 C.3       4 GLC5        0.0000 
     44 CA        -14.6360   -8.4880   35.3870 C.3      12 GLL5        0.0000 
     45 CA        -15.0100   -5.8995   35.7545 C.3       4 GLC5        0.0000 
     46 CA        -14.0580   -6.4960   33.8830 C.3      12 GLL5        0.0000 
     47 CA         -9.3405   -8.5870   31.6645 C.3       4 GLC5        0.0000 
     48 CA        -11.2070   -8.1140   30.6100 C.3      12 GLL5        0.0000 
     49 CA         -7.4740   -9.0600   32.7190 C.3       8 GLP5        0.0000 
     50 CA        -10.4185   -7.9340   28.1645 C.3       4 GLC5        0.0000 
     51 CA        -11.1700   -9.3590   29.7110 C.3      12 GLL5        0.0000 
     52 CA         -9.6670   -6.5090   26.6180 C.3       8 GLP5        0.0000 
     53 CA         -9.4520   -9.4185   28.8140 C.3       4 GLC5        0.0000 
     54 CA         -7.7340   -9.4780   27.9170 C.3       8 GLP5        0.0000 
     55 CA        -14.0540   -3.1000   43.0235 C.3       4 GLC5        0.0000 
     56 CA        -13.8290   -4.9800   43.1880 C.3      12 GLL5        0.0000 
     57 CA        -14.2790   -1.2200   42.8590 C.3       8 GLP5        0.0000 
     58 N         -10.1105   -4.3030   25.4980 N.am      2 SEC2        0.0000 
     59 N         -11.5000   -4.7610   25.9630 N.am     10 SEL2        0.0000 
     60 N          -8.7210   -3.8450   25.0330 N.am      6 SEP2        0.0000 
     61 CA         -9.5495   -2.6050   26.8305 C.3       4 GLC5        0.0000 
     62 CA        -10.4380   -3.8240   28.3840 C.3      12 GLL5        0.0000 
     63 CA         -8.6610   -1.3860   25.2770 C.3       8 GLP5        0.0000 
     64 CA         -8.3465   -3.9805   28.5500 C.3       4 GLC5        0.0000 
     65 CA         -6.2550   -4.1370   28.7160 C.3       8 GLP5        0.0000 
     66 NZ        -12.1085   -1.0075   29.6020 N.4       3 LYC4        0.0000 
     67 NZ        -10.1440   -1.8150   29.6120 N.4      11 LYL4        0.0000 
     68 NZ        -13.2410    0.6250   29.2830 N.4       7 LYP4        0.0000 
     69 N         -11.0775   -0.6075   29.6980 N.am      2 SEC2        0.0000 
     70 N         -10.1440   -1.8150   29.6120 N.am     10 SEL2        0.0000 
     71 N         -12.0110    0.6000   29.7840 N.am      6 SEP2        0.0000 
     72 N          -8.8660   -1.4420   29.8940 N.am      2 SEC2        0.0000 
     73 N          -7.5880   -1.0690   30.1760 N.am      6 SEP2        0.0000 
     74 NZ        -12.9725   -1.5435   29.0820 N.4       3 LYC4        0.0000 
     75 NZ        -12.2060   -2.6150   29.4200 N.4      11 LYL4        0.0000 
     76 NZ        -13.2935   -3.2615   30.3190 N.4       3 LYC4        0.0000 
     77 NZ        -14.1070   -3.1350   32.2710 N.4       7 LYP4        0.0000 
     78 N         -12.9725   -1.5435   29.0820 N.am      2 SEC2        0.0000 
     79 N         -12.2060   -2.6150   29.4200 N.am     10 SEL2        0.0000 
     80 N         -13.7390   -0.4720   28.7440 N.am      6 SEP2        0.0000 
     81 N         -12.1085   -1.0075   29.6020 N.am      2 SEC2        0.0000 
     82 N         -12.6905   -2.3970   30.7895 N.am      2 SEC2        0.0000 
     83 N         -13.1750   -2.1790   32.1590 N.am      6 SEP2        0.0000 
     84 N         -13.2935   -3.2615   30.3190 N.am      2 SEC2        0.0000 
     85 N         -14.3810   -3.9080   31.2180 N.am      6 SEP2        0.0000 
     86 CA         -9.2037   -8.7363   36.0560 C.3       4 GLC5        0.0000 
     87 CA        -11.3848  -10.5638   30.8407 C.3       4 GLC5        0.0000 
     88 CA        -11.5810  -12.3910   31.5210 C.3       8 GLP5        0.0000 
     89 CA        -10.2963   -5.4625   27.4980 C.3       4 GLC5        0.0000 
     90 CA        -11.4130   -5.0080   28.3720 C.3      12 GLL5        0.0000 
@<TRIPOS>BOND
@<TRIPOS>SUBSTRUCTURE
     1 ALC1        1 GROUP        1 X    ALC  0     ROOT ALC X 1
     2 SEC2        4 GROUP        1 X    SEC  0     **** SEC X 2
     3 LYC4       66 GROUP        1 X    LYC  0     **** LYC X 4
     4 GLC5        9 GROUP        1 X    GLC  0     **** GLC X 6
     5 ALP1        3 GROUP        1 Y    ALP  0     ROOT ALP Y 8
     6 SEP2        6 GROUP        1 Y    SEP  0     **** SEP Y 9
     7 LYP4       68 GROUP        1 Y    LYP  0     **** LYP Y 11
     8 GLP5       11 GROUP        1 Y    GLP  0     **** GLP Y 13
     9 ALL1        2 GROUP        1 Z    ALL  0     ROOT ALL Z 15
    10 SEL2        5 GROUP        1 Z    SEL  0     **** SEL Z 16
    11 LYL4       67 GROUP        1 Z    LYL  0     **** LYL Z 18
    12 GLL5       10 GROUP        1 Z    GLL  0     **** GLL Z 20
@<TRIPOS>SET

