#    Name: 3r6g_VAL_ASP_VAL_ALA_ACE_ASA_2_ligand
#    Modification time : Mon Apr  7 19:56:02 2014

@<TRIPOS>MOLECULE
3r6g_VAL_ASP_VAL_ALA_ACE_ASA_2_ligand
   72    71     6     0     0
SMALL
NO_CHARGES


@<TRIPOS>ATOM
      1 N         -13.7050   -6.7720   41.5800 N.am      1 VAL402      0.0000
      2 CA        -13.0180   -7.8550   40.8730 C.3       1 VAL402      0.0000
      3 C         -12.4230   -7.4290   39.5220 C.2       1 VAL402      0.0000
      4 O         -12.8720   -6.4580   38.9150 O.2       1 VAL402      0.0000
      5 CB        -13.9300   -9.0960   40.6700 C.3       1 VAL402      0.0000
      6 CG1       -14.5220   -9.5700   42.0260 C.3       1 VAL402      0.0000
      7 CG2       -15.0140   -8.8380   39.6260 C.3       1 VAL402      0.0000
      8 HNCA      -14.5455   -6.3847   41.1037 H         1 VAL402      0.0000
      9 HA        -12.1637   -8.2122   41.4921 H         1 VAL402      0.0000
     10 HB        -13.2852   -9.9092   40.2990 H         1 VAL402      0.0000
     11 H         -13.8055   -9.8270   42.6745 H         1 VAL402      0.0000
     12 H         -15.0696   -8.8559   42.4621 H         1 VAL402      0.0000
     13 H         -15.1154  -10.3670   41.9138 H         1 VAL402      0.0000
     14 HG21      -14.6238   -8.6074   38.7346 H         1 VAL402      0.0000
     15 HG22      -15.5985   -9.6383   39.4919 H         1 VAL402      0.0000
     16 HG23      -15.6107   -8.0801   39.8897 H         1 VAL402      0.0000
     17 N         -11.4340   -8.2000   39.0680 N.am      2 ASP403      0.0000
     18 CA        -10.7450   -7.9630   37.7970 C.3       2 ASP403      0.0000
     19 C         -11.4420   -8.6030   36.5890 C.2       2 ASP403      0.0000
     20 O         -11.7840   -9.7870   36.6230 O.2       2 ASP403      0.0000
     21 CB         -9.2900   -8.3880   37.9470 C.3       2 ASP403      0.0000
     22 CG         -8.5230   -7.4380   38.8240 C.2       2 ASP403      0.0000
     23 OD1        -8.8210   -6.2350   38.6890 O.co2     2 ASP403      0.0000
     24 OD2        -7.6400   -7.8430   39.6340 O.co2     2 ASP403      0.0000
     25 HNCA      -11.0921   -9.0332   39.6100 H         2 ASP403      0.0000
     26 HA        -10.7276   -6.8608   37.6182 H         2 ASP403      0.0000
     27 HB2        -8.8282   -8.4287   36.9546 H         2 ASP403      0.0000
     28 HB3        -9.2571   -9.3951   38.3765 H         2 ASP403      0.0000
     29 N         -11.6880   -7.8250   35.5430 N.am      3 VAL404      0.0000
     30 CA        -12.2980   -8.3430   34.2960 C.3       3 VAL404      0.0000
     31 C         -11.5600   -7.8390   33.0520 C.2       3 VAL404      0.0000
     32 O         -10.7530   -6.9090   33.1410 O.2       3 VAL404      0.0000
     33 CB        -13.8230   -7.9960   34.1620 C.3       3 VAL404      0.0000
     34 CG1       -14.6360   -8.4880   35.3870 C.3       3 VAL404      0.0000
     35 CG2       -14.0580   -6.4960   33.8830 C.3       3 VAL404      0.0000
     36 HNCA      -11.4685   -6.8058   35.5333 H         3 VAL404      0.0000
     37 HA        -12.2318   -9.4428   34.2828 H         3 VAL404      0.0000
     38 HB        -14.1963   -8.5557   33.2814 H         3 VAL404      0.0000
     39 H         -14.5671   -9.4786   35.5049 H         3 VAL404      0.0000
     40 H         -14.3171   -8.0688   36.2370 H         3 VAL404      0.0000
     41 H         -15.6080   -8.2701   35.2994 H         3 VAL404      0.0000
     42 HG21      -13.6908   -5.9204   34.6136 H         3 VAL404      0.0000
     43 HG22      -13.6215   -6.2037   33.0321 H         3 VAL404      0.0000
     44 HG23      -15.0313   -6.2814   33.8019 H         3 VAL404      0.0000
     45 N         -11.8570   -8.4410   31.9010 N.am      4 ALA405      0.0000
     46 CA        -11.2070   -8.1140   30.6100 C.3       4 ALA405      0.0000
     47 C         -11.8300   -6.9550   29.8180 C.2       4 ALA405      0.0000
     48 O         -13.0450   -6.9190   29.6210 O.2       4 ALA405      0.0000
     49 CB        -11.1700   -9.3590   29.7110 C.3       4 ALA405      0.0000
     50 H         -12.5843   -9.1979   31.8417 H         4 ALA405      0.0000
     51 HA        -10.1465   -7.8492   30.7948 H         4 ALA405      0.0000
     52 HB1       -10.7324   -9.1695   28.8320 H         4 ALA405      0.0000
     53 HB2       -10.6624  -10.1087   30.1356 H         4 ALA405      0.0000
     54 HB3       -12.0884   -9.7018   29.5134 H         4 ALA405      0.0000
     55 C         -13.2770   -6.3160   42.7570 C.2       5 ACE401      0.0000
     56 O         -12.6340   -7.0220   43.5370 O.2       5 ACE401      0.0000
     57 CH3       -13.8290   -4.9800   43.1880 C.3       5 ACE401      0.0000
     58 H         -13.4699   -4.6995   44.0781 H         5 ACE401      0.0000
     59 H         -13.5991   -4.2559   42.5378 H         5 ACE401      0.0000
     60 H         -14.8258   -4.9978   43.2664 H         5 ACE401      0.0000
     61 N         -10.9840   -6.0520   29.3130 N.4       6 ASA406      0.0000
     62 CA        -11.4130   -5.0080   28.3720 C.3       6 ASA406      0.0000
     63 C         -11.6080   -5.5140   26.9430 C.2       6 ASA406      0.0000
     64 O         -11.5000   -4.7610   25.9630 O.2       6 ASA406      0.0000
     65 CB        -10.4380   -3.8240   28.3840 C.3       6 ASA406      0.0000
     66 CG        -10.9660   -2.6570   29.1980 C.2       6 ASA406      0.0000
     67 OD1       -10.1440   -1.8150   29.6120 O.co2     6 ASA406      0.0000
     68 OD2       -12.2060   -2.6150   29.4200 O.co2     6 ASA406      0.0000
     69 H         -12.3913   -4.6031   28.7066 H         6 ASA406      0.0000
     70 H         -11.8347   -6.5395   26.9209 H         6 ASA406      0.0000
     71 H         -10.2630   -3.5001   27.3530 H         6 ASA406      0.0000
     72 H          -9.4825   -4.1575   28.8017 H         6 ASA406      0.0000
@<TRIPOS>BOND
     1    2    1 1
     2    8    1 1
     3    3    2 1
     4    5    2 1
     5    9    2 1
     6    4    3 2
     7    6    5 1
     8    7    5 1
     9   10    5 1
    10   11    6 1
    11   12    6 1
    12   13    6 1
    13   14    7 1
    14   15    7 1
    15   16    7 1
    16   18   17 1
    17   25   17 1
    18   19   18 1
    19   21   18 1
    20   26   18 1
    21   20   19 2
    22   22   21 1
    23   27   21 1
    24   28   21 1
    25   23   22 ar
    26   24   22 ar
    27   30   29 1
    28   36   29 1
    29   31   30 1
    30   33   30 1
    31   37   30 1
    32   32   31 2
    33   34   33 1
    34   35   33 1
    35   38   33 1
    36   39   34 1
    37   40   34 1
    38   41   34 1
    39   42   35 1
    40   43   35 1
    41   44   35 1
    42   46   45 1
    43   50   45 1
    44   47   46 1
    45   49   46 1
    46   51   46 1
    47   48   47 2
    48   52   49 1
    49   53   49 1
    50   54   49 1
    51   56   55 2
    52   57   55 1
    53   58   57 1
    54   59   57 1
    55   60   57 1
    56   62   61 1
    57   63   62 1
    58   65   62 1
    59   69   62 1
    60   64   63 2
    61   70   63 1
    62   66   65 1
    63   71   65 1
    64   72   65 1
    65   67   66 ar
    66   68   66 ar
    67   55    1 1 
    68   17    3 am
    69   29   19 am
    70   45   31 am
    71   61   47 1 
@<TRIPOS>SUBSTRUCTURE
     1 VAL402      1 RESIDUE
     2 ASP403     17 RESIDUE
     3 VAL404     29 RESIDUE
     4 ALA405     45 RESIDUE
     5 ACE401     55 GROUP
     6 ASA406     61 GROUP
@<TRIPOS>SET

