#    Name: 4n6z_2HW_1_INTS_M
#    Modification time : Tue Mar 25 12:45:26 2014

@<TRIPOS>MOLECULE
4n6z_2HW_1_INTS_M
   65     0     9     0     0
SMALL
NO_CHARGES


@<TRIPOS>ATOM
      1 CA        -20.6120   35.8995   -0.3325 C.3       3 GLC5        0.0000 
      2 CA        -19.8770   37.9010    0.0910 C.3       9 GLL5        0.0000 
      3 CA        -21.3470   33.8980   -0.7560 C.3       6 GLP5        0.0000 
      4 CA        -17.7640   38.0765   -0.6080 C.3       3 GLC5        0.0000 
      5 CA        -15.6510   38.2520   -1.3070 C.3       6 GLP5        0.0000 
      6 CA        -19.5665   39.9415    2.6355 C.3       3 GLC5        0.0000 
      7 CA        -20.5690   38.6950    1.0570 C.3       9 GLL5        0.0000 
      8 CA        -18.5640   41.1880    4.2140 C.3       6 GLP5        0.0000 
      9 O         -21.0440   39.2195    3.3960 O.2       1 ALC1        0.0000 
     10 O         -20.3570   38.5810    2.3760 O.2       7 ALL1        0.0000 
     11 O         -21.7310   39.8580    4.4160 O.2       4 ALP1        0.0000 
     12 CA        -23.2540   40.3525    0.1820 C.3       3 GLC5        0.0000 
     13 CA        -21.6260   39.8100   -0.6680 C.3       9 GLL5        0.0000 
     14 CA        -24.8820   40.8950    1.0320 C.3       6 GLP5        0.0000 
     15 CA        -22.1060   41.6185   -1.6700 C.3       3 GLC5        0.0000 
     16 CA        -22.5860   43.4270   -2.6720 C.3       6 GLP5        0.0000 
     17 CA        -17.3015   32.8370    1.5440 C.3       3 GLC5        0.0000 
     18 CA        -16.9560   34.4490    0.3940 C.3       9 GLL5        0.0000 
     19 CA        -17.6470   31.2250    2.6940 C.3       6 GLP5        0.0000 
     20 CA        -14.7745   34.4365    0.4090 C.3       3 GLC5        0.0000 
     21 CA        -12.5930   34.4240    0.4240 C.3       6 GLP5        0.0000 
     22 O         -15.6250   32.4950    1.2645 O.2       1 ALC1        0.0000 
     23 O         -16.0220   33.4960    0.3470 O.2       7 ALL1        0.0000 
     24 O         -15.2280   31.4940    2.1820 O.2       4 ALP1        0.0000 
     25 CA        -15.9515   31.9065    0.6360 C.3       3 GLC5        0.0000 
     26 CA        -15.4890   33.2230   -0.8430 C.3       9 GLL5        0.0000 
     27 CA        -16.4140   30.5900    2.1150 C.3       6 GLP5        0.0000 
     28 CA        -17.5875   33.3385   -4.3380 C.3       3 GLC5        0.0000 
     29 CA        -18.5150   35.0980   -3.7150 C.3       9 GLL5        0.0000 
     30 CA        -16.6600   31.5790   -4.9610 C.3       6 GLP5        0.0000 
     31 CA        -19.6895   33.8795   -2.6180 C.3       3 GLC5        0.0000 
     32 CA        -20.8640   32.6610   -1.5210 C.3       6 GLP5        0.0000 
     33 CA        -21.1545   35.9450   -4.5305 C.3       3 GLC5        0.0000 
     34 CA        -19.0580   36.1470   -4.6550 C.3       9 GLL5        0.0000 
     35 CA        -23.2510   35.7430   -4.4060 C.3       6 GLP5        0.0000 
     36 CA        -16.4380   33.7435   -4.5310 C.3       3 GLC5        0.0000 
     37 CA        -16.2160   35.9080   -4.1010 C.3       9 GLL5        0.0000 
     38 OD1       -16.2325   38.4560   -6.5620 O.co2     2 ASC3        0.0000 
     39 OD1       -15.6770   37.3540   -5.9470 O.co2     8 ASL3        0.0000 
     40 OD1       -16.7880   39.5580   -7.1770 O.co2     5 ASP3        0.0000 
     41 O         -16.2325   38.4560   -6.5620 O.2       1 ALC1        0.0000 
     42 O         -15.6770   37.3540   -5.9470 O.2       7 ALL1        0.0000 
     43 O         -16.7880   39.5580   -7.1770 O.2       4 ALP1        0.0000 
     44 O         -14.6775   37.9370   -5.2000 O.2       1 ALC1        0.0000 
     45 O         -13.6780   38.5200   -4.4530 O.2       4 ALP1        0.0000 
     46 CA        -21.6050   37.3670    1.3510 C.3       3 GLC5        0.0000 
     47 CA        -22.9870   36.4360    2.1280 C.3       6 GLP5        0.0000 
     48 CA        -19.3805   39.8920    0.3185 C.3       3 GLC5        0.0000 
     49 CA        -18.5380   41.4860    0.0630 C.3       6 GLP5        0.0000 
     50 CA        -22.6143   38.2748   -1.7660 C.3       3 GLC5        0.0000 
     51 CA        -23.9460   37.1150   -2.4000 C.3       6 GLP5        0.0000 
     52 CA        -19.9103   40.4602   -0.5345 C.3       3 GLC5        0.0000 
     53 CA        -20.9390   39.0590   -1.5960 C.3       9 GLL5        0.0000 
     54 CA        -16.4150   36.5285   -0.7347 C.3       3 GLC5        0.0000 
     55 CA        -14.9340   31.7567   -1.6175 C.3       3 GLC5        0.0000 
     56 CA        -15.8470   33.8580   -2.0130 C.3       9 GLL5        0.0000 
     57 CA        -14.2000   29.9730   -1.8070 C.3       6 GLP5        0.0000 
     58 CA        -14.1305   33.9822   -0.5020 C.3       3 GLC5        0.0000 
     59 CA        -15.9938   36.3025   -1.6462 C.3       3 GLC5        0.0000 
     60 CA        -19.7553   34.1048   -5.4540 C.3       3 GLC5        0.0000 
     61 CA        -20.7240   32.5870   -6.7230 C.3       6 GLP5        0.0000 
     62 CA        -16.0645   37.3575   -2.9270 C.3       3 GLC5        0.0000 
     63 CA        -17.9521   33.1582   -1.0731 C.3       3 GLC5        0.0000 
     64 CA        -16.8260   34.8480   -1.9580 C.3       9 GLL5        0.0000 
     65 CA        -19.5690   32.1330   -0.9020 C.3       6 GLP5        0.0000 
@<TRIPOS>BOND
@<TRIPOS>SUBSTRUCTURE
     1 ALC1        9 GROUP        1 X    ALC  0     ROOT ALC X 1
     2 ASC3       38 GROUP        1 X    ASC  0     **** ASC X 3
     3 GLC5        1 GROUP        1 X    GLC  0     **** GLC X 6
     4 ALP1       11 GROUP        1 Y    ALP  0     ROOT ALP Y 8
     5 ASP3       40 GROUP        1 Y    ASP  0     **** ASP Y 10
     6 GLP5        3 GROUP        1 Y    GLP  0     **** GLP Y 13
     7 ALL1       10 GROUP        1 Z    ALL  0     ROOT ALL Z 15
     8 ASL3       39 GROUP        1 Z    ASL  0     **** ASL Z 17
     9 GLL5        2 GROUP        1 Z    GLL  0     **** GLL Z 20
@<TRIPOS>SET

