#    Name: 4n6z_2HW_1_ligand
#    Modification time : Tue Mar 25 12:45:26 2014

@<TRIPOS>MOLECULE
4n6z_2HW_1_ligand
   44    46     1     0     0
SMALL
NO_CHARGES


@<TRIPOS>ATOM
      1 O         -18.6500   36.5270    1.6050 O.2       1 2HW401      0.0000 
      2 C10       -18.9010   36.8130    0.4370 C.2       1 2HW401      0.0000 
      3 C11       -19.8770   37.9010    0.0910 C.ar      1 2HW401      0.0000 
      4 C14       -20.5690   38.6950    1.0570 C.ar      1 2HW401      0.0000 
      5 N6        -20.3570   38.5810    2.3760 N.pl3     1 2HW401      0.0000 
      6 N5        -21.4520   39.6370    0.6490 N.ar      1 2HW401      0.0000 
      7 C13       -21.6260   39.8100   -0.6680 C.ar      1 2HW401      0.0000 
      8 C12       -20.9390   39.0590   -1.5960 C.ar      1 2HW401      0.0000 
      9 N4        -20.0760   38.1000   -1.2290 N.ar      1 2HW401      0.0000 
     10 N3        -18.3300   36.2290   -0.6450 N.am      1 2HW401      0.0000 
     11 C9        -17.4020   35.1610   -0.7190 C.ar      1 2HW401      0.0000 
     12 C8        -16.9560   34.4490    0.3940 C.ar      1 2HW401      0.0000 
     13 N2        -16.0220   33.4960    0.3470 N.pl3     1 2HW401      0.0000 
     14 C7        -15.4890   33.2230   -0.8430 C.ar      1 2HW401      0.0000 
     15 C6        -15.8470   33.8580   -2.0130 C.ar      1 2HW401      0.0000 
     16 C5        -16.8260   34.8480   -1.9580 C.ar      1 2HW401      0.0000 
     17 N1        -17.2400   35.5260   -3.1270 N.3       1 2HW401      0.0000 
     18 C3        -18.5150   35.0980   -3.7150 C.3       1 2HW401      0.0000 
     19 C2        -19.0580   36.1470   -4.6550 C.3       1 2HW401      0.0000 
     20 C1        -18.0070   36.5470   -5.6880 C.3       1 2HW401      0.0000 
     21 C4        -16.2160   35.9080   -4.1010 C.3       1 2HW401      0.0000 
     22 C         -16.7400   37.0180   -4.9930 C.3       1 2HW401      0.0000 
     23 N         -15.6770   37.3540   -5.9470 N.4       1 2HW401      0.0000 
     24 H         -20.8918   39.1899    2.9619 H         1 2HW401      0.0000 
     25 H         -19.6830   37.8973    2.6559 H         1 2HW401      0.0000 
     26 H         -22.3019   40.5349   -1.0193 H         1 2HW401      0.0000 
     27 H         -21.1062   39.2545   -2.6150 H         1 2HW401      0.0000 
     28 H         -18.6184   36.6320   -1.6285 H         1 2HW401      0.0000 
     29 H         -17.4029   34.6987    1.3283 H         1 2HW401      0.0000 
     30 H         -15.7272   32.9942    1.1953 H         1 2HW401      0.0000 
     31 H         -14.7363   32.4686   -0.9149 H         1 2HW401      0.0000 
     32 H         -15.4101   33.6141   -2.9007 H         1 2HW401      0.0000 
     33 H         -19.2572   34.9135   -2.9264 H         1 2HW401      0.0000 
     34 H         -18.3839   34.1601   -4.2717 H         1 2HW401      0.0000 
     35 H         -19.3530   37.0311   -4.0881 H         1 2HW401      0.0000 
     36 H         -19.9350   35.7572   -5.1736 H         1 2HW401      0.0000 
     37 H         -18.4009   37.3491   -6.3071 H         1 2HW401      0.0000 
     38 H         -17.7788   35.6899   -6.3167 H         1 2HW401      0.0000 
     39 H         -15.9426   35.0560   -4.7293 H         1 2HW401      0.0000 
     40 H         -15.3144   36.2640   -3.5952 H         1 2HW401      0.0000 
     41 H         -16.9695   37.8644   -4.3723 H         1 2HW401      0.0000 
     42 H         -15.9548   38.0850   -6.5703 H         1 2HW401      0.0000 
     43 H         -14.8465   37.6635   -5.4838 H         1 2HW401      0.0000 
     44 H         -15.4225   36.5686   -6.5113 H         1 2HW401      0.0000 
@<TRIPOS>BOND
     1    2    1 2    
     2    3    2 1    
     3   10    2 am   
     4    4    3 ar   
     5    9    3 ar   
     6    5    4 1    
     7    6    4 ar   
     8   24    5 1    
     9   25    5 1    
    10    7    6 ar   
    11    8    7 ar   
    12   26    7 1    
    13    9    8 ar   
    14   27    8 1    
    15   11   10 1    
    16   28   10 1    
    17   12   11 ar   
    18   16   11 ar   
    19   13   12 ar   
    20   29   12 1    
    21   14   13 ar   
    22   30   13 1    
    23   15   14 ar   
    24   31   14 1    
    25   16   15 ar   
    26   32   15 1    
    27   17   16 1    
    28   18   17 1    
    29   21   17 1    
    30   19   18 1    
    31   33   18 1    
    32   34   18 1    
    33   20   19 1    
    34   35   19 1    
    35   36   19 1    
    36   22   20 1    
    37   37   20 1    
    38   38   20 1    
    39   22   21 1    
    40   39   21 1    
    41   40   21 1    
    42   23   22 1    
    43   41   22 1    
    44   42   23 1    
    45   43   23 1    
    46   44   23 1    
@<TRIPOS>SUBSTRUCTURE
     1 2HW401      1 GROUP   
@<TRIPOS>SET

