#    Name: 3nam_OTK_1_INTS_M
#    Modification time : Tue Mar 25 01:09:40 2014

@<TRIPOS>MOLECULE
3nam_OTK_1_INTS_M
   59     0     3     0     0
SMALL
NO_CHARGES


@<TRIPOS>ATOM
      1 CA         -1.9810   11.8375   86.6405 C.3       1 GLC5        0.0000 
      2 CA         -3.1580   10.1380   86.9180 C.3       3 GLL5        0.0000 
      3 CA         -0.8040   13.5370   86.3630 C.3       2 GLP5        0.0000 
      4 CA         -7.3810    9.3265   86.2015 C.3       1 GLC5        0.0000 
      5 CA         -6.2700   10.7460   86.2460 C.3       3 GLL5        0.0000 
      6 CA         -8.4920    7.9070   86.1570 C.3       2 GLP5        0.0000 
      7 CA         -4.2040   12.6860   78.2805 C.3       1 GLC5        0.0000 
      8 CA         -2.5580   11.4050   78.4970 C.3       3 GLL5        0.0000 
      9 CA         -5.8500   13.9670   78.0640 C.3       2 GLP5        0.0000 
     10 CA         -2.0545   12.3065   77.1405 C.3       1 GLC5        0.0000 
     11 CA         -1.5510   13.2080   75.7840 C.3       2 GLP5        0.0000 
     12 CA         -2.9395   15.3380   79.7235 C.3       1 GLC5        0.0000 
     13 CA         -2.6400   13.2090   80.2620 C.3       3 GLL5        0.0000 
     14 CA         -3.2390   17.4670   79.1850 C.3       2 GLP5        0.0000 
     15 CA         -1.5125   14.2450   83.0095 C.3       1 GLC5        0.0000 
     16 CA         -2.6640   13.7310   81.6840 C.3       3 GLL5        0.0000 
     17 CA         -0.3610   14.7590   84.3350 C.3       2 GLP5        0.0000 
     18 CA         -4.0310   14.7760   82.9410 C.3       1 GLC5        0.0000 
     19 CA         -5.3980   15.8210   84.1980 C.3       2 GLP5        0.0000 
     20 CA          0.2180    9.2480   85.6240 C.3       1 GLC5        0.0000 
     21 CA         -0.8910   10.1780   84.6920 C.3       3 GLL5        0.0000 
     22 CA          1.3270    8.3180   86.5560 C.3       2 GLP5        0.0000 
     23 CA          0.8585   10.3600   83.8645 C.3       1 GLC5        0.0000 
     24 CA          2.6080   10.5420   83.0370 C.3       2 GLP5        0.0000 
     25 CA         -2.2450   13.9375   87.3085 C.3       1 GLC5        0.0000 
     26 CA         -3.6860   14.3380   88.2540 C.3       3 GLL5        0.0000 
     27 CA         -5.2645   15.4180   90.6965 C.3       1 GLC5        0.0000 
     28 CA         -3.6740   15.1330   89.5630 C.3       3 GLL5        0.0000 
     29 CA         -6.8550   15.7030   91.8300 C.3       2 GLP5        0.0000 
     30 CA         -3.9950   18.1035   89.0850 C.3       1 GLC5        0.0000 
     31 CA         -2.8360   16.4080   89.4350 C.3       3 GLL5        0.0000 
     32 CA         -5.1540   19.7990   88.7350 C.3       2 GLP5        0.0000 
     33 CA         -4.1990   17.1195   90.6415 C.3       1 GLC5        0.0000 
     34 CA         -5.5620   17.8310   91.8480 C.3       2 GLP5        0.0000 
     35 CA         -3.0505   12.9100   84.7600 C.3       1 GLC5        0.0000 
     36 CA         -4.9440   11.9460   84.4530 C.3       3 GLL5        0.0000 
     37 CA         -1.1570   13.8740   85.0670 C.3       2 GLP5        0.0000 
     38 CA         -5.1710   13.8835   84.3255 C.3       1 GLC5        0.0000 
     39 CA         -5.6280   12.5395   82.4110 C.3       1 GLC5        0.0000 
     40 CA         -6.3120   13.1330   80.3690 C.3       2 GLP5        0.0000 
     41 CA         -7.5245   11.9205   81.5675 C.3       1 GLC5        0.0000 
     42 CA         -8.7370   10.7080   82.7660 C.3       3 GLL5        0.0000 
     43 CA         -8.1340    9.0560   84.0385 C.3       1 GLC5        0.0000 
     44 CA         -7.5310    7.4040   85.3110 C.3       2 GLP5        0.0000 
     45 CA        -10.0200   11.9130   82.6905 C.3       1 GLC5        0.0000 
     46 CA        -11.3030   13.1180   82.6150 C.3       2 GLP5        0.0000 
     47 CA        -10.1585    9.9530   81.5055 C.3       1 GLC5        0.0000 
     48 CA        -11.5800    9.1980   80.2450 C.3       2 GLP5        0.0000 
     49 CA         -1.4000   12.0802   84.8320 C.3       1 GLC5        0.0000 
     50 CA         -2.3950   10.3950   84.5020 C.3       3 GLL5        0.0000 
     51 CA         -7.3183   11.7875   87.6852 C.3       1 GLC5        0.0000 
     52 CA         -5.3770   11.0460   87.4570 C.3       3 GLL5        0.0000 
     53 CA         -8.8130   12.6790   88.5190 C.3       2 GLP5        0.0000 
     54 CA         -6.2491    8.6721   84.9040 C.3       1 GLC5        0.0000 
     55 CA         -5.5740   10.6160   84.8820 C.3       3 GLL5        0.0000 
     56 CA         -0.5619   12.7296   80.8685 C.3       1 GLC5        0.0000 
     57 CA         -2.5750   11.8260   79.9540 C.3       3 GLL5        0.0000 
     58 CA          1.5120   12.3350   80.8410 C.3       2 GLP5        0.0000 
     59 CA         -4.4739   13.1286   80.6325 C.3       1 GLC5        0.0000 
@<TRIPOS>BOND
@<TRIPOS>SUBSTRUCTURE
     1 GLC5        1 GROUP        1 X    GLC  0     ROOT GLC X 6
     2 GLP5        3 GROUP        1 Y    GLP  0     ROOT GLP Y 13
     3 GLL5        2 GROUP        1 Z    GLL  0     ROOT GLL Z 20
@<TRIPOS>SET

