#    Name: 3nam_OTK_1_ligand
#    Modification time : Tue Mar 25 01:09:41 2014

@<TRIPOS>MOLECULE
3nam_OTK_1_ligand
   74    76     1     0     0
SMALL
NO_CHARGES


@<TRIPOS>ATOM
      1 C1         -4.5780    9.4530   84.8220 C.3       1 OTK997      0.0000 
      2 C2         -4.1430    9.0760   83.4020 C.3       1 OTK997      0.0000 
      3 C3         -2.8500    9.8570   83.1430 C.3       1 OTK997      0.0000 
      4 O3         -3.0390   10.9830   82.2760 O.3       1 OTK997      0.0000 
      5 C4         -2.3950   10.3950   84.5020 C.3       1 OTK997      0.0000 
      6 O4         -2.0190    9.6670   80.7820 O.2       1 OTK997      0.0000 
      7 C5         -3.2040    9.5670   85.5000 C.3       1 OTK997      0.0000 
      8 O5         -2.0730    9.5990   87.6930 O.3       1 OTK997      0.0000 
      9 C6         -3.1580   10.1380   86.9180 C.3       1 OTK997      0.0000 
     10 O6         -5.0250    8.6430   87.3520 O.3       1 OTK997      0.0000 
     11 C7         -4.4210    9.8790   87.7440 C.3       1 OTK997      0.0000 
     12 O7         -4.6710   12.2830   87.2490 O.3       1 OTK997      0.0000 
     13 C8         -5.3770   11.0460   87.4570 C.3       1 OTK997      0.0000 
     14 O8         -5.0230   12.7220   89.4300 O.2       1 OTK997      0.0000 
     15 C9         -6.2700   10.7460   86.2460 C.3       1 OTK997      0.0000 
     16 O9         -6.5840   10.2470   83.9340 O.3       1 OTK997      0.0000 
     17 C10        -5.5740   10.6160   84.8820 C.3       1 OTK997      0.0000 
     18 O10        -7.6710   12.1800   84.3300 O.2       1 OTK997      0.0000 
     19 C11        -3.9200    9.7520   89.1910 C.3       1 OTK997      0.0000 
     20 O11        -4.4230   10.8050   90.0150 O.3       1 OTK997      0.0000 
     21 C12        -2.4040    9.8720   88.9870 C.2       1 OTK997      0.0000 
     22 O12        -1.6060   10.2410   89.8430 O.2       1 OTK997      0.0000 
     23 C21        -2.5220   10.7540   81.0280 C.2       1 OTK997      0.0000 
     24 C22        -2.5750   11.8260   79.9540 C.2       1 OTK997      0.0000 
     25 C23        -2.5580   11.4050   78.4970 C.3       1 OTK997      0.0000 
     26 C24        -2.6400   13.2090   80.2620 C.2       1 OTK997      0.0000 
     27 C25        -2.6640   13.7310   81.6840 C.3       1 OTK997      0.0000 
     28 C26        -0.8910   10.1780   84.6920 C.3       1 OTK997      0.0000 
     29 C27        -4.5000   13.0460   88.3650 C.2       1 OTK997      0.0000 
     30 C28        -3.6860   14.3380   88.2540 C.3       1 OTK997      0.0000 
     31 C29        -3.6740   15.1330   89.5630 C.3       1 OTK997      0.0000 
     32 C30        -2.8360   16.4080   89.4350 C.3       1 OTK997      0.0000 
     33 C31        -4.9440   11.9460   84.4530 C.3       1 OTK997      0.0000 
     34 C32        -7.6210   11.1070   83.7310 C.2       1 OTK997      0.0000 
     35 C33        -8.7370   10.7080   82.7660 C.3       1 OTK997      0.0000 
     36 C34        -4.2760    8.3980   89.8100 C.3       1 OTK997      0.0000 
     37 H          -5.0429    8.5306   85.2252 H         1 OTK997      0.0000 
     38 H          -4.8911    9.3798   82.7050 H         1 OTK997      0.0000 
     39 H          -3.9453    8.0289   83.3534 H         1 OTK997      0.0000 
     40 H          -2.1021    9.1867   82.7932 H         1 OTK997      0.0000 
     41 H          -2.6566   11.4039   84.5844 H         1 OTK997      0.0000 
     42 H          -2.7581    8.5624   85.4876 H         1 OTK997      0.0000 
     43 H          -3.0423   11.2276   86.8521 H         1 OTK997      0.0000 
     44 H          -6.0453   11.1403   88.3266 H         1 OTK997      0.0000 
     45 H          -7.0452   11.5430   86.1715 H         1 OTK997      0.0000 
     46 H          -6.8329    9.8052   86.4454 H         1 OTK997      0.0000 
     47 H          -2.6735   13.9150   79.5210 H         1 OTK997      0.0000 
     48 H          -4.1105   14.9615   87.4609 H         1 OTK997      0.0000 
     49 H          -2.6566   14.0898   87.9770 H         1 OTK997      0.0000 
     50 H          -3.2598   14.5101   90.3564 H         1 OTK997      0.0000 
     51 H          -4.6971   15.4017   89.8281 H         1 OTK997      0.0000 
     52 H          -1.7300   10.8932   78.2679 H         1 OTK997      0.0000 
     53 H          -3.3365   10.8196   78.2704 H         1 OTK997      0.0000 
     54 H          -2.5950   12.1929   77.8823 H         1 OTK997      0.0000 
     55 H          -1.8468   13.4604   82.1928 H         1 OTK997      0.0000 
     56 H          -2.7096   14.7296   81.7123 H         1 OTK997      0.0000 
     57 H          -3.4533   13.3870   82.1926 H         1 OTK997      0.0000 
     58 H          -0.3564   10.6458   83.9881 H         1 OTK997      0.0000 
     59 H          -0.5751   10.5213   85.5765 H         1 OTK997      0.0000 
     60 H          -0.6473    9.2091   84.6496 H         1 OTK997      0.0000 
     61 H          -1.8858   16.2057   89.1981 H         1 OTK997      0.0000 
     62 H          -3.1917   17.0165   88.7257 H         1 OTK997      0.0000 
     63 H          -2.8208   16.9296   90.2880 H         1 OTK997      0.0000 
     64 H          -4.1725   12.1972   85.0376 H         1 OTK997      0.0000 
     65 H          -4.6007   11.9087   83.5145 H         1 OTK997      0.0000 
     66 H          -5.6009   12.6988   84.4951 H         1 OTK997      0.0000 
     67 H          -8.3892   10.5462   81.8425 H         1 OTK997      0.0000 
     68 H          -9.1974    9.8693   83.0570 H         1 OTK997      0.0000 
     69 H          -9.4380   11.4176   82.6951 H         1 OTK997      0.0000 
     70 H          -3.8751    7.6385   89.2977 H         1 OTK997      0.0000 
     71 H          -3.9476    8.3222   90.7515 H         1 OTK997      0.0000 
     72 H          -5.2644    8.2478   89.8313 H         1 OTK997      0.0000 
     73 H          -4.2905    8.1230   86.9160 H         1 OTK997      0.0000 
     74 H          -5.3221   11.0233   89.6356 H         1 OTK997      0.0000 
@<TRIPOS>BOND
     1    2    1 1    
     2    7    1 1    
     3   17    1 1    
     4   37    1 1    
     5    3    2 1    
     6   38    2 1    
     7   39    2 1    
     8    4    3 1    
     9    5    3 1    
    10   40    3 1    
    11   23    4 1    
    12    7    5 1    
    13   28    5 1    
    14   41    5 1    
    15   23    6 2    
    16    9    7 1    
    17   42    7 1    
    18    9    8 1    
    19   21    8 1    
    20   11    9 1    
    21   43    9 1    
    22   11   10 1    
    23   73   10 1    
    24   13   11 1    
    25   19   11 1    
    26   13   12 1    
    27   29   12 1    
    28   15   13 1    
    29   44   13 1    
    30   29   14 2    
    31   17   15 1    
    32   45   15 1    
    33   46   15 1    
    34   17   16 1    
    35   34   16 1    
    36   33   17 1    
    37   34   18 2    
    38   20   19 1    
    39   21   19 1    
    40   36   19 1    
    41   74   20 1    
    42   22   21 2    
    43   24   23 1    
    44   25   24 1    
    45   26   24 2    
    46   52   25 1    
    47   53   25 1    
    48   54   25 1    
    49   27   26 1    
    50   47   26 1    
    51   55   27 1    
    52   56   27 1    
    53   57   27 1    
    54   58   28 1    
    55   59   28 1    
    56   60   28 1    
    57   30   29 1    
    58   31   30 1    
    59   48   30 1    
    60   49   30 1    
    61   32   31 1    
    62   50   31 1    
    63   51   31 1    
    64   61   32 1    
    65   62   32 1    
    66   63   32 1    
    67   64   33 1    
    68   65   33 1    
    69   66   33 1    
    70   35   34 1    
    71   67   35 1    
    72   68   35 1    
    73   69   35 1    
    74   70   36 1    
    75   71   36 1    
    76   72   36 1    
@<TRIPOS>SUBSTRUCTURE
     1 OTK997      1 GROUP   
@<TRIPOS>SET

