#    Name: 4dce_0JF_1_INTS_M
#    Modification time : Mon Apr  7 22:31:56 2014

@<TRIPOS>MOLECULE
4dce_0JF_1_INTS_M
   90     0     9     0     0
SMALL
NO_CHARGES


@<TRIPOS>ATOM
      1 CA          9.4775   23.8275   37.2055 C.3       3 GLC5        0.0000 
      2 CA          8.9520   22.8190   35.3160 C.3       9 GLL5        0.0000 
      3 CA         10.0030   24.8360   39.0950 C.3       6 GLP5        0.0000 
      4 CA         10.8305   18.4940   34.9835 C.3       3 GLC5        0.0000 
      5 CA         12.2860   19.9240   35.0050 C.3       9 GLL5        0.0000 
      6 CA          9.3750   17.0640   34.9620 C.3       6 GLP5        0.0000 
      7 CA         10.5580   20.2520   39.5575 C.3       3 GLC5        0.0000 
      8 CA          9.7370   18.8850   38.2110 C.3       9 GLL5        0.0000 
      9 CA         11.3790   21.6190   40.9040 C.3       6 GLP5        0.0000 
     10 O          10.9900   17.2670   38.5870 O.2       1 ALC1        0.0000 
     11 O          10.1260   18.0740   39.2170 O.2       7 ALL1        0.0000 
     12 O          11.8540   16.4600   37.9570 O.2       4 ALP1        0.0000 
     13 CA         10.4485   19.7355   40.6460 C.3       3 GLC5        0.0000 
     14 CA          9.5180   17.8520   40.3880 C.3       9 GLL5        0.0000 
     15 CA         10.1580   16.0175   39.9005 C.3       3 GLC5        0.0000 
     16 CA         10.7980   14.1830   39.4130 C.3       6 GLP5        0.0000 
     17 CA          8.2185   16.4335   40.3885 C.3       3 GLC5        0.0000 
     18 CA          6.9190   15.0150   40.3890 C.3       6 GLP5        0.0000 
     19 N          11.3040   16.1605   40.9980 N.am      2 SEC2        0.0000 
     20 N          10.0820   16.9970   41.2680 N.am      8 SEL2        0.0000 
     21 N          12.5260   15.3240   40.7280 N.am      5 SEP2        0.0000 
     22 CA         11.6075   16.2560   42.6130 C.3       3 GLC5        0.0000 
     23 CA          9.5190   16.7260   42.4390 C.3       9 GLL5        0.0000 
     24 CA         13.6960   15.7860   42.7870 C.3       6 GLP5        0.0000 
     25 CA          9.9530   15.0205   41.5240 C.3       3 GLC5        0.0000 
     26 CA         10.3870   13.3150   40.6090 C.3       6 GLP5        0.0000 
     27 CA          7.7015   17.2140   44.7315 C.3       3 GLC5        0.0000 
     28 CA          8.3260   17.3460   42.7860 C.3       9 GLL5        0.0000 
     29 CA          7.0770   17.0820   46.6770 C.3       6 GLP5        0.0000 
     30 CA          8.0535   20.1025   42.6395 C.3       3 GLC5        0.0000 
     31 CA          7.7610   18.2350   41.8740 C.3       9 GLL5        0.0000 
     32 CA          8.3460   21.9700   43.4050 C.3       6 GLP5        0.0000 
     33 CA          5.9150   20.6475   43.5285 C.3       3 GLC5        0.0000 
     34 CA          5.8990   18.6890   43.4560 C.3       9 GLL5        0.0000 
     35 CA          5.9310   22.6060   43.6010 C.3       6 GLP5        0.0000 
     36 CA          5.8800   21.1450   42.3725 C.3       3 GLC5        0.0000 
     37 CA          5.8290   19.6840   41.1440 C.3       9 GLL5        0.0000 
     38 CA          2.4010   16.9435   41.8380 C.3       3 GLC5        0.0000 
     39 CA          3.7670   18.5090   42.1330 C.3       9 GLL5        0.0000 
     40 CA          1.0350   15.3780   41.5430 C.3       6 GLP5        0.0000 
     41 N           2.5155   18.9665   46.0170 N.am      2 SEC2        0.0000 
     42 N           3.5330   18.5180   45.1350 N.am      8 SEL2        0.0000 
     43 N           1.4980   19.4150   46.8990 N.am      5 SEP2        0.0000 
     44 O           3.8885   15.4105   43.7490 O.2       1 ALC1        0.0000 
     45 O           3.8510   16.2840   44.8220 O.2       7 ALL1        0.0000 
     46 O           3.9260   14.5370   42.6760 O.2       4 ALP1        0.0000 
     47 CA          5.1355   16.4720   46.3735 C.3       3 GLC5        0.0000 
     48 CA          3.1940   15.8620   46.0700 C.3       9 GLL5        0.0000 
     49 CA          2.3725    8.9955   47.3745 C.3       3 GLC5        0.0000 
     50 CA          2.4250   10.0930   45.8450 C.3       9 GLL5        0.0000 
     51 CA          2.3200    7.8980   48.9040 C.3       6 GLP5        0.0000 
     52 CA          3.5450    8.6595   45.8495 C.3       3 GLC5        0.0000 
     53 CA          4.6650    7.2260   45.8540 C.3       6 GLP5        0.0000 
     54 CA          1.8170    9.4270   43.9015 C.3       3 GLC5        0.0000 
     55 CA          1.2090    8.7610   41.9580 C.3       6 GLP5        0.0000 
     56 CA          0.6070   10.6600   46.9200 C.3       3 GLC5        0.0000 
     57 CA         -1.2110   11.2270   47.9950 C.3       6 GLP5        0.0000 
     58 CA          4.4700   11.9520   47.7165 C.3       3 GLC5        0.0000 
     59 CA          3.9140   12.1350   45.9830 C.3       9 GLL5        0.0000 
     60 CA          5.0260   11.7690   49.4500 C.3       6 GLP5        0.0000 
     61 CA          5.7460   14.3875   47.2170 C.3       3 GLC5        0.0000 
     62 CA          4.1060   13.5130   46.0400 C.3       9 GLL5        0.0000 
     63 CA          7.3860   15.2620   48.3940 C.3       6 GLP5        0.0000 
     64 CA          8.8110   18.3165   36.1460 C.3       3 GLC5        0.0000 
     65 CA          8.4030   19.1410   37.8670 C.3       9 GLL5        0.0000 
     66 CA          9.5847   18.7575   35.5925 C.3       3 GLC5        0.0000 
     67 CA          9.1290   20.5870   36.0580 C.3       9 GLL5        0.0000 
     68 CA         11.5420   21.3400   37.9543 C.3       3 GLC5        0.0000 
     69 CA         10.4600   20.3150   36.3880 C.3       9 GLL5        0.0000 
     70 CA         12.4790   22.7840   38.9830 C.3       6 GLP5        0.0000 
     71 CA          9.8093   18.1225   36.3995 C.3       3 GLC5        0.0000 
     72 CA         10.7500   19.4770   37.4630 C.3       9 GLL5        0.0000 
     73 CA          9.8054   18.2658   43.3441 C.3       3 GLC5        0.0000 
     74 CA         11.2690   18.8960   44.4450 C.3       6 GLP5        0.0000 
     75 CA          7.6304   16.3253   41.3161 C.3       3 GLC5        0.0000 
     76 CA          6.1832   17.6660   44.9933 C.3       3 GLC5        0.0000 
     77 CA          2.1128   14.7027   44.3362 C.3       3 GLC5        0.0000 
     78 CA          3.0010   14.3550   46.0190 C.3       9 GLL5        0.0000 
     79 CA          1.1280   14.2970   42.6280 C.3       6 GLP5        0.0000 
     80 CA          2.3990   12.3790   47.7940 C.3       3 GLC5        0.0000 
     81 CA          1.5250   12.4520   45.8880 C.3       9 GLL5        0.0000 
     82 CA          2.7210   12.7290   49.6910 C.3       6 GLP5        0.0000 
     83 CA          1.6255   13.3359   44.2696 C.3       3 GLC5        0.0000 
     84 CA          2.6290   11.6060   45.9060 C.3       9 GLL5        0.0000 
     85 CA          5.6495   12.6110   45.2777 C.3       3 GLC5        0.0000 
     86 CA          7.2890   12.3980   44.5440 C.3       6 GLP5        0.0000 
     87 CA          3.0873   14.1067   47.7477 C.3       3 GLC5        0.0000 
     88 CA          2.9200   14.2210   49.4780 C.3       6 GLP5        0.0000 
     89 CA          3.9964   12.4834   44.0276 C.3       3 GLC5        0.0000 
     90 CA          4.3040   12.2750   42.0630 C.3       6 GLP5        0.0000 
@<TRIPOS>BOND
@<TRIPOS>SUBSTRUCTURE
     1 ALC1       10 GROUP        1 X    ALC  0     ROOT ALC X 1
     2 SEC2       19 GROUP        1 X    SEC  0     **** SEC X 2
     3 GLC5        1 GROUP        1 X    GLC  0     **** GLC X 6
     4 ALP1       12 GROUP        1 Y    ALP  0     ROOT ALP Y 8
     5 SEP2       21 GROUP        1 Y    SEP  0     **** SEP Y 9
     6 GLP5        3 GROUP        1 Y    GLP  0     **** GLP Y 13
     7 ALL1       11 GROUP        1 Z    ALL  0     ROOT ALL Z 15
     8 SEL2       20 GROUP        1 Z    SEL  0     **** SEL Z 16
     9 GLL5        2 GROUP        1 Z    GLL  0     **** GLL Z 20
@<TRIPOS>SET

