#    Name: 4dce_0JF_1_ligand
#    Modification time : Mon Apr  7 22:31:56 2014

@<TRIPOS>MOLECULE
4dce_0JF_1_ligand
   69    72     1     0     0
SMALL
NO_CHARGES


@<TRIPOS>ATOM
      1 C24         5.7780   20.0630   37.4190 C.3       1 0JF1501     0.0000 
      2 O2          6.7920   20.2780   36.4240 O.3       1 0JF1501     0.0000 
      3 C5          8.0910   19.9970   36.7930 C.ar      1 0JF1501     0.0000 
      4 C6          8.4030   19.1410   37.8670 C.ar      1 0JF1501     0.0000 
      5 C4          9.1290   20.5870   36.0580 C.ar      1 0JF1501     0.0000 
      6 O3          8.8370   21.4130   35.0050 O.3       1 0JF1501     0.0000 
      7 C25         8.9520   22.8190   35.3160 C.3       1 0JF1501     0.0000 
      8 C3         10.4600   20.3150   36.3880 C.ar      1 0JF1501     0.0000 
      9 O4         11.4790   20.8840   35.6780 O.3       1 0JF1501     0.0000 
     10 C26        12.2860   19.9240   35.0050 C.3       1 0JF1501     0.0000 
     11 C2         10.7500   19.4770   37.4630 C.ar      1 0JF1501     0.0000 
     12 C1          9.7370   18.8850   38.2110 C.ar      1 0JF1501     0.0000 
     13 N5         10.1260   18.0740   39.2170 N.pl3     1 0JF1501     0.0000 
     14 C16         9.5180   17.8520   40.3880 C.ar      1 0JF1501     0.0000 
     15 N2          8.3640   18.4550   40.6980 N.ar      1 0JF1501     0.0000 
     16 N1         10.0820   16.9970   41.2680 N.ar      1 0JF1501     0.0000 
     17 C15         9.5190   16.7260   42.4390 C.ar      1 0JF1501     0.0000 
     18 C14         8.3260   17.3460   42.7860 C.ar      1 0JF1501     0.0000 
     19 C13         7.7610   18.2350   41.8740 C.ar      1 0JF1501     0.0000 
     20 N3          6.5550   18.8740   42.1530 N.3       1 0JF1501     0.0000 
     21 C19         5.8990   18.6890   43.4560 C.3       1 0JF1501     0.0000 
     22 C18         5.8290   19.6840   41.1440 C.3       1 0JF1501     0.0000 
     23 C17         4.5050   18.9450   40.8470 C.3       1 0JF1501     0.0000 
     24 C21         3.7670   18.5090   42.1330 C.3       1 0JF1501     0.0000 
     25 C20         4.6800   17.8110   43.1630 C.3       1 0JF1501     0.0000 
     26 C22         3.9550   17.5690   44.4730 C.2       1 0JF1501     0.0000 
     27 O1          3.5330   18.5180   45.1350 O.2       1 0JF1501     0.0000 
     28 N4          3.8510   16.2840   44.8220 N.am      1 0JF1501     0.0000 
     29 C23         3.1940   15.8620   46.0700 C.3       1 0JF1501     0.0000 
     30 C7          3.0010   14.3550   46.0190 C.ar      1 0JF1501     0.0000 
     31 C8          1.7090   13.8350   45.9450 C.ar      1 0JF1501     0.0000 
     32 C9          1.5250   12.4520   45.8880 C.ar      1 0JF1501     0.0000 
     33 C10         2.6290   11.6060   45.9060 C.ar      1 0JF1501     0.0000 
     34 C27         2.4250   10.0930   45.8450 C.3       1 0JF1501     0.0000 
     35 C11         3.9140   12.1350   45.9830 C.ar      1 0JF1501     0.0000 
     36 C12         4.1060   13.5130   46.0400 C.ar      1 0JF1501     0.0000 
     37 H           7.6429   18.7015   38.4015 H         1 0JF1501     0.0000 
     38 H          11.7396   19.2917   37.7094 H         1 0JF1501     0.0000 
     39 H          11.0667   17.5254   39.0482 H         1 0JF1501     0.0000 
     40 H           9.9451   16.0600   43.1096 H         1 0JF1501     0.0000 
     41 H           7.8775   17.1588   43.6763 H         1 0JF1501     0.0000 
     42 H           5.5624   19.6235   43.8571 H         1 0JF1501     0.0000 
     43 H           6.5388   18.1726   44.1427 H         1 0JF1501     0.0000 
     44 H           6.3918   19.7558   40.2304 H         1 0JF1501     0.0000 
     45 H           5.5955   20.6604   41.5296 H         1 0JF1501     0.0000 
     46 H           4.7203   18.0596   40.2442 H         1 0JF1501     0.0000 
     47 H           3.8524   19.6043   40.2699 H         1 0JF1501     0.0000 
     48 H           2.9532   17.8258   41.8593 H         1 0JF1501     0.0000 
     49 H           3.3169   19.3941   42.5997 H         1 0JF1501     0.0000 
     50 H           5.0171   16.8792   42.7623 H         1 0JF1501     0.0000 
     51 H           4.2276   15.5133   44.2324 H         1 0JF1501     0.0000 
     52 H           2.2232   16.3357   46.1725 H         1 0JF1501     0.0000 
     53 H           3.8087   16.1070   46.9299 H         1 0JF1501     0.0000 
     54 H           0.9004   14.4625   45.9325 H         1 0JF1501     0.0000 
     55 H           0.5771   12.0632   45.8330 H         1 0JF1501     0.0000 
     56 H           4.7282   11.5036   45.9979 H         1 0JF1501     0.0000 
     57 H           5.0516   13.9001   46.0967 H         1 0JF1501     0.0000 
     58 H           5.7476   19.1093   37.7183 H         1 0JF1501     0.0000 
     59 H           5.9332   20.6212   38.2341 H         1 0JF1501     0.0000 
     60 H           4.8669   20.2918   37.0762 H         1 0JF1501     0.0000 
     61 H           9.8781   23.0608   35.6055 H         1 0JF1501     0.0000 
     62 H           8.7322   23.3930   34.5272 H         1 0JF1501     0.0000 
     63 H           8.3344   23.0876   36.0552 H         1 0JF1501     0.0000 
     64 H          13.0290   20.3562   34.4940 H         1 0JF1501     0.0000 
     65 H          12.7059   19.2788   35.6433 H         1 0JF1501     0.0000 
     66 H          11.7549   19.3855   34.3509 H         1 0JF1501     0.0000 
     67 H           3.2949    9.6000   45.8615 H         1 0JF1501     0.0000 
     68 H           1.8845    9.7597   46.6175 H         1 0JF1501     0.0000 
     69 H           1.9469    9.8160   45.0115 H         1 0JF1501     0.0000 
@<TRIPOS>BOND
     1    2    1 1    
     2   58    1 1    
     3   59    1 1    
     4   60    1 1    
     5    3    2 1    
     6    4    3 ar   
     7    5    3 ar   
     8   12    4 ar   
     9   37    4 1    
    10    6    5 1    
    11    8    5 ar   
    12    7    6 1    
    13   61    7 1    
    14   62    7 1    
    15   63    7 1    
    16    9    8 1    
    17   11    8 ar   
    18   10    9 1    
    19   64   10 1    
    20   65   10 1    
    21   66   10 1    
    22   12   11 ar   
    23   38   11 1    
    24   13   12 1    
    25   14   13 1    
    26   39   13 1    
    27   15   14 ar   
    28   16   14 ar   
    29   19   15 ar   
    30   17   16 ar   
    31   18   17 ar   
    32   40   17 1    
    33   19   18 ar   
    34   41   18 1    
    35   20   19 1    
    36   21   20 1    
    37   22   20 1    
    38   25   21 1    
    39   42   21 1    
    40   43   21 1    
    41   23   22 1    
    42   44   22 1    
    43   45   22 1    
    44   24   23 1    
    45   46   23 1    
    46   47   23 1    
    47   25   24 1    
    48   48   24 1    
    49   49   24 1    
    50   26   25 1    
    51   50   25 1    
    52   27   26 2    
    53   28   26 am   
    54   29   28 1    
    55   51   28 1    
    56   30   29 1    
    57   52   29 1    
    58   53   29 1    
    59   31   30 ar   
    60   36   30 ar   
    61   32   31 ar   
    62   54   31 1    
    63   33   32 ar   
    64   55   32 1    
    65   34   33 1    
    66   35   33 ar   
    67   67   34 1    
    68   68   34 1    
    69   69   34 1    
    70   36   35 ar   
    71   56   35 1    
    72   57   36 1    
@<TRIPOS>SUBSTRUCTURE
     1 0JF1501     1 GROUP   
@<TRIPOS>SET

