#    Name: 1tae_NAD_2_INTS_M
#    Modification time : Tue Mar 25 04:40:03 2014

@<TRIPOS>MOLECULE
1tae_NAD_2_INTS_M
   87     0    12     0     0
SMALL
NO_CHARGES


@<TRIPOS>ATOM
      1 NZ        -49.3930   60.9990   53.2370 N.4       3 LYC4        0.0000 
      2 NZ        -50.8460   60.8840   53.8770 N.4      11 LYL4        0.0000 
      3 NZ        -47.9400   61.1140   52.5970 N.4       7 LYP4        0.0000 
      4 N         -49.3930   60.9990   53.2370 N.am      2 SEC2        0.0000 
      5 N         -50.8460   60.8840   53.8770 N.am     10 SEL2        0.0000 
      6 N         -47.9400   61.1140   52.5970 N.am      6 SEP2        0.0000 
      7 N         -52.4640   63.5085   54.1035 N.am      2 SEC2        0.0000 
      8 N         -51.2620   63.2220   54.9040 N.am     10 SEL2        0.0000 
      9 N         -53.6660   63.7950   53.3030 N.am      6 SEP2        0.0000 
     10 N         -48.7230   61.3980   54.1225 N.am      2 SEC2        0.0000 
     11 N         -49.5060   61.6820   55.6480 N.am     10 SEL2        0.0000 
     12 N         -47.1185   61.0795   53.9515 N.am      2 SEC2        0.0000 
     13 N         -46.2970   61.0450   55.3060 N.am     10 SEL2        0.0000 
     14 O         -43.7790   58.9735   56.6690 O.2       1 ALC1        0.0000 
     15 O         -44.8810   59.3270   57.5970 O.2       9 ALL1        0.0000 
     16 O         -42.6770   58.6200   55.7410 O.2       5 ALP1        0.0000 
     17 CA        -46.3935   61.6655   54.2295 C.3       4 GLC5        0.0000 
     18 CA        -44.9640   60.7610   55.6540 C.3      12 GLL5        0.0000 
     19 CA        -47.8230   62.5700   52.8050 C.3       8 GLP5        0.0000 
     20 CA        -41.6805   66.4425   55.6800 C.3       4 GLC5        0.0000 
     21 CA        -41.6960   64.4430   54.6670 C.3      12 GLL5        0.0000 
     22 CA        -41.6650   68.4420   56.6930 C.3       8 GLP5        0.0000 
     23 O         -39.7755   65.9850   54.3605 O.2       1 ALC1        0.0000 
     24 O         -40.7910   64.9030   53.8800 O.2       9 ALL1        0.0000 
     25 O         -38.7600   67.0670   54.8410 O.2       5 ALP1        0.0000 
     26 O         -40.7840   64.6675   52.4460 O.2       1 ALC1        0.0000 
     27 O         -40.7770   64.4320   51.0120 O.2       5 ALP1        0.0000 
     28 N         -41.3030   66.3450   56.4370 N.am      2 SEC2        0.0000 
     29 N         -42.0570   65.1620   55.8170 N.am     10 SEL2        0.0000 
     30 N         -40.5490   67.5280   57.0570 N.am      6 SEP2        0.0000 
     31 CA        -45.0685   65.0505   56.5595 C.3       4 GLC5        0.0000 
     32 CA        -43.0350   64.7280   56.7230 C.3      12 GLL5        0.0000 
     33 CA        -47.1020   65.3730   56.3960 C.3       8 GLP5        0.0000 
     34 CA        -43.8315   66.3550   55.7745 C.3       4 GLC5        0.0000 
     35 CA        -44.6280   67.9820   54.8260 C.3       8 GLP5        0.0000 
     36 CA        -42.3500   66.5850   56.7080 C.3       4 GLC5        0.0000 
     37 CA        -44.4875   62.8350   53.5455 C.3       4 GLC5        0.0000 
     38 CA        -43.3810   62.8480   55.4450 C.3      12 GLL5        0.0000 
     39 CA        -45.5940   62.8220   51.6460 C.3       8 GLP5        0.0000 
     40 NZ        -50.6560   58.6045   59.1900 N.4       3 LYC4        0.0000 
     41 NZ        -51.1040   59.8920   58.3560 N.4      11 LYL4        0.0000 
     42 NZ        -49.3050   57.9780   60.7310 N.4       7 LYP4        0.0000 
     43 N         -51.6305   61.0195   58.8030 N.am      2 SEC2        0.0000 
     44 N         -51.1040   59.8920   58.3560 N.am     10 SEL2        0.0000 
     45 N         -52.1570   62.1470   59.2500 N.am      6 SEP2        0.0000 
     46 N         -50.6560   58.6045   59.1900 N.am      2 SEC2        0.0000 
     47 N         -50.2080   57.3170   60.0240 N.am      6 SEP2        0.0000 
     48 N         -50.0855   59.5725   59.4025 N.am      2 SEC2        0.0000 
     49 N         -49.0670   59.2530   60.4490 N.am      6 SEP2        0.0000 
     50 CA        -52.8825   60.4710   52.0670 C.3       4 GLC5        0.0000 
     51 CA        -53.5760   58.8900   53.0490 C.3      12 GLL5        0.0000 
     52 CA        -52.1890   62.0520   51.0850 C.3       8 GLP5        0.0000 
     53 N         -53.1075   60.3405   51.3115 N.am      2 SEC2        0.0000 
     54 N         -52.6670   59.1140   51.9620 N.am     10 SEL2        0.0000 
     55 N         -53.5480   61.5670   50.6610 N.am      6 SEP2        0.0000 
     56 CA        -56.5015   57.5300   53.2230 C.3       4 GLC5        0.0000 
     57 CA        -54.5390   57.7710   52.7890 C.3      12 GLL5        0.0000 
     58 CA        -58.4640   57.2890   53.6570 C.3       8 GLP5        0.0000 
     59 O         -55.9215   58.7290   51.4285 O.2       1 ALC1        0.0000 
     60 O         -54.9130   57.6280   51.4240 O.2       9 ALL1        0.0000 
     61 O         -56.9300   59.8300   51.4330 O.2       5 ALP1        0.0000 
     62 CA        -52.8380   54.9185   53.4370 C.3       4 GLC5        0.0000 
     63 CA        -53.8600   56.5570   53.3360 C.3      12 GLL5        0.0000 
     64 CA        -51.8160   53.2800   53.5380 C.3       8 GLP5        0.0000 
     65 O         -57.2175   51.7985   49.9420 O.2       1 ALC1        0.0000 
     66 O         -56.6150   52.6610   51.1730 O.2       9 ALL1        0.0000 
     67 O         -57.8200   50.9360   48.7110 O.2       5 ALP1        0.0000 
     68 O         -55.4770   53.3890   50.6295 O.2       1 ALC1        0.0000 
     69 O         -54.3390   54.1170   50.0860 O.2       5 ALP1        0.0000 
     70 CA        -47.7725   62.1187   54.5410 C.3       4 GLC5        0.0000 
     71 CA        -48.2320   62.2020   56.1090 C.3      12 GLL5        0.0000 
     72 CA        -47.0547   63.4451   56.6740 C.3       4 GLC5        0.0000 
     73 CA        -47.2120   61.1330   56.4450 C.3      12 GLL5        0.0000 
     74 CA        -42.6867   63.5998   52.6230 C.3       4 GLC5        0.0000 
     75 CA        -42.4210   63.1940   54.4810 C.3      12 GLL5        0.0000 
     76 CA        -43.3150   63.3810   50.6720 C.3       8 GLP5        0.0000 
     77 CA        -43.6579   64.7106   54.0928 C.3       4 GLC5        0.0000 
     78 CA        -44.5960   66.0880   53.1760 C.3       8 GLP5        0.0000 
     79 CA        -57.5632   54.9705   52.4715 C.3       4 GLC5        0.0000 
     80 CA        -55.4050   54.6010   52.9310 C.3      12 GLL5        0.0000 
     81 CA        -59.2550   55.7960   51.7680 C.3       8 GLP5        0.0000 
     82 CA        -57.1990   53.0710   56.7377 C.3       4 GLC5        0.0000 
     83 CA        -56.7380   53.6910   54.8480 C.3      12 GLL5        0.0000 
     84 CA        -57.9550   51.9680   58.1860 C.3       8 GLP5        0.0000 
     85 CA        -55.5895   52.4882   55.1456 C.3       4 GLC5        0.0000 
     86 CA        -56.1480   54.6570   55.7310 C.3      12 GLL5        0.0000 
     87 CA        -54.8360   50.8030   55.3590 C.3       8 GLP5        0.0000 
@<TRIPOS>BOND
@<TRIPOS>SUBSTRUCTURE
     1 ALC1       14 GROUP        1 X    ALC  0     ROOT ALC X 1
     2 SEC2        4 GROUP        1 X    SEC  0     **** SEC X 2
     3 LYC4        1 GROUP        1 X    LYC  0     **** LYC X 4
     4 GLC5       17 GROUP        1 X    GLC  0     **** GLC X 6
     5 ALP1       16 GROUP        1 Y    ALP  0     ROOT ALP Y 8
     6 SEP2        6 GROUP        1 Y    SEP  0     **** SEP Y 9
     7 LYP4        3 GROUP        1 Y    LYP  0     **** LYP Y 11
     8 GLP5       19 GROUP        1 Y    GLP  0     **** GLP Y 13
     9 ALL1       15 GROUP        1 Z    ALL  0     ROOT ALL Z 15
    10 SEL2        5 GROUP        1 Z    SEL  0     **** SEL Z 16
    11 LYL4        2 GROUP        1 Z    LYL  0     **** LYL Z 18
    12 GLL5       18 GROUP        1 Z    GLL  0     **** GLL Z 20
@<TRIPOS>SET

