#    Name: 1tae_NAD_2_ligand
#    Modification time : Tue Mar 25 04:40:03 2014

@<TRIPOS>MOLECULE
1tae_NAD_2_ligand
   70    74     1     0     0
SMALL
NO_CHARGES


@<TRIPOS>ATOM
      1 PA        -50.8100   61.8530   55.1560 P.3       1 NAD402      0.0000 
      2 O1A       -50.8460   60.8840   53.8770 O.co2     1 NAD402      0.0000 
      3 O2A       -51.2620   63.2220   54.9040 O.co2     1 NAD402      0.0000 
      4 O5B       -49.5060   61.6820   55.6480 O.3       1 NAD402      0.0000 
      5 C5B       -48.2320   62.2020   56.1090 C.3       1 NAD402      0.0000 
      6 C4B       -47.2120   61.1330   56.4450 C.3       1 NAD402      0.0000 
      7 O4B       -46.2970   61.0450   55.3060 O.3       1 NAD402      0.0000 
      8 C3B       -46.2930   61.3670   57.6270 C.3       1 NAD402      0.0000 
      9 O3B       -46.9490   60.7880   58.7780 O.3       1 NAD402      0.0000 
     10 C2B       -44.9990   60.6850   57.1770 C.3       1 NAD402      0.0000 
     11 O2B       -44.8810   59.3270   57.5970 O.3       1 NAD402      0.0000 
     12 C1B       -44.9640   60.7610   55.6540 C.3       1 NAD402      0.0000 
     13 N9A       -43.8920   61.6530   55.0270 N.pl3     1 NAD402      0.0000 
     14 C8A       -43.2440   61.3520   53.8840 C.2       1 NAD402      0.0000 
     15 N7A       -42.3420   62.2610   53.5160 N.2       1 NAD402      0.0000 
     16 C5A       -42.4210   63.1940   54.4810 C.ar      1 NAD402      0.0000 
     17 C6A       -41.6960   64.4430   54.6670 C.ar      1 NAD402      0.0000 
     18 N6A       -40.7910   64.9030   53.8800 N.pl3     1 NAD402      0.0000 
     19 N1A       -42.0570   65.1620   55.8170 N.ar      1 NAD402      0.0000 
     20 C2A       -43.0350   64.7280   56.7230 C.ar      1 NAD402      0.0000 
     21 N3A       -43.7120   63.5690   56.5570 N.ar      1 NAD402      0.0000 
     22 C4A       -43.3810   62.8480   55.4450 C.ar      1 NAD402      0.0000 
     23 O3        -51.6440   61.0530   56.2440 O.3       1 NAD402      0.0000 
     24 PN        -51.2600   59.6290   56.7880 P.3       1 NAD402      0.0000 
     25 O1N       -51.1040   59.8920   58.3560 O.co2     1 NAD402      0.0000 
     26 O2N       -50.0430   58.9350   56.1880 O.co2     1 NAD402      0.0000 
     27 O5D       -52.5930   58.6970   56.7780 O.3       1 NAD402      0.0000 
     28 C5D       -53.2940   59.1740   55.6180 C.3       1 NAD402      0.0000 
     29 C4D       -52.8300   58.4490   54.3580 C.3       1 NAD402      0.0000 
     30 O4D       -53.0390   57.0170   54.4660 O.3       1 NAD402      0.0000 
     31 C3D       -53.5760   58.8900   53.0490 C.3       1 NAD402      0.0000 
     32 O3D       -52.6670   59.1140   51.9620 O.3       1 NAD402      0.0000 
     33 C2D       -54.5390   57.7710   52.7890 C.3       1 NAD402      0.0000 
     34 O2D       -54.9130   57.6280   51.4240 O.3       1 NAD402      0.0000 
     35 C1D       -53.8600   56.5570   53.3360 C.3       1 NAD402      0.0000 
     36 N1N       -54.8440   55.5480   53.8390 N.pl3     1 NAD402      0.0000 
     37 C2N       -55.4050   54.6010   52.9310 C.ar      1 NAD402      0.0000 
     38 C3N       -56.3380   53.6890   53.4190 C.ar      1 NAD402      0.0000 
     39 C7N       -56.9480   52.6860   52.4480 C.2       1 NAD402      0.0000 
     40 O7N       -57.7530   51.9280   52.9160 O.2       1 NAD402      0.0000 
     41 N7N       -56.6150   52.6610   51.1730 N.am      1 NAD402      0.0000 
     42 C4N       -56.7380   53.6910   54.8480 C.ar      1 NAD402      0.0000 
     43 C5N       -56.1480   54.6570   55.7310 C.ar      1 NAD402      0.0000 
     44 C6N       -55.1950   55.6040   55.2510 C.ar      1 NAD402      0.0000 
     45 H         -48.3743   62.8361   57.0126 H         1 NAD402      0.0000 
     46 H         -47.7850   62.8733   55.3419 H         1 NAD402      0.0000 
     47 H         -47.6966   60.1777   56.5545 H         1 NAD402      0.0000 
     48 H         -46.1349   62.4076   57.7055 H         1 NAD402      0.0000 
     49 H         -44.1678   61.2909   57.5373 H         1 NAD402      0.0000 
     50 H         -44.7498   59.6969   55.3265 H         1 NAD402      0.0000 
     51 H         -43.4306   60.5136   53.3613 H         1 NAD402      0.0000 
     52 H         -40.8574   64.6237   52.9221 H         1 NAD402      0.0000 
     53 H         -40.1045   65.4975   54.2987 H         1 NAD402      0.0000 
     54 H         -43.2335   65.3390   57.5527 H         1 NAD402      0.0000 
     55 H         -53.1305   60.2520   55.4655 H         1 NAD402      0.0000 
     56 H         -54.3800   59.0204   55.7141 H         1 NAD402      0.0000 
     57 H         -51.7740   58.6475   54.1947 H         1 NAD402      0.0000 
     58 H         -54.1409   59.7698   53.3118 H         1 NAD402      0.0000 
     59 H         -55.4162   57.9536   53.4288 H         1 NAD402      0.0000 
     60 H         -53.2346   56.1259   52.5894 H         1 NAD402      0.0000 
     61 H         -55.1223   54.6046   51.9611 H         1 NAD402      0.0000 
     62 H         -55.9116   53.3126   50.8891 H         1 NAD402      0.0000 
     63 H         -57.0961   51.9927   50.6056 H         1 NAD402      0.0000 
     64 H         -57.4065   53.0242   55.1680 H         1 NAD402      0.0000 
     65 H         -56.4169   54.6633   56.7165 H         1 NAD402      0.0000 
     66 H         -54.7788   56.2814   55.8466 H         1 NAD402      0.0000 
     67 H         -47.1379   59.8408   58.5188 H         1 NAD402      0.0000 
     68 H         -44.1690   58.9366   57.0133 H         1 NAD402      0.0000 
     69 H         -51.9670   59.7249   52.3319 H         1 NAD402      0.0000 
     70 H         -55.6386   58.3015   51.2827 H         1 NAD402      0.0000 
@<TRIPOS>BOND
     1    2    1 ar   
     2    3    1 ar   
     3    4    1 1    
     4   23    1 1    
     5    5    4 1    
     6    6    5 1    
     7   45    5 1    
     8   46    5 1    
     9    7    6 1    
    10    8    6 1    
    11   47    6 1    
    12   12    7 1    
    13    9    8 1    
    14   10    8 1    
    15   48    8 1    
    16   67    9 1    
    17   11   10 1    
    18   12   10 1    
    19   49   10 1    
    20   68   11 1    
    21   13   12 1    
    22   50   12 1    
    23   14   13 1    
    24   22   13 1    
    25   15   14 2    
    26   51   14 1    
    27   16   15 1    
    28   17   16 ar   
    29   22   16 ar   
    30   18   17 1    
    31   19   17 ar   
    32   52   18 1    
    33   53   18 1    
    34   20   19 ar   
    35   21   20 ar   
    36   54   20 1    
    37   22   21 ar   
    38   24   23 1    
    39   25   24 ar   
    40   26   24 ar   
    41   27   24 1    
    42   28   27 1    
    43   29   28 1    
    44   55   28 1    
    45   56   28 1    
    46   30   29 1    
    47   31   29 1    
    48   57   29 1    
    49   35   30 1    
    50   32   31 1    
    51   33   31 1    
    52   58   31 1    
    53   69   32 1    
    54   34   33 1    
    55   35   33 1    
    56   59   33 1    
    57   70   34 1    
    58   36   35 1    
    59   60   35 1    
    60   37   36 ar   
    61   44   36 ar   
    62   38   37 ar   
    63   61   37 1    
    64   39   38 1    
    65   42   38 ar   
    66   40   39 2    
    67   41   39 am   
    68   62   41 1    
    69   63   41 1    
    70   43   42 ar   
    71   64   42 1    
    72   44   43 ar   
    73   65   43 1    
    74   66   44 1    
@<TRIPOS>SUBSTRUCTURE
     1 NAD402      1 GROUP   
@<TRIPOS>SET

