#    Name: 1bh5_GTX_3_INTS_M
#    Modification time : Mon Mar 24 19:33:47 2014

@<TRIPOS>MOLECULE
1bh5_GTX_3_INTS_M
   78     0    12     0     0
SMALL
NO_CHARGES


@<TRIPOS>ATOM
      1 O          33.9140   -5.5465  125.7775 O.2       1 ALC1        0.0000 
      2 O          32.7780   -5.9230  125.3000 O.2       9 ALL1        0.0000 
      3 O          35.0500   -5.1700  126.2550 O.2       5 ALP1        0.0000 
      4 NZ         32.3140   -8.2195  127.8520 N.4       3 LYC4        0.0000 
      5 NZ         33.3880   -8.2320  126.3910 N.4      11 LYL4        0.0000 
      6 NZ         31.2400   -8.2070  129.3130 N.4       7 LYP4        0.0000 
      7 NZ         33.3545   -9.4775  127.0510 N.4       3 LYC4        0.0000 
      8 NZ         32.5870  -11.8100  127.4530 N.4       7 LYP4        0.0000 
      9 N          33.3545   -9.4775  127.0510 N.am      2 SEC2        0.0000 
     10 N          33.3880   -8.2320  126.3910 N.am     10 SEL2        0.0000 
     11 N          33.3210  -10.7230  127.7110 N.am      6 SEP2        0.0000 
     12 N          34.2695   -7.4170  127.1825 N.am      2 SEC2        0.0000 
     13 N          35.1510   -6.6020  127.9740 N.am      6 SEP2        0.0000 
     14 NZ         31.9915  -10.5980  125.7110 N.4       3 LYC4        0.0000 
     15 NZ         32.4830   -9.4430  124.7270 N.4      11 LYL4        0.0000 
     16 N          32.9020  -10.0830  126.2190 N.am      2 SEC2        0.0000 
     17 N          32.4830   -9.4430  124.7270 N.am     10 SEL2        0.0000 
     18 N          31.9915  -10.5980  125.7110 N.am      2 SEC2        0.0000 
     19 N          31.5000  -11.7530  126.6950 N.am      6 SEP2        0.0000 
     20 CA         35.1500   -5.8715  122.6925 C.3       4 GLC5        0.0000 
     21 CA         33.9190   -7.0320  123.3890 C.3      12 GLL5        0.0000 
     22 CA         36.3810   -4.7110  121.9960 C.3       8 GLP5        0.0000 
     23 CA         35.2155   -7.2580  121.3295 C.3       4 GLC5        0.0000 
     24 CA         34.0770   -8.2620  122.5020 C.3      12 GLL5        0.0000 
     25 CA         36.3540   -6.2540  120.1570 C.3       8 GLP5        0.0000 
     26 CA         32.0705  -11.9225  118.2365 C.3       4 GLC5        0.0000 
     27 CA         33.0160  -10.1700  118.2300 C.3      12 GLL5        0.0000 
     28 CA         31.1250  -13.6750  118.2430 C.3       8 GLP5        0.0000 
     29 CA         34.8710   -7.5495  118.6505 C.3       4 GLC5        0.0000 
     30 CA         34.5500   -9.4000  117.6290 C.3      12 GLL5        0.0000 
     31 CA         35.1920   -5.6990  119.6720 C.3       8 GLP5        0.0000 
     32 CA         36.6160   -9.2715  117.7910 C.3       4 GLC5        0.0000 
     33 CA         38.6820   -9.1430  117.9530 C.3       8 GLP5        0.0000 
     34 CA         34.1265   -8.3345  114.9405 C.3       4 GLC5        0.0000 
     35 CA         35.7880   -9.5260  115.1200 C.3      12 GLL5        0.0000 
     36 CA         32.4650   -7.1430  114.7610 C.3       8 GLP5        0.0000 
     37 CA         35.7570   -8.3740  113.3865 C.3       4 GLC5        0.0000 
     38 CA         35.7260   -7.2220  111.6530 C.3       8 GLP5        0.0000 
     39 CA         36.6680   -7.6330  115.4025 C.3       4 GLC5        0.0000 
     40 CA         37.5480   -5.7400  115.6850 C.3       8 GLP5        0.0000 
     41 CA         37.2350   -9.3345  116.5365 C.3       4 GLC5        0.0000 
     42 CA         35.8855  -12.2600  112.9905 C.3       4 GLC5        0.0000 
     43 CA         36.2250  -10.7900  114.3620 C.3      12 GLL5        0.0000 
     44 CA         35.5460  -13.7300  111.6190 C.3       8 GLP5        0.0000 
     45 CA         39.3675  -11.5640  115.5535 C.3       4 GLC5        0.0000 
     46 CA         37.7500  -10.9060  114.4680 C.3      12 GLL5        0.0000 
     47 CA         40.9850  -12.2220  116.6390 C.3       8 GLP5        0.0000 
     48 CA         39.2075  -12.3365  113.9775 C.3       4 GLC5        0.0000 
     49 CA         40.6650  -13.7670  113.4870 C.3       8 GLP5        0.0000 
     50 CA         37.0115   -8.3855  112.8340 C.3       4 GLC5        0.0000 
     51 CA         38.2970   -9.5490  114.0150 C.3      12 GLL5        0.0000 
     52 CA         37.9225   -7.6445  114.8500 C.3       4 GLC5        0.0000 
     53 CA         40.3840  -10.9510  115.2030 C.3       4 GLC5        0.0000 
     54 CA         39.7830   -9.6800  113.7670 C.3      12 GLL5        0.0000 
     55 CA         29.4935  -11.7865  118.5380 C.3       4 GLC5        0.0000 
     56 CA         28.8600  -10.5440  119.5410 C.3      12 GLL5        0.0000 
     57 CA         30.1270  -13.0290  117.5350 C.3       8 GLP5        0.0000 
     58 CA         28.3795  -11.7855  120.9360 C.3       4 GLC5        0.0000 
     59 CA         27.8990  -13.0270  122.3310 C.3       8 GLP5        0.0000 
     60 N          26.0195   -9.6020  118.6375 N.am      2 SEC2        0.0000 
     61 N          27.4190   -9.0700  118.5050 N.am     10 SEL2        0.0000 
     62 N          24.6200  -10.1340  118.7700 N.am      6 SEP2        0.0000 
     63 N          25.6505  -10.0275  119.5590 N.am      2 SEC2        0.0000 
     64 N          26.6810   -9.9210  120.3480 N.am     10 SEL2        0.0000 
     65 CA         35.5970   -8.2185  123.7867 C.3       4 GLC5        0.0000 
     66 CA         37.1960   -8.7900  124.6280 C.3       8 GLP5        0.0000 
     67 CA         33.5028   -8.3992  115.7612 C.3       4 GLC5        0.0000 
     68 CA         33.4578  -10.3447  114.6510 C.3       4 GLC5        0.0000 
     69 CA         34.5310   -9.9110  115.8940 C.3      12 GLL5        0.0000 
     70 CA         31.7560  -10.9710  113.7950 C.3       8 GLP5        0.0000 
     71 CA         37.6538  -10.2335  112.5400 C.3       4 GLC5        0.0000 
     72 CA         38.3200   -9.6190  110.6650 C.3       8 GLP5        0.0000 
     73 CA         38.6800   -9.6167  112.2780 C.3       4 GLC5        0.0000 
     74 CA         40.6250   -8.7022  114.2950 C.3       4 GLC5        0.0000 
     75 CA         42.2100   -7.7900  114.6990 C.3       8 GLP5        0.0000 
     76 CA         39.9150  -10.9187  112.7000 C.3       4 GLC5        0.0000 
     77 CA         40.7900  -12.2230  111.5090 C.3       8 GLP5        0.0000 
     78 CA         38.7926   -9.5484  115.9786 C.3       4 GLC5        0.0000 
@<TRIPOS>BOND
@<TRIPOS>SUBSTRUCTURE
     1 ALC1        1 GROUP        1 X    ALC  0     ROOT ALC X 1
     2 SEC2        9 GROUP        1 X    SEC  0     **** SEC X 2
     3 LYC4        4 GROUP        1 X    LYC  0     **** LYC X 4
     4 GLC5       20 GROUP        1 X    GLC  0     **** GLC X 6
     5 ALP1        3 GROUP        1 Y    ALP  0     ROOT ALP Y 8
     6 SEP2       11 GROUP        1 Y    SEP  0     **** SEP Y 9
     7 LYP4        6 GROUP        1 Y    LYP  0     **** LYP Y 11
     8 GLP5       22 GROUP        1 Y    GLP  0     **** GLP Y 13
     9 ALL1        2 GROUP        1 Z    ALL  0     ROOT ALL Z 15
    10 SEL2       10 GROUP        1 Z    SEL  0     **** SEL Z 16
    11 LYL4        5 GROUP        1 Z    LYL  0     **** LYL Z 18
    12 GLL5       21 GROUP        1 Z    GLL  0     **** GLL Z 20
@<TRIPOS>SET

