#    Name: 1bh5_GTX_3_ligand
#    Modification time : Mon Mar 24 19:33:47 2014

@<TRIPOS>MOLECULE
1bh5_GTX_3_ligand
   54    53     1     0     0
SMALL
NO_CHARGES


@<TRIPOS>ATOM
      1 N1         32.7780   -5.9230  125.3000 N.4       1 GTX200      0.0000 
      2 CA1        32.7830   -7.1090  124.3930 C.3       1 GTX200      0.0000 
      3 C1         32.9020   -8.3680  125.2410 C.2       1 GTX200      0.0000 
      4 O11        33.3880   -8.2320  126.3910 O.co2     1 GTX200      0.0000 
      5 O12        32.4830   -9.4430  124.7270 O.co2     1 GTX200      0.0000 
      6 CB1        33.9190   -7.0320  123.3890 C.3       1 GTX200      0.0000 
      7 CG1        34.0770   -8.2620  122.5020 C.3       1 GTX200      0.0000 
      8 CD1        33.1480   -8.2520  121.3230 C.2       1 GTX200      0.0000 
      9 OE1        32.2100   -7.4680  121.1590 O.2       1 GTX200      0.0000 
     10 N2         33.3380   -9.1910  120.4060 N.am      1 GTX200      0.0000 
     11 CA2        32.3690   -9.2910  119.3100 C.3       1 GTX200      0.0000 
     12 C2         31.0680   -9.8680  119.8140 C.2       1 GTX200      0.0000 
     13 O2         30.9750  -10.5770  120.8200 O.2       1 GTX200      0.0000 
     14 CB2        33.0160  -10.1700  118.2300 C.3       1 GTX200      0.0000 
     15 SG2        34.5500   -9.4000  117.6290 S.3       1 GTX200      0.0000 
     16 C1S        34.5310   -9.9110  115.8940 C.3       1 GTX200      0.0000 
     17 C2S        35.7880   -9.5260  115.1200 C.3       1 GTX200      0.0000 
     18 C3S        36.2250  -10.7900  114.3620 C.3       1 GTX200      0.0000 
     19 C4S        37.7500  -10.9060  114.4680 C.3       1 GTX200      0.0000 
     20 C5S        38.2970   -9.5490  114.0150 C.3       1 GTX200      0.0000 
     21 C6S        39.7830   -9.6800  113.7670 C.3       1 GTX200      0.0000 
     22 N3         29.9730   -9.7630  119.0340 N.am      1 GTX200      0.0000 
     23 CA3        28.8600  -10.5440  119.5410 C.3       1 GTX200      0.0000 
     24 C3         27.5630   -9.8020  119.4970 C.2       1 GTX200      0.0000 
     25 O31        27.4190   -9.0700  118.5050 O.co2     1 GTX200      0.0000 
     26 O32        26.6810   -9.9210  120.3480 O.co2     1 GTX200      0.0000 
     27 H          31.8432   -7.1520  123.8583 H         1 GTX200      0.0000 
     28 H          34.8693   -6.8613  123.9326 H         1 GTX200      0.0000 
     29 H          33.7691   -6.1445  122.7427 H         1 GTX200      0.0000 
     30 H          33.8935   -9.1610  123.1097 H         1 GTX200      0.0000 
     31 H          35.1189   -8.3125  122.1513 H         1 GTX200      0.0000 
     32 H          34.1088   -9.8511  120.4045 H         1 GTX200      0.0000 
     33 H          32.1977   -8.3166  118.8883 H         1 GTX200      0.0000 
     34 H          32.4379  -10.2489  117.3443 H         1 GTX200      0.0000 
     35 H          33.3575  -11.1062  118.5930 H         1 GTX200      0.0000 
     36 H          33.6367   -9.4343  115.5228 H         1 GTX200      0.0000 
     37 H          34.3843  -10.9776  115.9691 H         1 GTX200      0.0000 
     38 H          36.5589   -9.2360  115.8004 H         1 GTX200      0.0000 
     39 H          35.5602   -8.7528  114.4188 H         1 GTX200      0.0000 
     40 H          35.9421  -10.7015  113.3279 H         1 GTX200      0.0000 
     41 H          35.7665  -11.6525  114.8127 H         1 GTX200      0.0000 
     42 H          38.0975  -11.6706  113.8115 H         1 GTX200      0.0000 
     43 H          38.0260  -11.0841  115.4821 H         1 GTX200      0.0000 
     44 H          38.1165   -8.8175  114.7911 H         1 GTX200      0.0000 
     45 H          37.7965   -9.2519  113.1032 H         1 GTX200      0.0000 
     46 H          29.8847   -9.2403  118.2182 H         1 GTX200      0.0000 
     47 H          29.0535  -10.8558  120.5882 H         1 GTX200      0.0000 
     48 H          28.7505  -11.4820  118.9584 H         1 GTX200      0.0000 
     49 H          32.0138   -5.9515  125.9444 H         1 GTX200      0.0000 
     50 H          33.6164   -5.8664  125.8420 H         1 GTX200      0.0000 
     51 H          32.6999   -5.0661  124.7904 H         1 GTX200      0.0000 
     52 H          40.1872   -8.8157  113.4678 H         1 GTX200      0.0000 
     53 H          40.2735   -9.9632  114.5911 H         1 GTX200      0.0000 
     54 H          39.9831  -10.3577  113.0594 H         1 GTX200      0.0000 
@<TRIPOS>BOND
     1    2    1 1    
     2   49    1 1    
     3   50    1 1    
     4   51    1 1    
     5    3    2 1    
     6    6    2 1    
     7   27    2 1    
     8    4    3 ar   
     9    5    3 ar   
    10    7    6 1    
    11   28    6 1    
    12   29    6 1    
    13    8    7 1    
    14   30    7 1    
    15   31    7 1    
    16    9    8 2    
    17   10    8 am   
    18   11   10 1    
    19   32   10 1    
    20   12   11 1    
    21   14   11 1    
    22   33   11 1    
    23   13   12 2    
    24   22   12 am   
    25   15   14 1    
    26   34   14 1    
    27   35   14 1    
    28   16   15 1    
    29   17   16 1    
    30   36   16 1    
    31   37   16 1    
    32   18   17 1    
    33   38   17 1    
    34   39   17 1    
    35   19   18 1    
    36   40   18 1    
    37   41   18 1    
    38   20   19 1    
    39   42   19 1    
    40   43   19 1    
    41   21   20 1    
    42   44   20 1    
    43   45   20 1    
    44   52   21 1    
    45   53   21 1    
    46   54   21 1    
    47   23   22 1    
    48   46   22 1    
    49   24   23 1    
    50   47   23 1    
    51   48   23 1    
    52   25   24 ar   
    53   26   24 ar   
@<TRIPOS>SUBSTRUCTURE
     1 GTX200      1 GROUP   
@<TRIPOS>SET

