#    Name: 4ivd_15T_1_INTS_M
#    Modification time : Tue Mar 25 04:43:05 2014

@<TRIPOS>MOLECULE
4ivd_15T_1_INTS_M
   70     0     9     0     0
SMALL
NO_CHARGES


@<TRIPOS>ATOM
      1 CA          9.4820   57.8535   -3.3795 C.3       3 GLC5        0.0000 
      2 CA         10.9360   57.1740   -1.8440 C.3       9 GLL5        0.0000 
      3 CA          8.0280   58.5330   -4.9150 C.3       6 GLP5        0.0000 
      4 CA         12.9425   57.1040   -1.4220 C.3       3 GLC5        0.0000 
      5 CA         14.9490   57.0340   -1.0000 C.3       6 GLP5        0.0000 
      6 CA          8.4115   56.5685   -2.3560 C.3       3 GLC5        0.0000 
      7 CA          9.9700   56.5840   -0.8150 C.3       9 GLL5        0.0000 
      8 CA          6.8530   56.5530   -3.8970 C.3       6 GLP5        0.0000 
      9 N          11.3855   57.6085    1.2760 N.am      2 SEC2        0.0000 
     10 N          10.6130   56.2930    0.4450 N.am      8 SEL2        0.0000 
     11 N          12.1580   58.9240    2.1070 N.am      5 SEP2        0.0000 
     12 O          11.9495   56.4270    0.5510 O.2       1 ALC1        0.0000 
     13 O          10.6130   56.2930    0.4450 O.2       7 ALL1        0.0000 
     14 O          13.2860   56.5610    0.6570 O.2       4 ALP1        0.0000 
     15 CA          9.7070   59.9645   -0.0575 C.3       3 GLC5        0.0000 
     16 CA          7.7240   59.3940   -0.4850 C.3       9 GLL5        0.0000 
     17 CA         11.6900   60.5350    0.3700 C.3       6 GLP5        0.0000 
     18 CA          7.5060   62.6520   -0.1780 C.3       3 GLC5        0.0000 
     19 CA          7.2640   60.7060   -0.6080 C.3       9 GLL5        0.0000 
     20 CA          7.7480   64.5980    0.2520 C.3       6 GLP5        0.0000 
     21 N           6.2945   62.5560   -0.2095 N.am      2 SEC2        0.0000 
     22 N           6.0890   61.0690   -0.1470 N.am      8 SEL2        0.0000 
     23 N           6.5000   64.0430   -0.2720 N.am      5 SEP2        0.0000 
     24 CA          4.8220   62.1245   -0.4800 C.3       3 GLC5        0.0000 
     25 CA          5.2820   60.1980    0.4530 C.3       9 GLL5        0.0000 
     26 CA          4.3620   64.0510   -1.4130 C.3       6 GLP5        0.0000 
     27 CA          3.8145   57.2595   -0.4305 C.3       3 GLC5        0.0000 
     28 CA          4.5470   58.2090    1.3050 C.3       9 GLL5        0.0000 
     29 CA          3.0820   56.3100   -2.1660 C.3       6 GLP5        0.0000 
     30 CA          3.1585   60.6940    3.0065 C.3       3 GLC5        0.0000 
     31 CA          3.5950   59.1410    1.4860 C.3       9 GLL5        0.0000 
     32 CA          2.7220   62.2470    4.5270 C.3       6 GLP5        0.0000 
     33 O           3.3855   61.6650    0.7930 O.2       1 ALC1        0.0000 
     34 O           4.0400   60.3410    0.9860 O.2       7 ALL1        0.0000 
     35 O           2.7310   62.9890    0.6000 O.2       4 ALP1        0.0000 
     36 CA          6.5090   55.9095   -2.0245 C.3       3 GLC5        0.0000 
     37 CA          6.1650   55.2660   -0.1520 C.3       9 GLL5        0.0000 
     38 CA          4.6555   55.0245   -1.1080 C.3       3 GLC5        0.0000 
     39 CA          3.1460   54.7830   -2.0640 C.3       6 GLP5        0.0000 
     40 CA          4.5845   50.2060   -0.5260 C.3       3 GLC5        0.0000 
     41 CA          3.7990   51.3150    1.0390 C.3       9 GLL5        0.0000 
     42 CA          5.3700   49.0970   -2.0910 C.3       6 GLP5        0.0000 
     43 CA         11.0715   58.7070   -0.4798 C.3       3 GLC5        0.0000 
     44 CA          6.5178   59.3210   -2.1421 C.3       3 GLC5        0.0000 
     45 CA          5.7400   58.8360   -3.8960 C.3       6 GLP5        0.0000 
     46 CA          7.8258   59.5890    1.3819 C.3       3 GLC5        0.0000 
     47 CA          8.3560   59.3720    3.1520 C.3       6 GLP5        0.0000 
     48 CA          2.1355   58.2545    1.2308 C.3       3 GLC5        0.0000 
     49 CA          0.2000   57.8340    1.0660 C.3       6 GLP5        0.0000 
     50 CA          7.7888   57.6442    2.2528 C.3       3 GLC5        0.0000 
     51 CA          7.0900   55.9390    2.1100 C.3       9 GLL5        0.0000 
     52 CA          4.9670   54.1608    3.9890 C.3       3 GLC5        0.0000 
     53 CA          6.8020   54.5180    2.6310 C.3       9 GLL5        0.0000 
     54 CA          3.7090   54.1440    5.7290 C.3       6 GLP5        0.0000 
     55 CA          4.1195   54.0570    0.1545 C.3       3 GLC5        0.0000 
     56 CA          5.6480   53.8370    1.8670 C.3       9 GLL5        0.0000 
     57 CA          2.4550   54.2770   -0.8000 C.3       6 GLP5        0.0000 
     58 CA          6.7568   53.3642   -1.3462 C.3       3 GLC5        0.0000 
     59 CA          5.9200   53.8370    0.3510 C.3       9 GLL5        0.0000 
     60 CA          7.4710   52.1770   -2.7920 C.3       6 GLP5        0.0000 
     61 CA          4.2698   53.1287    4.0652 C.3       3 GLC5        0.0000 
     62 CA          5.5420   52.4030    2.4220 C.3       9 GLL5        0.0000 
     63 CA          3.2070   52.9232    0.4550 C.3       3 GLC5        0.0000 
     64 CA          4.1190   51.8240    2.3810 C.3       9 GLL5        0.0000 
     65 CA          1.8560   51.6937    1.8145 C.3       3 GLC5        0.0000 
     66 CA         -0.2470   51.8180    1.9190 C.3       6 GLP5        0.0000 
     67 CA          3.5855   59.6234   -0.4365 C.3       3 GLC5        0.0000 
     68 CA          2.3980   60.1480   -1.8410 C.3       6 GLP5        0.0000 
     69 CA          5.5105   59.8014    2.4115 C.3       3 GLC5        0.0000 
     70 CA          6.2480   60.5040    3.8550 C.3       6 GLP5        0.0000 
@<TRIPOS>BOND
@<TRIPOS>SUBSTRUCTURE
     1 ALC1       12 GROUP        1 X    ALC  0     ROOT ALC X 1
     2 SEC2        9 GROUP        1 X    SEC  0     **** SEC X 2
     3 GLC5        1 GROUP        1 X    GLC  0     **** GLC X 6
     4 ALP1       14 GROUP        1 Y    ALP  0     ROOT ALP Y 8
     5 SEP2       11 GROUP        1 Y    SEP  0     **** SEP Y 9
     6 GLP5        3 GROUP        1 Y    GLP  0     **** GLP Y 13
     7 ALL1       13 GROUP        1 Z    ALL  0     ROOT ALL Z 15
     8 SEL2       10 GROUP        1 Z    SEL  0     **** SEL Z 16
     9 GLL5        2 GROUP        1 Z    GLL  0     **** GLL Z 20
@<TRIPOS>SET

