#    Name: 4ivd_15T_1_ligand
#    Modification time : Tue Mar 25 04:43:05 2014

@<TRIPOS>MOLECULE
4ivd_15T_1_ligand
   48    51     1     0     0
SMALL
NO_CHARGES


@<TRIPOS>ATOM
      1 C1         10.9360   57.1740   -1.8440 C.3       1 15T1201     0.0000 
      2 C2          9.9700   56.5840   -0.8150 C.3       1 15T1201     0.0000 
      3 O4         10.6130   56.2930    0.4450 O.3       1 15T1201     0.0000 
      4 C5          8.8450   57.5490   -0.5420 C.2       1 15T1201     0.0000 
      5 N6          7.6750   57.2440    0.0900 N.pl3     1 15T1201     0.0000 
      6 C7          6.9300   58.4180    0.1480 C.ar      1 15T1201     0.0000 
      7 C8          7.7240   59.3940   -0.4850 C.ar      1 15T1201     0.0000 
      8 N9          8.8660   58.7910   -0.8720 N.2       1 15T1201     0.0000 
      9 C10         7.2640   60.7060   -0.6080 C.ar      1 15T1201     0.0000 
     10 N11         6.0890   61.0690   -0.1470 N.ar      1 15T1201     0.0000 
     11 C12         5.2820   60.1980    0.4530 C.ar      1 15T1201     0.0000 
     12 C13         5.6680   58.8470    0.6280 C.ar      1 15T1201     0.0000 
     13 C14         4.5470   58.2090    1.3050 C.2       1 15T1201     0.0000 
     14 C15         3.5950   59.1410    1.4860 C.2       1 15T1201     0.0000 
     15 N16         4.0400   60.3410    0.9860 N.pl3     1 15T1201     0.0000 
     16 C18         7.3530   55.8940    0.5970 C.3       1 15T1201     0.0000 
     17 C20         7.0900   55.9390    2.1100 C.3       1 15T1201     0.0000 
     18 C21         6.8020   54.5180    2.6310 C.3       1 15T1201     0.0000 
     19 C22         5.6480   53.8370    1.8670 C.3       1 15T1201     0.0000 
     20 C24         5.9200   53.8370    0.3510 C.3       1 15T1201     0.0000 
     21 C25         6.1650   55.2660   -0.1520 C.3       1 15T1201     0.0000 
     22 C26         5.5420   52.4030    2.4220 C.3       1 15T1201     0.0000 
     23 C27         4.1190   51.8240    2.3810 C.3       1 15T1201     0.0000 
     24 C28         3.7990   51.3150    1.0390 C.1       1 15T1201     0.0000 
     25 N29         3.6010   51.0020   -0.0390 N.1       1 15T1201     0.0000 
     26 H           9.5359   55.6806   -1.2340 H         1 15T1201     0.0000 
     27 H           7.8999   61.3935   -1.0868 H         1 15T1201     0.0000 
     28 H           4.5514   57.2980    1.5465 H         1 15T1201     0.0000 
     29 H           2.7320   59.0058    1.8990 H         1 15T1201     0.0000 
     30 H           3.5329   61.1688    1.0136 H         1 15T1201     0.0000 
     31 H           8.2215   55.2374    0.4419 H         1 15T1201     0.0000 
     32 H           6.2337   56.5702    2.3066 H         1 15T1201     0.0000 
     33 H           7.9625   56.3326    2.6142 H         1 15T1201     0.0000 
     34 H           6.5428   54.5727    3.6905 H         1 15T1201     0.0000 
     35 H           7.7037   53.9108    2.5269 H         1 15T1201     0.0000 
     36 H           4.7443   54.3572    2.0791 H         1 15T1201     0.0000 
     37 H           5.0617   53.4172   -0.1639 H         1 15T1201     0.0000 
     38 H           6.7960   53.2294    0.1473 H         1 15T1201     0.0000 
     39 H           6.3862   55.2401   -1.2127 H         1 15T1201     0.0000 
     40 H           5.2782   55.8644    0.0213 H         1 15T1201     0.0000 
     41 H           5.8991   52.3990    3.4619 H         1 15T1201     0.0000 
     42 H           6.2100   51.7494    1.8429 H         1 15T1201     0.0000 
     43 H           3.4210   52.6151    2.6727 H         1 15T1201     0.0000 
     44 H           4.0556   51.0237    3.1251 H         1 15T1201     0.0000 
     45 H          11.3417   58.0303   -1.5243 H         1 15T1201     0.0000 
     46 H          11.6906   56.5496   -2.0458 H         1 15T1201     0.0000 
     47 H          10.4794   57.3718   -2.7114 H         1 15T1201     0.0000 
     48 H          11.5859   56.4581    0.2831 H         1 15T1201     0.0000 
@<TRIPOS>BOND
     1    2    1 1    
     2   45    1 1    
     3   46    1 1    
     4   47    1 1    
     5    3    2 1    
     6    4    2 1    
     7   26    2 1    
     8   48    3 1    
     9    5    4 1    
    10    8    4 2    
    11    6    5 1    
    12   16    5 1    
    13    7    6 ar   
    14   12    6 ar   
    15    8    7 1    
    16    9    7 ar   
    17   10    9 ar   
    18   27    9 1    
    19   11   10 ar   
    20   12   11 ar   
    21   15   11 1    
    22   13   12 1    
    23   14   13 2    
    24   28   13 1    
    25   15   14 1    
    26   29   14 1    
    27   30   15 1    
    28   17   16 1    
    29   21   16 1    
    30   31   16 1    
    31   18   17 1    
    32   32   17 1    
    33   33   17 1    
    34   19   18 1    
    35   34   18 1    
    36   35   18 1    
    37   20   19 1    
    38   22   19 1    
    39   36   19 1    
    40   21   20 1    
    41   37   20 1    
    42   38   20 1    
    43   39   21 1    
    44   40   21 1    
    45   23   22 1    
    46   41   22 1    
    47   42   22 1    
    48   24   23 1    
    49   43   23 1    
    50   44   23 1    
    51   25   24 3    
@<TRIPOS>SUBSTRUCTURE
     1 15T1201     1 GROUP   
@<TRIPOS>SET

