#    Name: 2eqa_AMP_1_INTS_M
#    Modification time : Tue Mar 25 11:29:51 2014

@<TRIPOS>MOLECULE
2eqa_AMP_1_INTS_M
   45     0    15     0     0
SMALL
NO_CHARGES


@<TRIPOS>ATOM
      1 NZ         -1.2680   24.6430   18.8950 N.4       3 LYC4        0.0000 
      2 NZ         -0.6670   23.9180   19.8050 N.4      13 LYL4        0.0000 
      3 NZ         -2.2940   25.2630   16.7310 N.4       8 LYP4        0.0000 
      4 N          -1.2680   24.6430   18.8950 N.am      2 SEC2        0.0000 
      5 N          -0.6670   23.9180   19.8050 N.am     12 SEL2        0.0000 
      6 N          -1.8690   25.3680   17.9850 N.am      7 SEP2        0.0000 
      7 Zn          1.4605   23.7580   21.8595 Zn        4 ZIC7        0.0000 
      8 Zn          0.9060   22.6330   21.3880 Zn       14 ZIL7        0.0000 
      9 Zn          2.0150   24.8830   22.3310 Zn        9 ZIP7        0.0000 
     10 N           2.3195   22.1080   21.0010 N.am      2 SEC2        0.0000 
     11 N           0.9060   22.6330   21.3880 N.am     12 SEL2        0.0000 
     12 N           3.7330   21.5830   20.6140 N.am      7 SEP2        0.0000 
     13 CA         -2.1155   20.0955   19.2335 C.3       5 GLC5        0.0000 
     14 CA         -1.8070   21.2600   21.0840 C.3      15 GLL5        0.0000 
     15 CA         -2.4240   18.9310   17.3830 C.3      10 GLP5        0.0000 
     16 N          -2.2765   22.0150   23.5575 N.am      2 SEC2        0.0000 
     17 N          -3.5200   22.9930   22.8960 N.am     12 SEL2        0.0000 
     18 N          -1.0330   21.0370   24.2190 N.am      7 SEP2        0.0000 
     19 N          -3.6395   22.6100   24.0195 N.am      2 SEC2        0.0000 
     20 N          -3.7590   22.2270   25.1430 N.am      7 SEP2        0.0000 
     21 CA         -5.2620   22.5110   18.4255 C.3       5 GLC5        0.0000 
     22 CA         -5.3050   21.6180   20.0720 C.3      15 GLL5        0.0000 
     23 CA         -5.2190   23.4040   16.7790 C.3      10 GLP5        0.0000 
     24 CA        -10.3395   18.2450   18.7775 C.3       5 GLC5        0.0000 
     25 CA         -9.0820   18.5810   20.3880 C.3      15 GLL5        0.0000 
     26 CA        -11.5970   17.9090   17.1670 C.3      10 GLP5        0.0000 
     27 CA         -9.8140   18.1790   22.3100 C.3       5 GLC5        0.0000 
     28 CA        -10.5460   17.7770   24.2320 C.3      10 GLP5        0.0000 
     29 O         -10.8600   16.7345   20.4560 O.2       1 ALC1        0.0000 
     30 O          -9.4430   17.3060   20.5160 O.2      11 ALL1        0.0000 
     31 O         -12.2770   16.1630   20.3960 O.2       6 ALP1        0.0000 
     32 O          -8.8180   16.3950   21.2500 O.2       1 ALC1        0.0000 
     33 O          -8.1930   15.4840   21.9840 O.2       6 ALP1        0.0000 
     34 CA         -9.7710   20.1745   18.2465 C.3       5 GLC5        0.0000 
     35 CA         -9.6680   20.8030   20.0930 C.3      15 GLL5        0.0000 
     36 CA         -9.8740   19.5460   16.4000 C.3      10 GLP5        0.0000 
     37 CA        -10.2915   21.9450   18.8360 C.3       5 GLC5        0.0000 
     38 CA        -10.9150   23.0870   17.5790 C.3      10 GLP5        0.0000 
     39 CA         -5.4488   20.6180   22.7263 C.3       5 GLC5        0.0000 
     40 CA         -5.3080   22.4120   21.3810 C.3      15 GLL5        0.0000 
     41 CA         -6.2460   19.0460   23.7520 C.3      10 GLP5        0.0000 
     42 CA         -7.0803   19.2835   22.0228 C.3       5 GLC5        0.0000 
     43 CA         -7.7400   18.9410   20.3720 C.3      15 GLL5        0.0000 
     44 CA         -6.9742   18.5585   18.7843 C.3       5 GLC5        0.0000 
     45 CA         -6.0340   17.5960   17.2750 C.3      10 GLP5        0.0000 
@<TRIPOS>BOND
@<TRIPOS>SUBSTRUCTURE
     1 ALC1       29 GROUP        1 X    ALC  0     ROOT ALC X 1
     2 SEC2        4 GROUP        1 X    SEC  0     **** SEC X 2
     3 LYC4        1 GROUP        1 X    LYC  0     **** LYC X 4
     4 ZIC7        7 GROUP        1 X    ZIC  0     **** ZIC X 5
     5 GLC5       13 GROUP        1 X    GLC  0     **** GLC X 6
     6 ALP1       31 GROUP        1 Y    ALP  0     ROOT ALP Y 8
     7 SEP2        6 GROUP        1 Y    SEP  0     **** SEP Y 9
     8 LYP4        3 GROUP        1 Y    LYP  0     **** LYP Y 11
     9 ZIP7        9 GROUP        1 Y    ZIP  0     **** ZIP Y 12
    10 GLP5       15 GROUP        1 Y    GLP  0     **** GLP Y 13
    11 ALL1       30 GROUP        1 Z    ALL  0     ROOT ALL Z 15
    12 SEL2        5 GROUP        1 Z    SEL  0     **** SEL Z 16
    13 LYL4        2 GROUP        1 Z    LYL  0     **** LYL Z 18
    14 ZIL7        8 GROUP        1 Z    ZIL  0     **** ZIL Z 19
    15 GLL5       14 GROUP        1 Z    GLL  0     **** GLL Z 20
@<TRIPOS>SET

