#    Name: 2eqa_AMP_1_ligand
#    Modification time : Tue Mar 25 11:29:51 2014

@<TRIPOS>MOLECULE
2eqa_AMP_1_ligand
   35    37     1     0     0
SMALL
NO_CHARGES


@<TRIPOS>ATOM
      1 P           0.1900   22.5630   19.9480 P.3       1 AMP1379     0.0000 
      2 O1P         1.1670   22.4070   18.8460 O.co2     1 AMP1379     0.0000 
      3 O2P        -0.6670   23.9180   19.8050 O.co2     1 AMP1379     0.0000 
      4 O3P         0.9060   22.6330   21.3880 O.co2     1 AMP1379     0.0000 
      5 O5'        -0.8700   21.3520   20.0090 O.3       1 AMP1379     0.0000 
      6 C5'        -1.8070   21.2600   21.0840 C.3       1 AMP1379     0.0000 
      7 C4'        -3.1240   21.9720   20.7650 C.3       1 AMP1379     0.0000 
      8 O4'        -3.9340   21.2560   19.8180 O.3       1 AMP1379     0.0000 
      9 C3'        -3.9950   21.9680   22.0200 C.3       1 AMP1379     0.0000 
     10 O3'        -3.5200   22.9930   22.8960 O.3       1 AMP1379     0.0000 
     11 C2'        -5.3080   22.4120   21.3810 C.3       1 AMP1379     0.0000 
     12 O2'        -5.2630   23.8150   21.1110 O.3       1 AMP1379     0.0000 
     13 C1'        -5.3050   21.6180   20.0720 C.3       1 AMP1379     0.0000 
     14 N9         -6.0920   20.3730   20.2290 N.pl3     1 AMP1379     0.0000 
     15 C8         -5.5990   19.1480   20.4020 C.2       1 AMP1379     0.0000 
     16 N7         -6.5970   18.2710   20.4890 N.2       1 AMP1379     0.0000 
     17 C5         -7.7400   18.9410   20.3720 C.ar      1 AMP1379     0.0000 
     18 C6         -9.0820   18.5810   20.3880 C.ar      1 AMP1379     0.0000 
     19 N6         -9.4430   17.3060   20.5160 N.pl3     1 AMP1379     0.0000 
     20 N1        -10.0110   19.5360   20.2490 N.ar      1 AMP1379     0.0000 
     21 C2         -9.6680   20.8030   20.0930 C.ar      1 AMP1379     0.0000 
     22 N3         -8.4020   21.1810   20.0700 N.ar      1 AMP1379     0.0000 
     23 C4         -7.4180   20.2810   20.2070 C.ar      1 AMP1379     0.0000 
     24 H          -1.4046   21.7074   22.0119 H         1 AMP1379     0.0000 
     25 H          -2.0485   20.2074   21.3223 H         1 AMP1379     0.0000 
     26 H          -2.9565   22.9674   20.4820 H         1 AMP1379     0.0000 
     27 H          -4.0744   21.0342   22.3893 H         1 AMP1379     0.0000 
     28 H          -6.1008   22.0974   21.9716 H         1 AMP1379     0.0000 
     29 H          -5.6955   22.2225   19.3014 H         1 AMP1379     0.0000 
     30 H          -4.6455   18.9258   20.4570 H         1 AMP1379     0.0000 
     31 H          -8.8305   16.7272   21.0545 H         1 AMP1379     0.0000 
     32 H         -10.2941   17.0419   20.0622 H         1 AMP1379     0.0000 
     33 H         -10.4294   21.5357   19.9834 H         1 AMP1379     0.0000 
     34 H          -2.5382   22.8242   22.9832 H         1 AMP1379     0.0000 
     35 H          -4.5393   24.1693   21.7031 H         1 AMP1379     0.0000 
@<TRIPOS>BOND
     1    2    1 ar   
     2    3    1 ar   
     3    4    1 ar   
     4    5    1 1    
     5    6    5 1    
     6    7    6 1    
     7   24    6 1    
     8   25    6 1    
     9    8    7 1    
    10    9    7 1    
    11   26    7 1    
    12   13    8 1    
    13   10    9 1    
    14   11    9 1    
    15   27    9 1    
    16   34   10 1    
    17   12   11 1    
    18   13   11 1    
    19   28   11 1    
    20   35   12 1    
    21   14   13 1    
    22   29   13 1    
    23   15   14 1    
    24   23   14 1    
    25   16   15 2    
    26   30   15 1    
    27   17   16 1    
    28   18   17 ar   
    29   23   17 ar   
    30   19   18 1    
    31   20   18 ar   
    32   31   19 1    
    33   32   19 1    
    34   21   20 ar   
    35   22   21 ar   
    36   33   21 1    
    37   23   22 ar   
@<TRIPOS>SUBSTRUCTURE
     1 AMP1379     1 GROUP   
@<TRIPOS>SET

