#    Name: 4iqg_NAP_3_INTS_M
#    Modification time : Tue Mar 25 04:15:00 2014

@<TRIPOS>MOLECULE
4iqg_NAP_3_INTS_M
  108     0    12     0     0
SMALL
NO_CHARGES


@<TRIPOS>ATOM
      1 CA         32.6535   -4.5500   37.7200 C.3       4 GLC5        0.0000 
      2 CA         32.8840   -2.6460   36.6860 C.3      12 GLL5        0.0000 
      3 CA         32.4230   -6.4540   38.7540 C.3       8 GLP5        0.0000 
      4 N          29.9625   -3.1365   37.1680 N.am      2 SEC2        0.0000 
      5 N          31.4500   -2.7440   36.7470 N.am     10 SEL2        0.0000 
      6 N          28.4750   -3.5290   37.5890 N.am      6 SEP2        0.0000 
      7 O          30.7275   -3.5910   36.0475 O.2       1 ALC1        0.0000 
      8 O          31.4500   -2.7440   36.7470 O.2       9 ALL1        0.0000 
      9 O          30.0050   -4.4380   35.3480 O.2       5 ALP1        0.0000 
     10 CA         32.8030    3.8395   30.7185 C.3       4 GLC5        0.0000 
     11 CA         33.9030    3.1510   32.4290 C.3      12 GLL5        0.0000 
     12 CA         31.7030    4.5280   29.0080 C.3       8 GLP5        0.0000 
     13 CA         33.2935    4.9525   33.0135 C.3       4 GLC5        0.0000 
     14 CA         32.6840    6.7540   33.5980 C.3       8 GLP5        0.0000 
     15 O          34.6170    4.5760   30.5350 O.2       1 ALC1        0.0000 
     16 O          34.8440    3.8070   31.7340 O.2       9 ALL1        0.0000 
     17 O          34.3900    5.3450   29.3360 O.2       5 ALP1        0.0000 
     18 N          32.1300    4.7575   31.5945 N.am      2 SEC2        0.0000 
     19 N          32.5800    3.4400   32.3120 N.am     10 SEL2        0.0000 
     20 N          31.6800    6.0750   30.8770 N.am      6 SEP2        0.0000 
     21 CA         32.2455    1.3680   31.7980 C.3       4 GLC5        0.0000 
     22 CA         31.6390    2.7520   33.0180 C.3      12 GLL5        0.0000 
     23 CA         32.8520   -0.0160   30.5780 C.3       8 GLP5        0.0000 
     24 CA         31.6710    3.6400   31.0130 C.3       4 GLC5        0.0000 
     25 CA         30.9465    4.5190   33.2450 C.3       4 GLC5        0.0000 
     26 CA         30.2540    6.2860   33.4720 C.3       8 GLP5        0.0000 
     27 CA         32.0275    3.3755   34.7795 C.3       4 GLC5        0.0000 
     28 CA         32.4160    3.9990   36.5410 C.3       8 GLP5        0.0000 
     29 CA         31.7855    0.8685   35.6410 C.3       4 GLC5        0.0000 
     30 CA         33.2450    1.3480   34.0720 C.3      12 GLL5        0.0000 
     31 CA         30.3260    0.3890   37.2100 C.3       8 GLP5        0.0000 
     32 N          33.3330   -3.1155   43.5415 N.am      2 SEC2        0.0000 
     33 N          34.4170   -2.6780   42.8560 N.am     10 SEL2        0.0000 
     34 N          32.2490   -3.5530   44.2270 N.am      6 SEP2        0.0000 
     35 N          37.4540   -3.8345   43.5115 N.am      2 SEC2        0.0000 
     36 N          37.0230   -2.6960   43.2490 N.am     10 SEL2        0.0000 
     37 N          37.8850   -4.9730   43.7740 N.am      6 SEP2        0.0000 
     38 CA         33.4855   -0.6250   43.9945 C.3       4 GLC5        0.0000 
     39 CA         34.6250    0.1680   42.5400 C.3      12 GLL5        0.0000 
     40 CA         32.3460   -1.4180   45.4490 C.3       8 GLP5        0.0000 
     41 CA         34.8360    0.3105   44.7075 C.3       4 GLC5        0.0000 
     42 CA         35.0190    1.5210   42.9890 C.3      12 GLL5        0.0000 
     43 CA         34.6530   -0.9000   46.4260 C.3       8 GLP5        0.0000 
     44 CA         34.5190    2.7425   44.3420 C.3       4 GLC5        0.0000 
     45 CA         34.0190    3.9640   45.6950 C.3       8 GLP5        0.0000 
     46 CA         36.3530    2.8210   40.1730 C.3       4 GLC5        0.0000 
     47 CA         36.0120    2.1620   42.0590 C.3      12 GLL5        0.0000 
     48 CA         36.6940    3.4800   38.2870 C.3       8 GLP5        0.0000 
     49 N          36.5395    4.8135   42.2395 N.am      2 SEC2        0.0000 
     50 N          35.6640    3.5290   41.9270 N.am     10 SEL2        0.0000 
     51 N          37.4150    6.0980   42.5520 N.am      6 SEP2        0.0000 
     52 O          34.5760    3.2880   41.2330 O.2       1 ALC1        0.0000 
     53 O          35.6640    3.5290   41.9270 O.2       9 ALL1        0.0000 
     54 O          33.4880    3.0470   40.5390 O.2       5 ALP1        0.0000 
     55 CA         38.0885    4.0835   42.9410 C.3       4 GLC5        0.0000 
     56 CA         37.3620    1.9790   42.7970 C.3      12 GLL5        0.0000 
     57 CA         38.8150    6.1880   43.0850 C.3       8 GLP5        0.0000 
     58 CA         38.4240    0.6680   41.9390 C.3       4 GLC5        0.0000 
     59 CA         39.4860   -0.6430   41.0810 C.3       8 GLP5        0.0000 
     60 N          39.4710    3.1585   43.2625 N.am      2 SEC2        0.0000 
     61 N          38.3280    2.9840   42.5240 N.am     10 SEL2        0.0000 
     62 N          40.6140    3.3330   44.0010 N.am      6 SEP2        0.0000 
     63 N          37.8715    4.5410   42.5380 N.am      2 SEC2        0.0000 
     64 CA         35.7650    0.5935   45.3465 C.3       4 GLC5        0.0000 
     65 CA         36.8770    2.0870   44.2670 C.3      12 GLL5        0.0000 
     66 CA         35.4480    3.0255   44.9810 C.3       4 GLC5        0.0000 
     67 O          40.2590   -1.1305   48.4965 O.2       1 ALC1        0.0000 
     68 O          40.2430   -2.1020   47.1780 O.2       9 ALL1        0.0000 
     69 O          40.2750   -0.1590   49.8150 O.2       5 ALP1        0.0000 
     70 CA         37.0660    2.4170   47.5165 C.3       4 GLC5        0.0000 
     71 CA         38.3930    2.4630   46.1550 C.3      12 GLL5        0.0000 
     72 CA         35.7390    2.3710   48.8780 C.3       8 GLP5        0.0000 
     73 NZ         32.9780   -5.6845   35.1260 N.4       3 LYC4        0.0000 
     74 NZ         32.0520   -4.9590   34.3090 N.4      11 LYL4        0.0000 
     75 NZ         35.1200   -5.9110   36.2260 N.4       7 LYP4        0.0000 
     76 N          31.0285   -4.6985   34.8285 N.am      2 SEC2        0.0000 
     77 N          32.0520   -4.9590   34.3090 N.am     10 SEL2        0.0000 
     78 N          30.0050   -4.4380   35.3480 N.am      6 SEP2        0.0000 
     79 N          32.9780   -5.6845   35.1260 N.am      2 SEC2        0.0000 
     80 N          33.9040   -6.4100   35.9430 N.am      6 SEP2        0.0000 
     81 N          31.1840   -2.2470   31.7260 N.am      2 SEC2        0.0000 
     82 N          31.6810   -3.6030   32.2020 N.am     10 SEL2        0.0000 
     83 N          30.6870   -0.8910   31.2500 N.am      6 SEP2        0.0000 
     84 N          31.7205   -3.1275   30.7690 N.am      2 SEC2        0.0000 
     85 N          31.7600   -2.6520   29.3360 N.am      6 SEP2        0.0000 
     86 N          31.4560   -4.4735   31.1375 N.am      2 SEC2        0.0000 
     87 N          31.2310   -5.3440   30.0730 N.am      6 SEP2        0.0000 
     88 NZ         34.7750   -4.4195   34.4275 N.4       3 LYC4        0.0000 
     89 NZ         33.9930   -4.0190   33.2270 N.4      11 LYL4        0.0000 
     90 N          34.7750   -4.4195   34.4275 N.am      2 SEC2        0.0000 
     91 N          33.9930   -4.0190   33.2270 N.am     10 SEL2        0.0000 
     92 N          35.5570   -4.8200   35.6280 N.am      6 SEP2        0.0000 
     93 CA         35.4600    3.8737   33.7933 C.3       4 GLC5        0.0000 
     94 CA         34.3150    2.0540   33.3320 C.3      12 GLL5        0.0000 
     95 CA         36.8110    5.1450   34.7060 C.3       8 GLP5        0.0000 
     96 CA         33.2645    0.9796   32.0271 C.3       4 GLC5        0.0000 
     97 CA         33.0465    2.9871   35.0086 C.3       4 GLC5        0.0000 
     98 CA         36.5652   -0.4585   46.1392 C.3       4 GLC5        0.0000 
     99 CA         38.0350    0.2370   45.3530 C.3      12 GLL5        0.0000 
    100 CA         38.2495   -1.0112   48.2105 C.3       4 GLC5        0.0000 
    101 CA         39.5760    0.6300   47.2320 C.3      12 GLL5        0.0000 
    102 CA         37.2510   -2.2020   49.6290 C.3       8 GLP5        0.0000 
    103 CA         39.6405    3.8365   46.9267 C.3       4 GLC5        0.0000 
    104 CA         39.3370    1.9910   47.1400 C.3      12 GLL5        0.0000 
    105 CA         40.4160    5.4460   47.2060 C.3       8 GLP5        0.0000 
    106 CA         37.9412    1.2931   48.3515 C.3       4 GLC5        0.0000 
    107 CA         36.5900    1.5010   49.7370 C.3       8 GLP5        0.0000 
    108 CA         31.7613   -0.6656   36.7970 C.3       4 GLC5        0.0000 
@<TRIPOS>BOND
@<TRIPOS>SUBSTRUCTURE
     1 ALC1        7 GROUP        1 X    ALC  0     ROOT ALC X 1
     2 SEC2        4 GROUP        1 X    SEC  0     **** SEC X 2
     3 LYC4       73 GROUP        1 X    LYC  0     **** LYC X 4
     4 GLC5        1 GROUP        1 X    GLC  0     **** GLC X 6
     5 ALP1        9 GROUP        1 Y    ALP  0     ROOT ALP Y 8
     6 SEP2        6 GROUP        1 Y    SEP  0     **** SEP Y 9
     7 LYP4       75 GROUP        1 Y    LYP  0     **** LYP Y 11
     8 GLP5        3 GROUP        1 Y    GLP  0     **** GLP Y 13
     9 ALL1        8 GROUP        1 Z    ALL  0     ROOT ALL Z 15
    10 SEL2        5 GROUP        1 Z    SEL  0     **** SEL Z 16
    11 LYL4       74 GROUP        1 Z    LYL  0     **** LYL Z 18
    12 GLL5        2 GROUP        1 Z    GLL  0     **** GLL Z 20
@<TRIPOS>SET

