#    Name: 4iqg_NAP_3_ligand
#    Modification time : Tue Mar 25 04:15:00 2014

@<TRIPOS>MOLECULE
4iqg_NAP_3_ligand
   73    77     1     0     0
SMALL
NO_CHARGES


@<TRIPOS>ATOM
      1 PA         35.9840   -3.6990   39.9560 P.3       1 NAP304      0.0000 
      2 O1A        37.2030   -3.5260   39.0540 O.co2     1 NAP304      0.0000 
      3 O2A        35.7350   -4.9510   40.7370 O.co2     1 NAP304      0.0000 
      4 O5B        34.6210   -3.2590   39.1760 O.3       1 NAP304      0.0000 
      5 C5B        34.7660   -2.1620   38.2670 C.3       1 NAP304      0.0000 
      6 C4B        33.4070   -1.6940   37.7570 C.3       1 NAP304      0.0000 
      7 O4B        33.5850   -0.4230   37.1360 O.3       1 NAP304      0.0000 
      8 C3B        32.8840   -2.6460   36.6860 C.3       1 NAP304      0.0000 
      9 O3B        31.4500   -2.7440   36.7470 O.3       1 NAP304      0.0000 
     10 C2B        33.3040   -2.0060   35.3550 C.3       1 NAP304      0.0000 
     11 O2B        32.4460   -2.4100   34.2620 O.3       1 NAP304      0.0000 
     12 C1B        33.1910   -0.5350   35.7380 C.3       1 NAP304      0.0000 
     13 N9A        33.8900    0.4290   34.8330 N.pl3     1 NAP304      0.0000 
     14 C8A        35.2210    0.5030   34.5870 C.2       1 NAP304      0.0000 
     15 N7A        35.4960    1.5050   33.7070 N.2       1 NAP304      0.0000 
     16 C5A        34.3150    2.0540   33.3320 C.ar      1 NAP304      0.0000 
     17 C6A        33.9030    3.1510   32.4290 C.ar      1 NAP304      0.0000 
     18 N6A        34.8440    3.8070   31.7340 N.pl3     1 NAP304      0.0000 
     19 N1A        32.5800    3.4400   32.3120 N.ar      1 NAP304      0.0000 
     20 C2A        31.6390    2.7520   33.0180 C.ar      1 NAP304      0.0000 
     21 N3A        31.9430    1.7210   33.8510 N.ar      1 NAP304      0.0000 
     22 C4A        33.2450    1.3480   34.0720 C.ar      1 NAP304      0.0000 
     23 O3         36.1910   -2.3780   40.8790 O.3       1 NAP304      0.0000 
     24 PN         35.8050   -2.2060   42.4670 P.3       1 NAP304      0.0000 
     25 O1N        34.4170   -2.6780   42.8560 O.co2     1 NAP304      0.0000 
     26 O2N        37.0230   -2.6960   43.2490 O.co2     1 NAP304      0.0000 
     27 O5D        35.7990   -0.6080   42.4370 O.3       1 NAP304      0.0000 
     28 C5D        34.6250    0.1680   42.5400 C.3       1 NAP304      0.0000 
     29 C4D        35.0190    1.5210   42.9890 C.3       1 NAP304      0.0000 
     30 O4D        35.6810    1.3110   44.2480 O.3       1 NAP304      0.0000 
     31 C3D        36.0120    2.1620   42.0590 C.3       1 NAP304      0.0000 
     32 O3D        35.6640    3.5290   41.9270 O.3       1 NAP304      0.0000 
     33 C2D        37.3620    1.9790   42.7970 C.3       1 NAP304      0.0000 
     34 O2D        38.3280    2.9840   42.5240 O.3       1 NAP304      0.0000 
     35 C1D        36.8770    2.0870   44.2670 C.3       1 NAP304      0.0000 
     36 N1N        37.7990    1.5770   45.2820 N.pl3     1 NAP304      0.0000 
     37 C2N        38.0350    0.2370   45.3530 C.ar      1 NAP304      0.0000 
     38 C3N        38.9200   -0.2710   46.3520 C.ar      1 NAP304      0.0000 
     39 C7N        39.1900   -1.7320   46.4020 C.2       1 NAP304      0.0000 
     40 O7N        38.4940   -2.5180   45.6810 O.2       1 NAP304      0.0000 
     41 N7N        40.2430   -2.1020   47.1780 N.am      1 NAP304      0.0000 
     42 C4N        39.5760    0.6300   47.2320 C.ar      1 NAP304      0.0000 
     43 C5N        39.3370    1.9910   47.1400 C.ar      1 NAP304      0.0000 
     44 C6N        38.3930    2.4630   46.1550 C.ar      1 NAP304      0.0000 
     45 P2B        32.5340   -3.8340   33.4520 P.3       1 NAP304      0.0000 
     46 O1X        32.0520   -4.9590   34.3090 O.co2     1 NAP304      0.0000 
     47 O2X        31.6810   -3.6030   32.2020 O.co2     1 NAP304      0.0000 
     48 O3X        33.9930   -4.0190   33.2270 O.co2     1 NAP304      0.0000 
     49 H          35.3751   -2.4399   37.3932 H         1 NAP304      0.0000 
     50 H          35.2586   -1.3026   38.7471 H         1 NAP304      0.0000 
     51 H          32.7203   -1.6531   38.5578 H         1 NAP304      0.0000 
     52 H          33.3748   -3.5744   36.7804 H         1 NAP304      0.0000 
     53 H          34.3326   -2.2299   35.2130 H         1 NAP304      0.0000 
     54 H          32.0859   -0.3037   35.6966 H         1 NAP304      0.0000 
     55 H          35.8951   -0.0823   34.9858 H         1 NAP304      0.0000 
     56 H          34.5231    4.5641   31.1650 H         1 NAP304      0.0000 
     57 H          35.7824    3.4803   31.8469 H         1 NAP304      0.0000 
     58 H          30.6236    3.0345   32.9121 H         1 NAP304      0.0000 
     59 H          33.9232   -0.2556   43.2657 H         1 NAP304      0.0000 
     60 H          34.1095    0.2503   41.5777 H         1 NAP304      0.0000 
     61 H          34.1710    2.1367   43.1095 H         1 NAP304      0.0000 
     62 H          36.0415    1.6257   41.1625 H         1 NAP304      0.0000 
     63 H          37.6803    0.9846   42.6529 H         1 NAP304      0.0000 
     64 H          36.6252    3.1229   44.4363 H         1 NAP304      0.0000 
     65 H          37.5951   -0.4258   44.7079 H         1 NAP304      0.0000 
     66 H          40.4252   -3.0837   47.2335 H         1 NAP304      0.0000 
     67 H          40.7425   -1.3598   47.6248 H         1 NAP304      0.0000 
     68 H          40.2257    0.2564   47.9322 H         1 NAP304      0.0000 
     69 H          39.8003    2.6620   47.7379 H         1 NAP304      0.0000 
     70 H          38.1832    3.4646   46.1281 H         1 NAP304      0.0000 
     71 H          31.2151   -3.4908   36.1249 H         1 NAP304      0.0000 
     72 H          34.8343    3.5320   41.3689 H         1 NAP304      0.0000 
     73 H          37.8172    3.7198   42.0792 H         1 NAP304      0.0000 
@<TRIPOS>BOND
     1    2    1 ar   
     2    3    1 ar   
     3    4    1 1    
     4   23    1 1    
     5    5    4 1    
     6    6    5 1    
     7   49    5 1    
     8   50    5 1    
     9    7    6 1    
    10    8    6 1    
    11   51    6 1    
    12   12    7 1    
    13    9    8 1    
    14   10    8 1    
    15   52    8 1    
    16   71    9 1    
    17   11   10 1    
    18   12   10 1    
    19   53   10 1    
    20   45   11 1    
    21   13   12 1    
    22   54   12 1    
    23   14   13 1    
    24   22   13 1    
    25   15   14 2    
    26   55   14 1    
    27   16   15 1    
    28   17   16 ar   
    29   22   16 ar   
    30   18   17 1    
    31   19   17 ar   
    32   56   18 1    
    33   57   18 1    
    34   20   19 ar   
    35   21   20 ar   
    36   58   20 1    
    37   22   21 ar   
    38   24   23 1    
    39   25   24 ar   
    40   26   24 ar   
    41   27   24 1    
    42   28   27 1    
    43   29   28 1    
    44   59   28 1    
    45   60   28 1    
    46   30   29 1    
    47   31   29 1    
    48   61   29 1    
    49   35   30 1    
    50   32   31 1    
    51   33   31 1    
    52   62   31 1    
    53   72   32 1    
    54   34   33 1    
    55   35   33 1    
    56   63   33 1    
    57   73   34 1    
    58   36   35 1    
    59   64   35 1    
    60   37   36 ar   
    61   44   36 ar   
    62   38   37 ar   
    63   65   37 1    
    64   39   38 1    
    65   42   38 ar   
    66   40   39 2    
    67   41   39 am   
    68   66   41 1    
    69   67   41 1    
    70   43   42 ar   
    71   68   42 1    
    72   44   43 ar   
    73   69   43 1    
    74   70   44 1    
    75   46   45 ar   
    76   47   45 ar   
    77   48   45 ar   
@<TRIPOS>SUBSTRUCTURE
     1 NAP304      1 GROUP   
@<TRIPOS>SET

