#    Name: 1esm_COA_1_INTS_M
#    Modification time : Tue Mar 25 00:12:50 2014

@<TRIPOS>MOLECULE
1esm_COA_1_INTS_M
   89     0     9     0     0
SMALL
NO_CHARGES


@<TRIPOS>ATOM
      1 CA         22.3495    7.0845   75.0040 C.3       3 GLC5        0.0000 
      2 CA         23.7700    6.8130   76.0060 C.3       9 GLL5        0.0000 
      3 CA         20.9290    7.3560   74.0020 C.3       6 GLP5        0.0000 
      4 CA         23.3050    5.6940   77.7240 C.3       3 GLC5        0.0000 
      5 CA         22.8400    4.5750   79.4420 C.3       6 GLP5        0.0000 
      6 CA         23.6740    9.8040   73.7905 C.3       3 GLC5        0.0000 
      7 CA         24.8790   10.9380   75.2110 C.3       9 GLL5        0.0000 
      8 CA         22.4690    8.6700   72.3700 C.3       6 GLP5        0.0000 
      9 CA         25.4560   15.3745   75.3625 C.3       3 GLC5        0.0000 
     10 CA         25.4910   13.2080   75.7400 C.3       9 GLL5        0.0000 
     11 CA         25.4210   17.5410   74.9850 C.3       6 GLP5        0.0000 
     12 N          26.8125   13.6635   79.8040 N.am      1 SEC2        0.0000 
     13 N          26.2280   13.7330   78.5080 N.am      7 SEL2        0.0000 
     14 N          27.3970   13.5940   81.1000 N.am      4 SEP2        0.0000 
     15 NZ         24.7400   16.8395   78.6560 N.4       2 LYC4        0.0000 
     16 NZ         24.8660   15.8160   77.9020 N.4       8 LYL4        0.0000 
     17 NZ         23.4690   18.3850   78.9870 N.4       5 LYP4        0.0000 
     18 N          25.5980   16.4030   76.9115 N.am      1 SEC2        0.0000 
     19 N          24.8660   15.8160   77.9020 N.am      7 SEL2        0.0000 
     20 N          26.3300   16.9900   75.9210 N.am      4 SEP2        0.0000 
     21 N          23.8675   16.8520   77.9070 N.am      1 SEC2        0.0000 
     22 N          22.8690   17.8880   77.9120 N.am      4 SEP2        0.0000 
     23 N          24.7400   16.8395   78.6560 N.am      1 SEC2        0.0000 
     24 N          24.6140   17.8630   79.4100 N.am      4 SEP2        0.0000 
     25 CA         25.4420   15.5780   74.0985 C.3       3 GLC5        0.0000 
     26 CA         25.4630   13.6150   73.2120 C.3       9 GLL5        0.0000 
     27 N          27.8395   12.1655   73.6270 N.am      1 SEC2        0.0000 
     28 N          26.6100   12.7950   72.9000 N.am      7 SEL2        0.0000 
     29 N          29.0690   11.5360   74.3540 N.am      4 SEP2        0.0000 
     30 NZ         28.7960   11.8590   72.8440 N.4       2 LYC4        0.0000 
     31 NZ         28.5230   12.1820   71.3340 N.4       8 LYL4        0.0000 
     32 NZ         29.7330   10.3900   74.2820 N.4       5 LYP4        0.0000 
     33 N          30.0855   12.7260   71.7775 N.am      1 SEC2        0.0000 
     34 N          28.5230   12.1820   71.3340 N.am      7 SEL2        0.0000 
     35 N          31.6480   13.2700   72.2210 N.am      4 SEP2        0.0000 
     36 N          28.7960   11.8590   72.8440 N.am      1 SEC2        0.0000 
     37 N          29.1770   10.9700   72.2265 N.am      1 SEC2        0.0000 
     38 N          29.8310    9.7580   73.1190 N.am      4 SEP2        0.0000 
     39 NZ         28.8100   15.4485   70.8550 N.4       2 LYC4        0.0000 
     40 NZ         28.2910   14.5300   72.2060 N.4       8 LYL4        0.0000 
     41 NZ         29.3290   16.3670   69.5040 N.4       5 LYP4        0.0000 
     42 NZ         28.8030   14.9465   69.1000 N.4       2 LYC4        0.0000 
     43 NZ         28.2770   13.5260   68.6960 N.4       8 LYL4        0.0000 
     44 N          28.8030   14.9465   69.1000 N.am      1 SEC2        0.0000 
     45 N          28.2770   13.5260   68.6960 N.am      7 SEL2        0.0000 
     46 N          29.3290   16.3670   69.5040 N.am      4 SEP2        0.0000 
     47 CA         26.3555   10.0535   64.9005 C.3       3 GLC5        0.0000 
     48 CA         25.7200    9.8220   66.9150 C.3       9 GLL5        0.0000 
     49 CA         26.9910   10.2850   62.8860 C.3       6 GLP5        0.0000 
     50 CA         26.8560   11.3925   66.1455 C.3       3 GLC5        0.0000 
     51 CA         27.9920   12.9630   65.3760 C.3       6 GLP5        0.0000 
     52 CA         22.8860    9.3870   66.6430 C.3       3 GLC5        0.0000 
     53 CA         24.1250    8.9030   68.4000 C.3       9 GLL5        0.0000 
     54 CA         21.6470    9.8710   64.8860 C.3       6 GLP5        0.0000 
     55 CA         23.8720    7.4050   66.7570 C.3       3 GLC5        0.0000 
     56 CA         23.6190    5.9070   65.1140 C.3       6 GLP5        0.0000 
     57 CA         22.3105    8.6015   68.9065 C.3       3 GLC5        0.0000 
     58 CA         20.4960    8.3000   69.4130 C.3       6 GLP5        0.0000 
     59 CA         23.2970    8.7865   70.3850 C.3       3 GLC5        0.0000 
     60 CA         27.0060    5.9605   65.0220 C.3       3 GLC5        0.0000 
     61 CA         28.3620    6.0960   66.4420 C.3       9 GLL5        0.0000 
     62 CA         25.6500    5.8250   63.6020 C.3       6 GLP5        0.0000 
     63 N          30.8185    5.0975   70.2355 N.am      1 SEC2        0.0000 
     64 N          29.9400    5.3990   69.3940 N.am      7 SEL2        0.0000 
     65 N          31.6970    4.7960   71.0770 N.am      4 SEP2        0.0000 
     66 N          31.1030    6.2655   68.8825 N.am      1 SEC2        0.0000 
     67 N          32.2660    7.1320   68.3710 N.am      4 SEP2        0.0000 
     68 CA         25.9060    3.9305   69.2285 C.3       3 GLC5        0.0000 
     69 CA         27.4610    4.0120   70.2250 C.3       9 GLL5        0.0000 
     70 CA         24.3510    3.8490   68.2320 C.3       6 GLP5        0.0000 
     71 CA         29.4660    1.8850   73.5980 C.3       3 GLC5        0.0000 
     72 CA         27.9530    2.4830   72.5010 C.3       9 GLL5        0.0000 
     73 CA         30.9790    1.2870   74.6950 C.3       6 GLP5        0.0000 
     74 CA         27.5285    2.2600   74.2690 C.3       3 GLC5        0.0000 
     75 CA         27.1040    2.0370   76.0370 C.3       6 GLP5        0.0000 
     76 CA         26.4940    1.8385   71.4425 C.3       3 GLC5        0.0000 
     77 CA         25.0350    1.1940   70.3840 C.3       6 GLP5        0.0000 
     78 CA         28.4155    0.4915   72.6545 C.3       3 GLC5        0.0000 
     79 CA         28.8780   -1.5000   72.8080 C.3       6 GLP5        0.0000 
     80 CA         23.7698    7.8975   73.3236 C.3       3 GLC5        0.0000 
     81 CA         25.3760    7.5860   73.9510 C.3       9 GLL5        0.0000 
     82 CA         26.4720    9.7278   76.2480 C.3       3 GLC5        0.0000 
     83 CA         27.5440    8.1070   76.8860 C.3       6 GLP5        0.0000 
     84 CA         30.1330    5.4108   65.2163 C.3       3 GLC5        0.0000 
     85 CA         31.4360    5.2690   63.6660 C.3       6 GLP5        0.0000 
     86 CA         26.4857    2.3450   70.4547 C.3       3 GLC5        0.0000 
     87 CA         29.9708    1.8963   71.4018 C.3       3 GLC5        0.0000 
     88 CA         28.4120    2.9800   70.8260 C.3       9 GLL5        0.0000 
     89 CA         31.7590    1.0610   71.1400 C.3       6 GLP5        0.0000 
@<TRIPOS>BOND
@<TRIPOS>SUBSTRUCTURE
     1 SEC2       12 GROUP        1 X    SEC  0     ROOT SEC X 2
     2 LYC4       15 GROUP        1 X    LYC  0     **** LYC X 4
     3 GLC5        1 GROUP        1 X    GLC  0     **** GLC X 6
     4 SEP2       14 GROUP        1 Y    SEP  0     ROOT SEP Y 9
     5 LYP4       17 GROUP        1 Y    LYP  0     **** LYP Y 11
     6 GLP5        3 GROUP        1 Y    GLP  0     **** GLP Y 13
     7 SEL2       13 GROUP        1 Z    SEL  0     ROOT SEL Z 16
     8 LYL4       16 GROUP        1 Z    LYL  0     **** LYL Z 18
     9 GLL5        2 GROUP        1 Z    GLL  0     **** GLL Z 20
@<TRIPOS>SET

