#    Name: 1esm_COA_1_ligand
#    Modification time : Tue Mar 25 00:12:50 2014

@<TRIPOS>MOLECULE
1esm_COA_1_ligand
   79    81     1     0     0
SMALL
NO_CHARGES


@<TRIPOS>ATOM
      1 N1A        24.2470    5.8470   75.1970 N.ar      1 COA401      0.0000 
      2 C2A        23.7700    6.8130   76.0060 C.ar      1 COA401      0.0000 
      3 N3A        23.9990    8.1410   75.9240 N.ar      1 COA401      0.0000 
      4 C4A        24.8120    8.4640   74.8500 C.ar      1 COA401      0.0000 
      5 C5A        25.3760    7.5860   73.9510 C.ar      1 COA401      0.0000 
      6 C6A        25.0470    6.2250   74.1540 C.ar      1 COA401      0.0000 
      7 N6A        25.5160    5.2840   73.3630 N.pl3     1 COA401      0.0000 
      8 N7A        26.1420    8.2630   73.0010 N.2       1 COA401      0.0000 
      9 C8A        26.0310    9.5120   73.3750 C.2       1 COA401      0.0000 
     10 N9A        25.2460    9.7060   74.4880 N.pl3     1 COA401      0.0000 
     11 C1B        24.8790   10.9380   75.2110 C.3       1 COA401      0.0000 
     12 C2B        25.9210   11.7590   76.0090 C.3       1 COA401      0.0000 
     13 O2B        25.9460   11.3570   77.3940 O.3       1 COA401      0.0000 
     14 C3B        25.4910   13.2080   75.7400 C.3       1 COA401      0.0000 
     15 O3B        24.5680   13.8150   76.7230 O.3       1 COA401      0.0000 
     16 P3B        24.9150   14.3800   78.1760 P.3       1 COA401      0.0000 
     17 O7A        26.2280   13.7330   78.5080 O.co2     1 COA401      0.0000 
     18 O8A        23.7670   13.8710   78.9450 O.co2     1 COA401      0.0000 
     19 O9A        24.8660   15.8160   77.9020 O.co2     1 COA401      0.0000 
     20 C4B        24.6880   13.1300   74.4760 C.3       1 COA401      0.0000 
     21 O4B        24.2780   11.8030   74.2630 O.3       1 COA401      0.0000 
     22 C5B        25.4630   13.6150   73.2120 C.3       1 COA401      0.0000 
     23 O5B        26.6100   12.7950   72.9000 O.3       1 COA401      0.0000 
     24 P1A        27.6110   13.2870   71.7280 P.3       1 COA401      0.0000 
     25 O1A        28.5230   12.1820   71.3340 O.co2     1 COA401      0.0000 
     26 O2A        28.2910   14.5300   72.2060 O.co2     1 COA401      0.0000 
     27 O3A        26.7630   13.8020   70.5260 O.3       1 COA401      0.0000 
     28 P2A        26.8560   13.3080   69.0350 P.3       1 COA401      0.0000 
     29 O4A        28.2770   13.5260   68.6960 O.co2     1 COA401      0.0000 
     30 O5A        25.9000   14.1900   68.2940 O.co2     1 COA401      0.0000 
     31 O6A        26.5630   11.7530   68.6640 O.3       1 COA401      0.0000 
     32 CBP        25.4930    9.5530   68.3660 C.3       1 COA401      0.0000 
     33 CCP        25.4070   10.9580   69.0090 C.3       1 COA401      0.0000 
     34 CDP        25.7200    9.8220   66.9150 C.3       1 COA401      0.0000 
     35 CEP        24.1250    8.9030   68.4000 C.3       1 COA401      0.0000 
     36 CAP        26.6450    8.6200   68.9760 C.3       1 COA401      0.0000 
     37 OAP        26.1680    8.2130   70.2610 O.3       1 COA401      0.0000 
     38 C9P        26.5360    7.2810   68.1180 C.2       1 COA401      0.0000 
     39 O9P        25.8980    6.5460   67.8960 O.2       1 COA401      0.0000 
     40 N8P        27.9710    7.2060   67.4060 N.am      1 COA401      0.0000 
     41 C7P        28.3620    6.0960   66.4420 C.3       1 COA401      0.0000 
     42 C6P        29.2980    5.0090   67.0910 C.3       1 COA401      0.0000 
     43 C5P        29.1440    4.9230   68.6000 C.2       1 COA401      0.0000 
     44 O5P        29.9400    5.3990   69.3940 O.2       1 COA401      0.0000 
     45 N4P        28.0280    4.2920   68.8760 N.am      1 COA401      0.0000 
     46 C3P        27.4610    4.0120   70.2250 C.3       1 COA401      0.0000 
     47 C2P        28.4120    2.9800   70.8260 C.3       1 COA401      0.0000 
     48 S1P        27.9530    2.4830   72.5010 S.3       1 COA401      0.0000 
     49 H          23.1222    6.4844   76.8242 H         1 COA401      0.0000 
     50 H          26.0751    5.5939   72.5940 H         1 COA401      0.0000 
     51 H          25.2706    4.3447   73.6030 H         1 COA401      0.0000 
     52 H          26.4700   10.2913   72.9100 H         1 COA401      0.0000 
     53 H          24.0629   10.6745   75.9485 H         1 COA401      0.0000 
     54 H          26.8668   11.6032   75.5076 H         1 COA401      0.0000 
     55 H          26.3346   13.8125   75.5569 H         1 COA401      0.0000 
     56 H          23.8152   13.7829   74.5753 H         1 COA401      0.0000 
     57 H          25.7543   14.6652   73.3971 H         1 COA401      0.0000 
     58 H          24.7382   13.6318   72.3775 H         1 COA401      0.0000 
     59 H          24.4782   11.4238   68.6581 H         1 COA401      0.0000 
     60 H          25.3228   10.8186   70.0935 H         1 COA401      0.0000 
     61 H          27.5230    9.0240   68.9040 H         1 COA401      0.0000 
     62 H          28.6127    7.9349   67.6264 H         1 COA401      0.0000 
     63 H          28.8882    6.5193   65.5797 H         1 COA401      0.0000 
     64 H          27.4640    5.5881   66.0742 H         1 COA401      0.0000 
     65 H          30.3308    5.2604   66.8342 H         1 COA401      0.0000 
     66 H          29.0571    4.0447   66.6350 H         1 COA401      0.0000 
     67 H          27.4036    3.9072   68.0840 H         1 COA401      0.0000 
     68 H          26.4864    3.5863   70.1440 H         1 COA401      0.0000 
     69 H          27.4702    4.8915   70.8285 H         1 COA401      0.0000 
     70 H          29.4133    3.3487   70.9595 H         1 COA401      0.0000 
     71 H          28.4142    2.0431   70.2983 H         1 COA401      0.0000 
     72 H          26.5632   10.3368   66.7602 H         1 COA401      0.0000 
     73 H          25.7922    8.9757   66.3872 H         1 COA401      0.0000 
     74 H          24.9740   10.3542   66.5148 H         1 COA401      0.0000 
     75 H          24.1376    7.9895   67.9933 H         1 COA401      0.0000 
     76 H          23.7845    8.8029   69.3349 H         1 COA401      0.0000 
     77 H          23.4467    9.4385   67.8968 H         1 COA401      0.0000 
     78 H          26.0868   12.2040   77.9067 H         1 COA401      0.0000 
     79 H          26.7313    8.7152   70.9170 H         1 COA401      0.0000 
@<TRIPOS>BOND
     1    2    1 ar   
     2    6    1 ar   
     3    3    2 ar   
     4   49    2 1    
     5    4    3 ar   
     6    5    4 ar   
     7   10    4 1    
     8    6    5 ar   
     9    8    5 1    
    10    7    6 1    
    11   50    7 1    
    12   51    7 1    
    13    9    8 2    
    14   10    9 1    
    15   52    9 1    
    16   11   10 1    
    17   12   11 1    
    18   21   11 1    
    19   53   11 1    
    20   13   12 1    
    21   14   12 1    
    22   54   12 1    
    23   78   13 1    
    24   15   14 1    
    25   20   14 1    
    26   55   14 1    
    27   16   15 1    
    28   17   16 ar   
    29   18   16 ar   
    30   19   16 ar   
    31   21   20 1    
    32   22   20 1    
    33   56   20 1    
    34   23   22 1    
    35   57   22 1    
    36   58   22 1    
    37   24   23 1    
    38   25   24 ar   
    39   26   24 ar   
    40   27   24 1    
    41   28   27 1    
    42   29   28 ar   
    43   30   28 ar   
    44   31   28 1    
    45   33   31 1    
    46   33   32 1    
    47   34   32 1    
    48   35   32 1    
    49   36   32 1    
    50   59   33 1    
    51   60   33 1    
    52   72   34 1    
    53   73   34 1    
    54   74   34 1    
    55   75   35 1    
    56   76   35 1    
    57   77   35 1    
    58   37   36 1    
    59   38   36 1    
    60   61   36 1    
    61   79   37 1    
    62   39   38 2    
    63   40   38 am   
    64   41   40 1    
    65   62   40 1    
    66   42   41 1    
    67   63   41 1    
    68   64   41 1    
    69   43   42 1    
    70   65   42 1    
    71   66   42 1    
    72   44   43 2    
    73   45   43 am   
    74   46   45 1    
    75   67   45 1    
    76   47   46 1    
    77   68   46 1    
    78   69   46 1    
    79   48   47 1    
    80   70   47 1    
    81   71   47 1    
@<TRIPOS>SUBSTRUCTURE
     1 COA401      1 GROUP   
@<TRIPOS>SET

