#    Name: 4AJ3_1_CAVITY_N1_6.mol2
#    Modification time : Tue Mar 11 17:20:43 2014

@<TRIPOS>MOLECULE
4AJ3_1_CAVITY_N1_6.mol2
   71     0     6     0     0
SMALL
NO_CHARGES


@<TRIPOS>ATOM
      1 CA        -41.0196  -17.3360    0.6759 C.3       5 GLY6        0.0000 
      2 CA        -40.3426  -18.5466    1.2469 C.3       5 GLY6        0.0000 
      3 N         -42.3573  -17.9705    0.9165 N.2       2 ALA2        0.0000 
      4 DU        -41.6804  -19.1812    1.4875 H         6 CUB7        0.0000 
      5 O         -43.0181  -19.8157    1.7280 O.2       2 ALA2        0.0000 
      6 O         -36.2820  -17.2607   -0.8407 O.2       2 ALA2        0.0000 
      7 NZ        -35.6051  -18.4714   -0.2697 N.2       3 LYS4        0.0000 
      8 O         -37.6198  -17.8953   -0.6001 O.2       2 ALA2        0.0000 
      9 DU        -36.9428  -19.1060   -0.0291 H         6 CUB7        0.0000 
     10 CA        -38.9575  -18.5299   -0.3596 C.3       5 GLY6        0.0000 
     11 DU        -38.2805  -19.7405    0.2114 H         6 CUB7        0.0000 
     12 CA        -40.9722  -17.9538   -0.6901 C.3       5 GLY6        0.0000 
     13 CA        -40.2952  -19.1644   -0.1191 C.3       5 GLY6        0.0000 
     14 N         -42.3099  -18.5883   -0.4496 N.2       2 ALA2        0.0000 
     15 DU        -41.6329  -19.7990    0.1214 H         6 CUB7        0.0000 
     16 DU        -40.9560  -21.0096    0.6924 H         6 CUB7        0.0000 
     17 OG        -42.9706  -20.4335    0.3619 O.2       1 SER1        0.0000 
     18 CA        -42.2937  -21.6442    0.9329 C.3       5 GLY6        0.0000 
     19 N         -37.5723  -18.5131   -1.9662 N.2       2 ALA2        0.0000 
     20 N         -36.8954  -19.7237   -1.3952 N.2       2 ALA2        0.0000 
     21 NZ        -36.2184  -20.9344   -0.8242 N.2       3 LYS4        0.0000 
     22 CA        -39.5870  -17.9370   -2.2967 C.3       5 GLY6        0.0000 
     23 CA        -38.9101  -19.1476   -1.7257 C.3       5 GLY6        0.0000 
     24 DU        -38.2331  -20.3583   -1.1547 H         6 CUB7        0.0000 
     25 NZ        -37.5562  -21.5689   -0.5837 N.2       3 LYS4        0.0000 
     26 CA        -41.6017  -17.3609   -2.6272 C.3       5 GLY6        0.0000 
     27 CA        -40.9247  -18.5715   -2.0562 C.3       5 GLY6        0.0000 
     28 DU        -40.2478  -19.7822   -1.4852 H         6 CUB7        0.0000 
     29 DU        -38.8939  -22.2035   -0.3432 H         6 CUB7        0.0000 
     30 O         -42.2624  -19.2061   -1.8156 O.2       2 ALA2        0.0000 
     31 O         -41.5855  -20.4167   -1.2446 O.2       2 ALA2        0.0000 
     32 DU        -40.9085  -21.6274   -0.6736 H         6 CUB7        0.0000 
     33 DU        -40.2316  -22.8381   -0.1026 H         6 CUB7        0.0000 
     34 OG        -42.9232  -21.0513   -1.0041 O.2       1 SER1        0.0000 
     35 OG        -42.2463  -22.2620   -0.4331 O.2       1 SER1        0.0000 
     36 DU        -41.5693  -23.4726    0.1379 H         6 CUB7        0.0000 
     37 CA        -42.9070  -24.1072    0.3784 C.3       5 GLY6        0.0000 
     38 N         -36.8480  -20.3415   -2.7613 N.2       2 ALA2        0.0000 
     39 N         -39.5396  -18.5547   -3.6627 N.2       2 ALA2        0.0000 
     40 N         -38.8626  -19.7654   -3.0917 N.2       2 ALA2        0.0000 
     41 NZ        -38.1857  -20.9761   -2.5207 N.2       3 LYS4        0.0000 
     42 NZ        -37.5087  -22.1867   -1.9497 N.2       3 LYS4        0.0000 
     43 O         -41.5542  -17.9786   -3.9932 O.2       2 ALA2        0.0000 
     44 O         -40.8773  -19.1893   -3.4222 O.2       2 ALA2        0.0000 
     45 DU        -40.2003  -20.4000   -2.8512 H         6 CUB7        0.0000 
     46 DU        -39.5234  -21.6106   -2.2802 H         6 CUB7        0.0000 
     47 NZ        -38.8465  -22.8213   -1.7092 N.2       3 LYS4        0.0000 
     48 NZ        -38.1695  -24.0319   -1.1382 N.2       3 LYS4        0.0000 
     49 O         -41.5381  -21.0345   -2.6107 O.2       2 ALA2        0.0000 
     50 DU        -40.8611  -22.2452   -2.0397 H         6 CUB7        0.0000 
     51 OG        -40.1842  -23.4558   -1.4687 O.2       1 SER1        0.0000 
     52 OG        -39.5072  -24.6665   -0.8977 O.2       1 SER1        0.0000 
     53 O         -42.8758  -21.6691   -2.3702 O.2       2 ALA2        0.0000 
     54 OG        -42.1988  -22.8797   -1.7992 O.2       1 SER1        0.0000 
     55 DU        -41.5219  -24.0904   -1.2282 H         6 CUB7        0.0000 
     56 OG        -43.5366  -23.5143   -1.5587 O.2       1 SER1        0.0000 
     57 N         -39.4922  -19.1725   -5.0288 N.2       2 ALA2        0.0000 
     58 O         -38.8152  -20.3832   -4.4578 O.2       2 ALA2        0.0000 
     59 NZ        -38.1383  -21.5938   -3.8868 N.2       3 LYS4        0.0000 
     60 O         -40.8299  -19.8071   -4.7883 O.2       2 ALA2        0.0000 
     61 O         -40.1529  -21.0177   -4.2173 O.2       2 ALA2        0.0000 
     62 NZ        -39.4760  -22.2284   -3.6463 N.2       3 LYS4        0.0000 
     63 OG        -38.7990  -23.4391   -3.0753 O.2       1 SER1        0.0000 
     64 O         -42.1676  -20.4416   -4.5478 O.2       2 ALA2        0.0000 
     65 O         -41.4906  -21.6523   -3.9768 O.2       2 ALA2        0.0000 
     66 O         -40.8137  -22.8629   -3.4058 O.2       2 ALA2        0.0000 
     67 OG        -40.1367  -24.0736   -2.8347 O.2       1 SER1        0.0000 
     68 CA        -42.8284  -22.2868   -3.7362 C.3       5 GLY6        0.0000 
     69 OG        -42.1514  -23.4975   -3.1652 O.2       1 SER1        0.0000 
     70 CZ        -41.4745  -24.7082   -2.5942 C.ar      4 PHE5        0.0000 
     71 O         -39.4285  -22.8462   -5.0123 O.2       2 ALA2        0.0000 
@<TRIPOS>BOND
@<TRIPOS>SUBSTRUCTURE
     1 SER1       17 GROUP   
     2 ALA2        3 GROUP   
     3 LYS4        7 GROUP   
     4 PHE5       70 GROUP   
     5 GLY6        1 GROUP   
     6 CUB7        4 GROUP   
@<TRIPOS>SET

