#    Name: 4aj3_NAP_1_INTS_M
#    Modification time : Tue Mar 25 05:36:32 2014

@<TRIPOS>MOLECULE
4aj3_NAP_1_INTS_M
   92     0    12     0     0
SMALL
NO_CHARGES


@<TRIPOS>ATOM
      1 N         -37.4245  -15.4615   -0.5865 N.am      2 SEC2        0.0000 
      2 N         -36.5630  -15.5210    0.4860 N.am     10 SEL2        0.0000 
      3 N         -38.2860  -15.4020   -1.6590 N.am      6 SEP2        0.0000 
      4 N         -39.4570  -13.7155    2.0340 N.am      2 SEC2        0.0000 
      5 N         -38.6630  -14.7260    1.8030 N.am     10 SEL2        0.0000 
      6 N         -40.2510  -12.7050    2.2650 N.am      6 SEP2        0.0000 
      7 CA        -36.3925  -12.0250    3.3555 C.3       4 GLC5        0.0000 
      8 CA        -34.4370  -12.7740    3.7720 C.3      12 GLL5        0.0000 
      9 CA        -38.3480  -11.2760    2.9390 C.3       8 GLP5        0.0000 
     10 CA        -32.7160  -13.3925    0.1735 C.3       4 GLC5        0.0000 
     11 CA        -33.0180  -12.4970    1.9320 C.3      12 GLL5        0.0000 
     12 CA        -32.4140  -14.2880   -1.5850 C.3       8 GLP5        0.0000 
     13 CA        -35.7275  -11.6480   -2.0965 C.3       4 GLC5        0.0000 
     14 CA        -34.7470  -10.5420   -0.6530 C.3      12 GLL5        0.0000 
     15 CA        -36.7080  -12.7540   -3.5400 C.3       8 GLP5        0.0000 
     16 CA        -33.1490   -9.6115   -2.7320 C.3       4 GLC5        0.0000 
     17 CA        -34.7130   -9.3130   -1.4720 C.3      12 GLL5        0.0000 
     18 CA        -31.5850   -9.9100   -3.9920 C.3       8 GLP5        0.0000 
     19 CA        -35.5085  -10.5985   -2.9860 C.3       4 GLC5        0.0000 
     20 CA        -36.3040  -11.8840   -4.5000 C.3       8 GLP5        0.0000 
     21 CA        -33.5560   -7.8605   -2.4630 C.3       4 GLC5        0.0000 
     22 CA        -32.3990   -6.4080   -3.4540 C.3       8 GLP5        0.0000 
     23 O         -35.3810   -8.0950   -3.4310 O.2       1 ALC1        0.0000 
     24 O         -35.6860   -9.0560   -2.3700 O.2       9 ALL1        0.0000 
     25 O         -35.0760   -7.1340   -4.4920 O.2       5 ALP1        0.0000 
     26 N         -33.9660   -7.0985   -1.6700 N.am      2 SEC2        0.0000 
     27 N         -33.6820   -8.4560   -1.2820 N.am     10 SEL2        0.0000 
     28 N         -34.2500   -5.7410   -2.0580 N.am      6 SEP2        0.0000 
     29 CA        -32.1380   -9.3065   -2.1950 C.3       4 GLC5        0.0000 
     30 CA        -32.6910   -8.7030   -0.3980 C.3      12 GLL5        0.0000 
     31 CA        -34.5480   -7.5870   -0.2625 C.3       4 GLC5        0.0000 
     32 CA        -36.4050   -6.4710   -0.1270 C.3       8 GLP5        0.0000 
     33 CA        -32.5450   -7.5555   -1.9260 C.3       4 GLC5        0.0000 
     34 CA        -31.0580   -7.9750    0.1295 C.3       4 GLC5        0.0000 
     35 CA        -29.4250   -7.2470    0.6570 C.3       8 GLP5        0.0000 
     36 CA        -33.0275  -12.5105   -0.6490 C.3       4 GLC5        0.0000 
     37 CA        -33.6410  -10.7330    0.2870 C.3      12 GLL5        0.0000 
     38 CA        -41.1045  -14.9805    4.2385 C.3       4 GLC5        0.0000 
     39 CA        -40.4860  -16.7870    3.5560 C.3      12 GLL5        0.0000 
     40 CA        -41.7230  -13.1740    4.9210 C.3       8 GLP5        0.0000 
     41 CA        -42.5390  -15.3715    1.8550 C.3       4 GLC5        0.0000 
     42 CA        -41.7000  -17.2480    2.7480 C.3      12 GLL5        0.0000 
     43 CA        -43.3780  -13.4950    0.9620 C.3       8 GLP5        0.0000 
     44 N         -41.3080  -15.6410    0.7605 N.am      2 SEC2        0.0000 
     45 N         -41.4630  -17.0800    1.3370 N.am     10 SEL2        0.0000 
     46 N         -41.1530  -14.2020    0.1840 N.am      6 SEP2        0.0000 
     47 N         -42.3745  -15.7695    1.6815 N.am      2 SEC2        0.0000 
     48 N         -43.2860  -14.4590    2.0260 N.am      6 SEP2        0.0000 
     49 N         -44.6545  -19.1655    2.3625 N.am      2 SEC2        0.0000 
     50 N         -43.4660  -18.8250    3.1530 N.am     10 SEL2        0.0000 
     51 N         -45.8430  -19.5060    1.5720 N.am      6 SEP2        0.0000 
     52 O         -44.1675  -19.8955    3.5310 O.2       1 ALC1        0.0000 
     53 O         -43.4660  -18.8250    3.1530 O.2       9 ALL1        0.0000 
     54 O         -44.8690  -20.9660    3.9090 O.2       5 ALP1        0.0000 
     55 N         -44.2230  -19.9825    1.4615 N.am      2 SEC2        0.0000 
     56 N         -42.6030  -20.4590    1.3510 N.am     10 SEL2        0.0000 
     57 O         -43.7360  -20.7125    2.6300 O.2       1 ALC1        0.0000 
     58 O         -42.6030  -20.4590    1.3510 O.2       9 ALL1        0.0000 
     59 CA        -40.7320  -16.8870   -0.2620 C.3       4 GLC5        0.0000 
     60 CA        -41.8240  -18.2710    0.6380 C.3      12 GLL5        0.0000 
     61 CA        -39.6400  -15.5030   -1.1620 C.3       8 GLP5        0.0000 
     62 N         -43.4690  -17.0370   -5.7160 N.am      2 SEC2        0.0000 
     63 N         -42.6390  -17.3390   -4.2170 N.am     10 SEL2        0.0000 
     64 N         -44.2990  -16.7350   -7.2150 N.am      6 SEP2        0.0000 
     65 N         -43.7490  -16.5520   -3.7785 N.am      2 SEC2        0.0000 
     66 N         -44.8590  -15.7650   -3.3400 N.am      6 SEP2        0.0000 
     67 O         -41.8050  -18.5325   -6.6240 O.2       1 ALC1        0.0000 
     68 O         -41.1460  -18.6000   -5.3030 O.2       9 ALL1        0.0000 
     69 O         -42.4640  -18.4650   -7.9450 O.2       5 ALP1        0.0000 
     70 CA        -38.0140  -16.9105   -3.0870 C.3       4 GLC5        0.0000 
     71 CA        -39.5070  -18.5490   -2.8690 C.3      12 GLL5        0.0000 
     72 CA        -36.5210  -15.2720   -3.3050 C.3       8 GLP5        0.0000 
     73 NZ        -33.8320  -11.3095    7.8890 N.4       3 LYC4        0.0000 
     74 NZ        -32.8610  -11.0290    6.2260 N.4      11 LYL4        0.0000 
     75 NZ        -34.8030  -11.5900    9.5520 N.4       7 LYP4        0.0000 
     76 N         -33.1630   -9.8345    6.5695 N.am      2 SEC2        0.0000 
     77 N         -32.8610  -11.0290    6.2260 N.am     10 SEL2        0.0000 
     78 N         -33.4650   -8.6400    6.9130 N.am      6 SEP2        0.0000 
     79 N         -31.7110   -9.1510    4.1345 N.am      2 SEC2        0.0000 
     80 N         -30.9160   -9.9630    4.7950 N.am     10 SEL2        0.0000 
     81 N         -32.5060   -8.3390    3.4740 N.am      6 SEP2        0.0000 
     82 CA        -33.9080  -15.0085    1.1823 C.3       4 GLC5        0.0000 
     83 CA        -33.9270  -14.1430    3.3370 C.3      12 GLL5        0.0000 
     84 CA        -33.3570  -15.3320   -0.9020 C.3       8 GLP5        0.0000 
     85 CA        -34.5257  -10.5782    4.4038 C.3       4 GLC5        0.0000 
     86 CA        -35.1800   -8.8250    5.2850 C.3       8 GLP5        0.0000 
     87 CA        -36.8310   -9.8368   -1.0117 C.3       4 GLC5        0.0000 
     88 CA        -38.9320   -9.7460   -0.9610 C.3       8 GLP5        0.0000 
     89 CA        -35.5675   -8.1992   -0.5948 C.3       4 GLC5        0.0000 
     90 CA        -40.4342  -16.8693   -1.7385 C.3       4 GLC5        0.0000 
     91 CA        -40.8770  -18.2650   -2.9080 C.3      12 GLL5        0.0000 
     92 CA        -39.5321  -17.0805   -1.2599 C.3       4 GLC5        0.0000 
@<TRIPOS>BOND
@<TRIPOS>SUBSTRUCTURE
     1 ALC1       23 GROUP        1 X    ALC  0     ROOT ALC X 1
     2 SEC2        1 GROUP        1 X    SEC  0     **** SEC X 2
     3 LYC4       73 GROUP        1 X    LYC  0     **** LYC X 4
     4 GLC5        7 GROUP        1 X    GLC  0     **** GLC X 6
     5 ALP1       25 GROUP        1 Y    ALP  0     ROOT ALP Y 8
     6 SEP2        3 GROUP        1 Y    SEP  0     **** SEP Y 9
     7 LYP4       75 GROUP        1 Y    LYP  0     **** LYP Y 11
     8 GLP5        9 GROUP        1 Y    GLP  0     **** GLP Y 13
     9 ALL1       24 GROUP        1 Z    ALL  0     ROOT ALL Z 15
    10 SEL2        2 GROUP        1 Z    SEL  0     **** SEL Z 16
    11 LYL4       74 GROUP        1 Z    LYL  0     **** LYL Z 18
    12 GLL5        8 GROUP        1 Z    GLL  0     **** GLL Z 20
@<TRIPOS>SET

