#    Name: 4aj3_NAP_1_ligand
#    Modification time : Tue Mar 25 05:36:32 2014

@<TRIPOS>MOLECULE
4aj3_NAP_1_ligand
   73    77     1     0     0
SMALL
NO_CHARGES


@<TRIPOS>ATOM
      1 PA        -37.2190  -15.4100    1.8210 P.3       1 NAP1417     0.0000 
      2 O1A       -36.5630  -15.5210    0.4860 O.co2     1 NAP1417     0.0000 
      3 O2A       -38.6630  -14.7260    1.8030 O.co2     1 NAP1417     0.0000 
      4 O5B       -36.2380  -14.6300    2.8330 O.3       1 NAP1417     0.0000 
      5 C5B       -34.9910  -15.2270    3.1960 C.3       1 NAP1417     0.0000 
      6 C4B       -33.9270  -14.1430    3.3370 C.3       1 NAP1417     0.0000 
      7 O4B       -33.3780  -13.8800    2.0420 O.3       1 NAP1417     0.0000 
      8 C3B       -34.4370  -12.7740    3.7720 C.3       1 NAP1417     0.0000 
      9 O3B       -34.6240  -12.6660    5.1890 O.3       1 NAP1417     0.0000 
     10 C2B       -33.3060  -11.8890    3.2730 C.3       1 NAP1417     0.0000 
     11 O2B       -32.1180  -12.1710    4.0020 O.3       1 NAP1417     0.0000 
     12 C1B       -33.0180  -12.4970    1.9320 C.3       1 NAP1417     0.0000 
     13 N9A       -33.8800  -11.8900    0.8930 N.pl3     1 NAP1417     0.0000 
     14 C8A       -35.0270  -12.4150    0.4180 C.2       1 NAP1417     0.0000 
     15 N7A       -35.5690  -11.6050   -0.5260 N.2       1 NAP1417     0.0000 
     16 C5A       -34.7470  -10.5420   -0.6530 C.ar      1 NAP1417     0.0000 
     17 C6A       -34.7130   -9.3130   -1.4720 C.ar      1 NAP1417     0.0000 
     18 N6A       -35.6860   -9.0560   -2.3700 N.pl3     1 NAP1417     0.0000 
     19 N1A       -33.6820   -8.4560   -1.2820 N.ar      1 NAP1417     0.0000 
     20 C2A       -32.6910   -8.7030   -0.3980 C.ar      1 NAP1417     0.0000 
     21 N3A       -32.6530   -9.8040    0.3670 N.ar      1 NAP1417     0.0000 
     22 C4A       -33.6410  -10.7330    0.2870 C.ar      1 NAP1417     0.0000 
     23 O3        -37.2830  -16.9000    2.4090 O.3       1 NAP1417     0.0000 
     24 PN        -37.9330  -17.3520    3.8110 P.3       1 NAP1417     0.0000 
     25 O1N       -37.8800  -16.2850    4.8420 O.co2     1 NAP1417     0.0000 
     26 O2N       -37.1660  -18.6900    4.2340 O.co2     1 NAP1417     0.0000 
     27 O5D       -39.4250  -17.7240    3.3630 O.3       1 NAP1417     0.0000 
     28 C5D       -40.4860  -16.7870    3.5560 C.3       1 NAP1417     0.0000 
     29 C4D       -41.7000  -17.2480    2.7480 C.3       1 NAP1417     0.0000 
     30 O4D       -41.4630  -17.0800    1.3370 O.3       1 NAP1417     0.0000 
     31 C3D       -42.0540  -18.7190    2.9620 C.3       1 NAP1417     0.0000 
     32 O3D       -43.4660  -18.8250    3.1530 O.3       1 NAP1417     0.0000 
     33 C2D       -41.6920  -19.3980    1.6520 C.3       1 NAP1417     0.0000 
     34 O2D       -42.6030  -20.4590    1.3510 O.3       1 NAP1417     0.0000 
     35 C1D       -41.8240  -18.2710    0.6380 C.3       1 NAP1417     0.0000 
     36 N1N       -40.9730  -18.4020   -0.5430 N.pl3     1 NAP1417     0.0000 
     37 C2N       -41.5800  -18.2060   -1.7220 C.ar      1 NAP1417     0.0000 
     38 C3N       -40.8770  -18.2650   -2.9080 C.ar      1 NAP1417     0.0000 
     39 C7N       -41.6220  -18.0380   -4.2020 C.2       1 NAP1417     0.0000 
     40 O7N       -42.6390  -17.3390   -4.2170 O.2       1 NAP1417     0.0000 
     41 N7N       -41.1460  -18.6000   -5.3030 N.am      1 NAP1417     0.0000 
     42 C4N       -39.5070  -18.5490   -2.8690 C.ar      1 NAP1417     0.0000 
     43 C5N       -38.8880  -18.7530   -1.6320 C.ar      1 NAP1417     0.0000 
     44 C6N       -39.6510  -18.6650   -0.4650 C.ar      1 NAP1417     0.0000 
     45 P2B       -31.6010  -11.3240    5.2830 P.3       1 NAP1417     0.0000 
     46 O1X       -32.8610  -11.0290    6.2260 O.co2     1 NAP1417     0.0000 
     47 O2X       -30.9160   -9.9630    4.7950 O.co2     1 NAP1417     0.0000 
     48 O3X       -30.5780  -12.1760    5.9320 O.co2     1 NAP1417     0.0000 
     49 H         -34.6465  -15.9392    2.4382 H         1 NAP1417     0.0000 
     50 H         -35.0585  -15.7577    4.1520 H         1 NAP1417     0.0000 
     51 H         -33.1590  -14.4564    4.0033 H         1 NAP1417     0.0000 
     52 H         -35.3005  -12.5504    3.1958 H         1 NAP1417     0.0000 
     53 H         -33.5722  -10.9310    3.1903 H         1 NAP1417     0.0000 
     54 H         -31.9984  -12.3813    1.6955 H         1 NAP1417     0.0000 
     55 H         -35.4189  -13.2630    0.7104 H         1 NAP1417     0.0000 
     56 H         -35.4088   -8.5489   -3.1861 H         1 NAP1417     0.0000 
     57 H         -36.5980   -9.3954   -2.1398 H         1 NAP1417     0.0000 
     58 H         -31.9074   -7.9898   -0.3075 H         1 NAP1417     0.0000 
     59 H         -40.2147  -15.7876    3.2107 H         1 NAP1417     0.0000 
     60 H         -40.7867  -16.7222    4.6034 H         1 NAP1417     0.0000 
     61 H         -42.5615  -16.6545    3.0454 H         1 NAP1417     0.0000 
     62 H         -41.4844  -19.1091    3.7350 H         1 NAP1417     0.0000 
     63 H         -40.6809  -19.6957    1.6928 H         1 NAP1417     0.0000 
     64 H         -42.8690  -18.2086    0.3484 H         1 NAP1417     0.0000 
     65 H         -42.6066  -18.0032   -1.7621 H         1 NAP1417     0.0000 
     66 H         -40.3358  -19.1750   -5.1886 H         1 NAP1417     0.0000 
     67 H         -41.6399  -18.3984   -6.1488 H         1 NAP1417     0.0000 
     68 H         -38.9676  -18.6063   -3.7325 H         1 NAP1417     0.0000 
     69 H         -37.8908  -18.9636   -1.5827 H         1 NAP1417     0.0000 
     70 H         -39.1844  -18.8044    0.4467 H         1 NAP1417     0.0000 
     71 H         -33.9436  -11.9976    5.4895 H         1 NAP1417     0.0000 
     72 H         -43.6157  -19.7649    3.4598 H         1 NAP1417     0.0000 
     73 H         -43.2234  -20.4973    2.1343 H         1 NAP1417     0.0000 
@<TRIPOS>BOND
     1    2    1 ar   
     2    3    1 ar   
     3    4    1 1    
     4   23    1 1    
     5    5    4 1    
     6    6    5 1    
     7   49    5 1    
     8   50    5 1    
     9    7    6 1    
    10    8    6 1    
    11   51    6 1    
    12   12    7 1    
    13    9    8 1    
    14   10    8 1    
    15   52    8 1    
    16   71    9 1    
    17   11   10 1    
    18   12   10 1    
    19   53   10 1    
    20   45   11 1    
    21   13   12 1    
    22   54   12 1    
    23   14   13 1    
    24   22   13 1    
    25   15   14 2    
    26   55   14 1    
    27   16   15 1    
    28   17   16 ar   
    29   22   16 ar   
    30   18   17 1    
    31   19   17 ar   
    32   56   18 1    
    33   57   18 1    
    34   20   19 ar   
    35   21   20 ar   
    36   58   20 1    
    37   22   21 ar   
    38   24   23 1    
    39   25   24 ar   
    40   26   24 ar   
    41   27   24 1    
    42   28   27 1    
    43   29   28 1    
    44   59   28 1    
    45   60   28 1    
    46   30   29 1    
    47   31   29 1    
    48   61   29 1    
    49   35   30 1    
    50   32   31 1    
    51   33   31 1    
    52   62   31 1    
    53   72   32 1    
    54   34   33 1    
    55   35   33 1    
    56   63   33 1    
    57   73   34 1    
    58   36   35 1    
    59   64   35 1    
    60   37   36 ar   
    61   44   36 ar   
    62   38   37 ar   
    63   65   37 1    
    64   39   38 1    
    65   42   38 ar   
    66   40   39 2    
    67   41   39 am   
    68   66   41 1    
    69   67   41 1    
    70   43   42 ar   
    71   68   42 1    
    72   44   43 ar   
    73   69   43 1    
    74   70   44 1    
    75   46   45 ar   
    76   47   45 ar   
    77   48   45 ar   
@<TRIPOS>SUBSTRUCTURE
     1 NAP1417     1 GROUP   
@<TRIPOS>SET

