#    Name: 4gyo_GLU_ARG_GLY_MET_THR_2_INTS_M
#    Modification time : Mon Mar 24 23:56:32 2014

@<TRIPOS>MOLECULE
4gyo_GLU_ARG_GLY_MET_THR_2_INTS_M
  111     0    15     0     0
SMALL
NO_CHARGES


@<TRIPOS>ATOM
      1 OD1        38.0095   53.7190   92.9300 O.co2     3 ASC3        0.0000 
      2 OD1        39.3760   53.4610   92.6260 O.co2    13 ASL3        0.0000 
      3 OD1        36.6430   53.9770   93.2340 O.co2     8 ASP3        0.0000 
      4 O          38.0095   53.7190   92.9300 O.2       1 ALC1        0.0000 
      5 O          39.3760   53.4610   92.6260 O.2      11 ALL1        0.0000 
      6 O          36.6430   53.9770   93.2340 O.2       6 ALP1        0.0000 
      7 N          38.2070   51.2465   89.9990 N.am      2 SEC2        0.0000 
      8 N          38.3900   52.5900   90.2280 N.am     12 SEL2        0.0000 
      9 N          38.0240   49.9030   89.7700 N.am      7 SEP2        0.0000 
     10 CA         43.5635   53.9765   93.8640 C.3       5 GLC5        0.0000 
     11 CA         42.4270   53.7610   92.3710 C.3      15 GLL5        0.0000 
     12 CA         44.7000   54.1920   95.3570 C.3      10 GLP5        0.0000 
     13 NZ         43.3010   57.0570   91.5390 N.4       4 LYC4        0.0000 
     14 NZ         43.3560   55.5690   91.1310 N.4      14 LYL4        0.0000 
     15 NZ         43.2460   58.5450   91.9470 N.4       9 LYP4        0.0000 
     16 N          44.3545   55.7905   90.4645 N.am      2 SEC2        0.0000 
     17 N          43.3560   55.5690   91.1310 N.am     12 SEL2        0.0000 
     18 N          45.3530   56.0120   89.7980 N.am      7 SEP2        0.0000 
     19 N          43.3010   57.0570   91.5390 N.am      2 SEC2        0.0000 
     20 N          43.2460   58.5450   91.9470 N.am      7 SEP2        0.0000 
     21 NZ         42.8255   57.2940   92.4990 N.4       4 LYC4        0.0000 
     22 NZ         42.4050   56.0430   93.0510 N.4      14 LYL4        0.0000 
     23 N          42.8255   57.2940   92.4990 N.am      2 SEC2        0.0000 
     24 N          42.4050   56.0430   93.0510 N.am     12 SEL2        0.0000 
     25 N          42.1860   52.7865   87.7060 N.am      2 SEC2        0.0000 
     26 N          40.8960   52.6400   87.1770 N.am     12 SEL2        0.0000 
     27 N          43.4760   52.9330   88.2350 N.am      7 SEP2        0.0000 
     28 CA         36.4485   54.5560   85.7985 C.3       5 GLC5        0.0000 
     29 CA         36.4450   55.8960   87.3550 C.3      15 GLL5        0.0000 
     30 CA         36.4520   53.2160   84.2420 C.3      10 GLP5        0.0000 
     31 O          36.4615   55.2170   89.6620 O.2       1 ALC1        0.0000 
     32 O          35.9660   54.9640   88.3710 O.2      11 ALL1        0.0000 
     33 O          36.9570   55.4700   90.9530 O.2       6 ALP1        0.0000 
     34 OD1        33.1695   53.1545   88.2325 O.co2     3 ASC3        0.0000 
     35 OD1        34.7920   54.3440   88.3210 O.co2    13 ASL3        0.0000 
     36 OD1        32.3800   51.7220   89.0260 O.co2     8 ASP3        0.0000 
     37 OD1        31.9010   52.7980   87.1740 O.co2     8 ASP3        0.0000 
     38 O          33.7725   55.4540   86.1045 O.2       1 ALC1        0.0000 
     39 O          33.9720   54.5530   87.2990 O.2      11 ALL1        0.0000 
     40 O          33.5730   56.3550   84.9100 O.2       6 ALP1        0.0000 
     41 O          32.9365   53.6755   87.2365 O.2       1 ALC1        0.0000 
     42 O          31.9010   52.7980   87.1740 O.2       6 ALP1        0.0000 
     43 O          33.4090   52.6165   89.1585 O.2       1 ALC1        0.0000 
     44 O          34.4380   53.5110   89.2910 O.2      11 ALL1        0.0000 
     45 O          32.3800   51.7220   89.0260 O.2       6 ALP1        0.0000 
     46 O          33.1695   53.1545   88.2325 O.2       1 ALC1        0.0000 
     47 O          34.8745   53.0095   90.4235 O.2       1 ALC1        0.0000 
     48 O          35.3110   52.5080   91.5560 O.2       6 ALP1        0.0000 
     49 O          37.5935   51.7590   86.1350 O.2       1 ALC1        0.0000 
     50 O          38.9710   51.9020   86.2780 O.2      11 ALL1        0.0000 
     51 O          36.2160   51.6160   85.9920 O.2       6 ALP1        0.0000 
     52 CA         38.0340   52.0555   84.8485 C.3       5 GLC5        0.0000 
     53 CA         39.6160   50.8950   85.4550 C.3      15 GLL5        0.0000 
     54 O          41.3275   49.4430   84.0755 O.2       1 ALC1        0.0000 
     55 O          41.4440   50.7880   83.8670 O.2      11 ALL1        0.0000 
     56 O          41.2110   48.0980   84.2840 O.2       6 ALP1        0.0000 
     57 N          41.1280   48.7710   81.6455 N.am      2 SEC2        0.0000 
     58 N          41.2650   50.1570   81.1250 N.am     12 SEL2        0.0000 
     59 N          40.9910   47.3850   82.1660 N.am      7 SEP2        0.0000 
     60 CA         44.6425   49.3290   81.8515 C.3       5 GLC5        0.0000 
     61 CA         43.7730   50.7230   83.0830 C.3      15 GLL5        0.0000 
     62 CA         45.5120   47.9350   80.6200 C.3      10 GLP5        0.0000 
     63 CA         46.0085   48.6890   83.0825 C.3       5 GLC5        0.0000 
     64 CA         46.1300   50.4220   84.4390 C.3      15 GLL5        0.0000 
     65 CA         45.8870   46.9560   81.7260 C.3      10 GLP5        0.0000 
     66 CA         47.3340   51.8195   83.6005 C.3       5 GLC5        0.0000 
     67 CA         48.5380   53.2170   82.7620 C.3      10 GLP5        0.0000 
     68 CA         48.1360   51.7895   84.8135 C.3       5 GLC5        0.0000 
     69 CA         46.7050   51.0800   86.0020 C.3      15 GLL5        0.0000 
     70 CA         49.5670   52.4990   83.6250 C.3      10 GLP5        0.0000 
     71 CA         46.2365   52.0510   87.4970 C.3       5 GLC5        0.0000 
     72 CA         45.7680   53.0220   88.9920 C.3      10 GLP5        0.0000 
     73 CA         48.2050   50.0305   87.3005 C.3       5 GLC5        0.0000 
     74 CA         49.7050   48.9810   88.5990 C.3      10 GLP5        0.0000 
     75 CA         41.7600   49.8495   78.9535 C.3       5 GLC5        0.0000 
     76 CA         42.2660   51.8870   79.1460 C.3      15 GLL5        0.0000 
     77 CA         41.2540   47.8120   78.7610 C.3      10 GLP5        0.0000 
     78 N          45.7555   53.0505   79.1230 N.am      2 SEC2        0.0000 
     79 N          44.4630   52.8440   79.1810 N.am     12 SEL2        0.0000 
     80 N          47.0480   53.2570   79.0650 N.am      7 SEP2        0.0000 
     81 CA         41.3660   51.6570   76.7070 C.3       5 GLC5        0.0000 
     82 CA         41.1410   52.7400   78.5360 C.3      15 GLL5        0.0000 
     83 CA         41.5910   50.5740   74.8780 C.3      10 GLP5        0.0000 
     84 O          40.8820   55.0060   78.2865 O.2       1 ALC1        0.0000 
     85 O          41.1700   54.0530   79.1080 O.2      11 ALL1        0.0000 
     86 O          40.5940   55.9590   77.4650 O.2       6 ALP1        0.0000 
     87 CA         39.9310   51.2685   76.7925 C.3       5 GLC5        0.0000 
     88 CA         39.7860   52.1040   78.8030 C.3      15 GLL5        0.0000 
     89 CA         40.0760   50.4330   74.7820 C.3      10 GLP5        0.0000 
     90 CA         39.3045   50.1045   79.0525 C.3       5 GLC5        0.0000 
     91 CA         38.8230   48.1050   79.3020 C.3      10 GLP5        0.0000 
     92 CA         38.0680   52.4440   79.2275 C.3       5 GLC5        0.0000 
     93 CA         36.3500   52.7840   79.6520 C.3      10 GLP5        0.0000 
     94 N          43.4030   52.3110   76.0720 N.am      2 SEC2        0.0000 
     95 N          43.8360   52.0550   77.3250 N.am     12 SEL2        0.0000 
     96 N          42.9700   52.5670   74.8190 N.am      7 SEP2        0.0000 
     97 CA         37.6460   53.8233   85.7920 C.3       5 GLC5        0.0000 
     98 CA         38.7880   55.0560   86.9020 C.3      15 GLL5        0.0000 
     99 CA         36.3690   57.1367   85.9455 C.3       5 GLC5        0.0000 
    100 CA         35.5470   58.2340   84.4730 C.3      10 GLP5        0.0000 
    101 CA         36.0820   57.1198   88.7355 C.3       5 GLC5        0.0000 
    102 CA         34.9730   58.2000   90.0530 C.3      10 GLP5        0.0000 
    103 CA         43.9240   49.7810   85.3035 C.3       5 GLC5        0.0000 
    104 CA         44.4730   51.1290   84.3610 C.3      15 GLL5        0.0000 
    105 CA         43.7250   48.6360   86.8850 C.3      10 GLP5        0.0000 
    106 CA         45.6548   49.3295   86.1538 C.3       5 GLC5        0.0000 
    107 CA         44.8920   47.9080   87.0870 C.3      10 GLP5        0.0000 
    108 CA         47.7562   49.7745   84.5342 C.3       5 GLC5        0.0000 
    109 CA         49.0950   48.7980   83.8480 C.3      10 GLP5        0.0000 
    110 CA         39.7388   53.0650   76.8118 C.3       5 GLC5        0.0000 
    111 CA         39.0140   53.7080   74.9540 C.3      10 GLP5        0.0000 
@<TRIPOS>BOND
@<TRIPOS>SUBSTRUCTURE
     1 ALC1        4 GROUP        1 X    ALC  0     ROOT ALC X 1
     2 SEC2        7 GROUP        1 X    SEC  0     **** SEC X 2
     3 ASC3        1 GROUP        1 X    ASC  0     **** ASC X 3
     4 LYC4       13 GROUP        1 X    LYC  0     **** LYC X 4
     5 GLC5       10 GROUP        1 X    GLC  0     **** GLC X 6
     6 ALP1        6 GROUP        1 Y    ALP  0     ROOT ALP Y 8
     7 SEP2        9 GROUP        1 Y    SEP  0     **** SEP Y 9
     8 ASP3        3 GROUP        1 Y    ASP  0     **** ASP Y 10
     9 LYP4       15 GROUP        1 Y    LYP  0     **** LYP Y 11
    10 GLP5       12 GROUP        1 Y    GLP  0     **** GLP Y 13
    11 ALL1        5 GROUP        1 Z    ALL  0     ROOT ALL Z 15
    12 SEL2        8 GROUP        1 Z    SEL  0     **** SEL Z 16
    13 ASL3        2 GROUP        1 Z    ASL  0     **** ASL Z 17
    14 LYL4       14 GROUP        1 Z    LYL  0     **** LYL Z 18
    15 GLL5       11 GROUP        1 Z    GLL  0     **** GLL Z 20
@<TRIPOS>SET

