#    Name: 4gyo_GLU_ARG_GLY_MET_THR_2_ligand
#    Modification time : Mon Mar 24 23:56:32 2014

@<TRIPOS>MOLECULE
4gyo_GLU_ARG_GLY_MET_THR_2_ligand
   81    80     5     0     0
SMALL
NO_CHARGES


@<TRIPOS>ATOM
      1 N          39.3760   53.4610   92.6260 N.4       1 GLU1        0.0000
      2 CA         40.0570   53.8590   91.3990 C.3       1 GLU1        0.0000
      3 C          39.2520   53.4670   90.1660 C.2       1 GLU1        0.0000
      4 O          38.3900   52.5900   90.2280 O.2       1 GLU1        0.0000
      5 CB         41.4530   53.2310   91.3300 C.3       1 GLU1        0.0000
      6 CG         42.4270   53.7610   92.3710 C.3       1 GLU1        0.0000
      7 CD         42.7540   55.2280   92.1710 C.2       1 GLU1        0.0000
      8 OE1        43.3560   55.5690   91.1310 O.co2     1 GLU1        0.0000
      9 OE2        42.4050   56.0430   93.0510 O.co2     1 GLU1        0.0000
     10 HA         40.1877   54.9428   91.3800 H         1 GLU1        0.0000
     11 HB2        41.8697   53.4056   90.3231 H         1 GLU1        0.0000
     12 HB3        41.3552   52.1382   91.4496 H         1 GLU1        0.0000
     13 HG2        43.3545   53.1741   92.3258 H         1 GLU1        0.0000
     14 HG3        41.9949   53.6197   93.3711 H         1 GLU1        0.0000
     15 HNCA       39.2354   52.4718   92.6687 H         1 GLU1        0.0000
     16 H          39.8967   53.7184   93.4400 H         1 GLU1        0.0000
     17 H          38.4757   53.8887   92.7066 H         1 GLU1        0.0000
     18 N          39.5380   54.1250   89.0480 N.am      2 ARG2        0.0000
     19 CA         38.8920   53.8050   87.7820 C.3       2 ARG2        0.0000
     20 C          39.6750   52.7250   87.0480 C.2       2 ARG2        0.0000
     21 O          40.8960   52.6400   87.1770 O.2       2 ARG2        0.0000
     22 CB         38.7880   55.0560   86.9020 C.3       2 ARG2        0.0000
     23 CG         37.9370   56.1830   87.4810 C.3       2 ARG2        0.0000
     24 CD         36.4450   55.8960   87.3550 C.3       2 ARG2        0.0000
     25 NE         35.9660   54.9640   88.3710 N.pl3     2 ARG2        0.0000
     26 CZ         34.7920   54.3440   88.3210 C.cat     2 ARG2        0.0000
     27 NH1        33.9720   54.5530   87.2990 N.pl3     2 ARG2        0.0000
     28 NH2        34.4380   53.5110   89.2910 N.pl3     2 ARG2        0.0000
     29 HNCA       40.2347   54.8992   89.0185 H         2 ARG2        0.0000
     30 HA         37.8880   53.4354   87.9531 H         2 ARG2        0.0000
     31 HB2        38.3742   54.7632   85.9183 H         2 ARG2        0.0000
     32 HB3        39.8082   55.4393   86.7100 H         2 ARG2        0.0000
     33 HG2        38.1698   57.1144   86.9554 H         2 ARG2        0.0000
     34 HG3        38.1897   56.3165   88.5375 H         2 ARG2        0.0000
     35 HD2        36.2576   55.4976   86.3421 H         2 ARG2        0.0000
     36 HD3        35.9048   56.8569   87.4228 H         2 ARG2        0.0000
     37 HE         36.6340   54.8075   89.1768 H         2 ARG2        0.0000
     38 HH11       34.2941   55.1912   86.5998 H         2 ARG2        0.0000
     39 HH12       33.1060   54.0534   87.3204 H         2 ARG2        0.0000
     40 HH21       35.1075   53.3763   90.0215 H         2 ARG2        0.0000
     41 HH22       33.5337   53.0932   89.2040 H         2 ARG2        0.0000
     42 N          38.9710   51.9020   86.2780 N.am      3 GLY3        0.0000
     43 CA         39.6160   50.8950   85.4550 C.3       3 GLY3        0.0000
     44 C          40.4840   51.5410   84.3910 C.2       3 GLY3        0.0000
     45 O          40.2880   52.7060   84.0450 O.2       3 GLY3        0.0000
     46 HNCA       37.9324   51.9377   86.2268 H         3 GLY3        0.0000
     47 HA2        38.8708   50.2617   84.9539 H         3 GLY3        0.0000
     48 HA3        40.2509   50.2375   86.0651 H         3 GLY3        0.0000
     49 N          41.4440   50.7880   83.8670 N.am      4 MET4        0.0000
     50 CA         42.3840   51.3340   82.8930 C.3       4 MET4        0.0000
     51 C          41.9500   51.1260   81.4490 C.2       4 MET4        0.0000
     52 O          41.2650   50.1570   81.1250 O.2       4 MET4        0.0000
     53 CB         43.7730   50.7230   83.0830 C.3       4 MET4        0.0000
     54 CG         44.4730   51.1290   84.3610 C.3       4 MET4        0.0000
     55 SD         46.1300   50.4220   84.4390 S.3       4 MET4        0.0000
     56 CE         46.7050   51.0800   86.0020 C.3       4 MET4        0.0000
     57 HNCA       41.5757   49.7903   84.1163 H         4 MET4        0.0000
     58 HA         42.4962   52.4172   83.0495 H         4 MET4        0.0000
     59 HB2        44.4031   51.0048   82.2173 H         4 MET4        0.0000
     60 HB3        43.6797   49.6201   83.0535 H         4 MET4        0.0000
     61 HG2        44.0164   50.7421   85.2453 H         4 MET4        0.0000
     62 HG3        44.6667   52.1766   84.4334 H         4 MET4        0.0000
     63 HE1        47.6859   50.9324   86.1288 H         4 MET4        0.0000
     64 HE2        46.5453   52.0647   86.0717 H         4 MET4        0.0000
     65 HE3        46.2416   50.6523   86.7781 H         4 MET4        0.0000
     66 N          42.3630   52.0530   80.5910 N.am      5 THR5        0.0000
     67 CA         42.2660   51.8870   79.1460 C.3       5 THR5        0.0000
     68 C          43.5950   52.2840   78.5110 C.2       5 THR5        0.0000
     69 O          44.4630   52.8440   79.1810 O.2       5 THR5        0.0000
     70 CB         41.1410   52.7400   78.5360 C.3       5 THR5        0.0000
     71 OG1        41.1700   54.0530   79.1080 O.3       5 THR5        0.0000
     72 CG2        39.7860   52.1040   78.8030 C.3       5 THR5        0.0000
     73 OXT        43.8360   52.0550   77.3250 O.3       5 THR5        0.0000
     74 HNCA       42.7828   52.9577   80.9121 H         5 THR5        0.0000
     75 HA         42.0781   50.8514   78.8928 H         5 THR5        0.0000
     76 HB         41.2951   52.7795   77.4688 H         5 THR5        0.0000
     77 HG21       39.7231   51.1858   78.4118 H         5 THR5        0.0000
     78 HG22       39.6023   52.0186   79.7823 H         5 THR5        0.0000
     79 HG23       39.0396   52.6415   78.4106 H         5 THR5        0.0000
     80 HG1        40.4946   54.5765   78.5885 H         5 THR5        0.0000
     81 H          44.7591   51.6706   77.3181 H         5 THR5        0.0000
@<TRIPOS>BOND
     1    2    1 1
     2   15    1 1
     3   16    1 1
     4   17    1 1
     5    3    2 1
     6    5    2 1
     7   10    2 1
     8    4    3 2
     9    6    5 1
    10   11    5 1
    11   12    5 1
    12    7    6 1
    13   13    6 1
    14   14    6 1
    15    8    7 ar
    16    9    7 ar
    17   19   18 1
    18   29   18 1
    19   20   19 1
    20   22   19 1
    21   30   19 1
    22   21   20 2
    23   23   22 1
    24   31   22 1
    25   32   22 1
    26   24   23 1
    27   33   23 1
    28   34   23 1
    29   25   24 1
    30   35   24 1
    31   36   24 1
    32   26   25 ar
    33   37   25 1
    34   27   26 ar
    35   28   26 ar
    36   38   27 1
    37   39   27 1
    38   40   28 1
    39   41   28 1
    40   43   42 1
    41   46   42 1
    42   44   43 1
    43   47   43 1
    44   48   43 1
    45   45   44 2
    46   50   49 1
    47   57   49 1
    48   51   50 1
    49   53   50 1
    50   58   50 1
    51   52   51 2
    52   54   53 1
    53   59   53 1
    54   60   53 1
    55   55   54 1
    56   61   54 1
    57   62   54 1
    58   56   55 1
    59   63   56 1
    60   64   56 1
    61   65   56 1
    62   67   66 1
    63   74   66 1
    64   68   67 1
    65   70   67 1
    66   75   67 1
    67   69   68 2
    68   73   68 1
    69   71   70 1
    70   72   70 1
    71   76   70 1
    72   80   71 1
    73   77   72 1
    74   78   72 1
    75   79   72 1
    76   81   73 1
    77   18    3 am
    78   42   20 am
    79   49   44 am
    80   66   51 am
@<TRIPOS>SUBSTRUCTURE
     1 GLU1        1 RESIDUE
     2 ARG2       18 RESIDUE
     3 GLY3       42 RESIDUE
     4 MET4       49 RESIDUE
     5 THR5       66 RESIDUE
@<TRIPOS>SET

