#    Name: 2y6o_1N1_1_INTS_M
#    Modification time : Tue Mar 25 07:43:12 2014

@<TRIPOS>MOLECULE
2y6o_1N1_1_INTS_M
   65     0     9     0     0
SMALL
NO_CHARGES


@<TRIPOS>ATOM
      1 CA         30.3555   59.7720   28.0100 C.3       3 GLC5        0.0000 
      2 CA         28.5980   59.6340   29.1920 C.3       9 GLL5        0.0000 
      3 CA         32.1130   59.9100   26.8280 C.3       6 GLP5        0.0000 
      4 CA         28.9855   60.8600   27.4830 C.3       3 GLC5        0.0000 
      5 CA         29.3730   62.0860   25.7740 C.3       6 GLP5        0.0000 
      6 CA         29.5795   58.5855   32.7680 C.3       3 GLC5        0.0000 
      7 CA         30.5580   57.0020   33.0500 C.3       9 GLL5        0.0000 
      8 CA         28.6010   60.1690   32.4860 C.3       6 GLP5        0.0000 
      9 CA         29.9040   57.7420   34.8805 C.3       3 GLC5        0.0000 
     10 CA         29.2500   58.4820   36.7110 C.3       6 GLP5        0.0000 
     11 CA         22.9260   59.5670   30.7395 C.3       3 GLC5        0.0000 
     12 CA         22.3800   58.8440   29.0790 C.3       9 GLL5        0.0000 
     13 CA         23.4720   60.2900   32.4000 C.3       6 GLP5        0.0000 
     14 CA         22.3065   58.3705   31.2745 C.3       3 GLC5        0.0000 
     15 CA         22.1160   57.4350   29.4840 C.3       9 GLL5        0.0000 
     16 CA         22.4970   59.3060   33.0650 C.3       6 GLP5        0.0000 
     17 CA         21.2530   56.2895   31.1700 C.3       3 GLC5        0.0000 
     18 CA         20.3900   55.1440   32.8560 C.3       6 GLP5        0.0000 
     19 CA         21.8675   61.9870   26.3305 C.3       3 GLC5        0.0000 
     20 CA         20.6520   63.1770   27.7640 C.3       9 GLL5        0.0000 
     21 CA         23.0830   60.7970   24.8970 C.3       6 GLP5        0.0000 
     22 O          25.2870   62.1765   27.7465 O.2       1 ALC1        0.0000 
     23 O          25.2550   60.9790   28.5130 O.2       7 ALL1        0.0000 
     24 O          25.3190   63.3740   26.9800 O.2       4 ALP1        0.0000 
     25 N          27.8770   62.0675   28.4085 N.am      2 SEC2        0.0000 
     26 N          27.6330   60.6390   28.8200 N.am      8 SEL2        0.0000 
     27 N          28.1210   63.4960   27.9970 N.am      5 SEP2        0.0000 
     28 CA         26.0315   57.8140   31.2895 C.3       3 GLC5        0.0000 
     29 CA         26.3270   58.5240   29.3040 C.3       9 GLL5        0.0000 
     30 CA         25.7360   57.1040   33.2750 C.3       6 GLP5        0.0000 
     31 O          30.9120   58.3945   30.6080 O.2       1 ALC1        0.0000 
     32 O          30.0310   57.2950   30.2710 O.2       7 ALL1        0.0000 
     33 O          31.7930   59.4940   30.9450 O.2       4 ALP1        0.0000 
     34 CA         31.9780   57.1295   27.6070 C.3       3 GLC5        0.0000 
     35 CA         30.8580   55.4570   28.1030 C.3       9 GLL5        0.0000 
     36 CA         33.0980   58.8020   27.1110 C.3       6 GLP5        0.0000 
     37 CA         29.7640   56.7150   26.9730 C.3       3 GLC5        0.0000 
     38 CA         28.6700   57.9730   25.8430 C.3       6 GLP5        0.0000 
     39 CA         30.6900   55.2235   26.2335 C.3       3 GLC5        0.0000 
     40 CA         30.5220   54.9900   24.3640 C.3       6 GLP5        0.0000 
     41 CA         21.1085   64.0005   25.3480 C.3       3 GLC5        0.0000 
     42 CA         19.5220   63.5800   26.8800 C.3       9 GLL5        0.0000 
     43 CA         22.6950   64.4210   23.8160 C.3       6 GLP5        0.0000 
     44 CA         31.1470   52.6100   31.9857 C.3       3 GLC5        0.0000 
     45 CA         31.9490   54.0960   30.1630 C.3       9 GLL5        0.0000 
     46 CA         30.2110   51.2030   33.1370 C.3       6 GLP5        0.0000 
     47 CA         33.7520   54.7090   31.0422 C.3       3 GLC5        0.0000 
     48 CA         32.2170   53.9380   31.5060 C.3       9 GLL5        0.0000 
     49 CA         35.5050   55.0170   30.1120 C.3       6 GLP5        0.0000 
     50 CA         33.1068   55.0655   33.2014 C.3       3 GLC5        0.0000 
     51 CA         31.0380   56.0050   32.0290 C.3       9 GLL5        0.0000 
     52 CA         34.6950   54.9280   34.4020 C.3       6 GLP5        0.0000 
     53 CA         32.2260   57.2392   31.9002 C.3       3 GLC5        0.0000 
     54 CA         33.6540   57.9750   31.2610 C.3       6 GLP5        0.0000 
     55 CA         30.2784   55.0961   33.8730 C.3       3 GLC5        0.0000 
     56 CA         29.5730   53.9740   35.1040 C.3       6 GLP5        0.0000 
     57 CA         22.9815   60.6380   30.4275 C.3       3 GLC5        0.0000 
     58 CA         23.8980   60.5310   28.6150 C.3       9 GLL5        0.0000 
     59 CA         22.7870   60.8915   26.6760 C.3       3 GLC5        0.0000 
     60 CA         27.9470   59.4720   30.9017 C.3       3 GLC5        0.0000 
     61 CA         27.9815   58.3740   27.5802 C.3       3 GLC5        0.0000 
     62 CA         33.5420   54.8413   30.0328 C.3       3 GLC5        0.0000 
     63 CA         31.2090   55.2350   29.7440 C.3       9 GLL5        0.0000 
     64 CA         32.5686   56.4730   30.9504 C.3       3 GLC5        0.0000 
     65 CA         30.7760   56.1520   30.6800 C.3       9 GLL5        0.0000 
@<TRIPOS>BOND
@<TRIPOS>SUBSTRUCTURE
     1 ALC1       22 GROUP        1 X    ALC  0     ROOT ALC X 1
     2 SEC2       25 GROUP        1 X    SEC  0     **** SEC X 2
     3 GLC5        1 GROUP        1 X    GLC  0     **** GLC X 6
     4 ALP1       24 GROUP        1 Y    ALP  0     ROOT ALP Y 8
     5 SEP2       27 GROUP        1 Y    SEP  0     **** SEP Y 9
     6 GLP5        3 GROUP        1 Y    GLP  0     **** GLP Y 13
     7 ALL1       23 GROUP        1 Z    ALL  0     ROOT ALL Z 15
     8 SEL2       26 GROUP        1 Z    SEL  0     **** SEL Z 16
     9 GLL5        2 GROUP        1 Z    GLL  0     **** GLL Z 20
@<TRIPOS>SET

