#    Name: 2y6o_1N1_1_ligand
#    Modification time : Tue Mar 25 07:43:12 2014

@<TRIPOS>MOLECULE
2y6o_1N1_1_ligand
   60    63     1     0     0
SMALL
NO_CHARGES


@<TRIPOS>ATOM
      1 C1         28.5980   59.6340   29.1920 C.2       1 1N11892     0.0000 
      2 C2         27.9200   58.4180   29.4700 C.2       1 1N11892     0.0000 
      3 C3         28.6530   57.1530   29.8850 C.2       1 1N11892     0.0000 
      4 N6         18.2390   63.2470   27.4410 N.4       1 1N11892     0.0000 
      5 C7         32.2170   53.9380   31.5060 C.ar      1 1N11892     0.0000 
      6 C8         31.7810   54.8640   32.4390 C.ar      1 1N11892     0.0000 
      7 C9         31.0380   56.0050   32.0290 C.ar      1 1N11892     0.0000 
      8 C10        30.5580   57.0020   33.0500 C.3       1 1N11892     0.0000 
      9 C11        23.8980   60.5310   28.6150 C.ar      1 1N11892     0.0000 
     10 C12        22.8620   61.4570   28.3310 C.ar      1 1N11892     0.0000 
     11 C13        21.6020   60.9780   28.4370 C.ar      1 1N11892     0.0000 
     12 C14        22.3800   58.8440   29.0790 C.ar      1 1N11892     0.0000 
     13 C15        22.1160   57.4350   29.4840 C.3       1 1N11892     0.0000 
     14 C16        20.6520   63.1770   27.7640 C.3       1 1N11892     0.0000 
     15 C19        19.2720   61.5060   28.7710 C.3       1 1N11892     0.0000 
     16 C20        17.4940   64.3100   28.1770 C.3       1 1N11892     0.0000 
     17 C21        18.2110   65.0140   29.2570 C.3       1 1N11892     0.0000 
     18 N          25.2550   60.9790   28.5130 N.pl3     1 1N11892     0.0000 
     19 C          26.3400   60.0980   28.8670 C.2       1 1N11892     0.0000 
     20 N1         27.6330   60.6390   28.8200 N.2       1 1N11892     0.0000 
     21 S          26.3270   58.5240   29.3040 S.3       1 1N11892     0.0000 
     22 N2         30.0310   57.2950   30.2710 N.am      1 1N11892     0.0000 
     23 C4         30.7760   56.1520   30.6800 C.ar      1 1N11892     0.0000 
     24 C5         31.2090   55.2350   29.7440 C.ar      1 1N11892     0.0000 
     25 C6         31.9490   54.0960   30.1630 C.ar      1 1N11892     0.0000 
     26 CL         30.8580   55.4570   28.1030 Cl        1 1N11892     0.0000 
     27 O          28.0650   56.0890   29.8730 O.2       1 1N11892     0.0000 
     28 N3         21.3630   59.6580   28.8170 N.ar      1 1N11892     0.0000 
     29 N4         23.6380   59.2600   28.9740 N.ar      1 1N11892     0.0000 
     30 N5         20.5290   61.8190   28.1720 N.3       1 1N11892     0.0000 
     31 C17        19.5220   63.5800   26.8800 C.3       1 1N11892     0.0000 
     32 C18        18.1430   61.8760   27.8750 C.3       1 1N11892     0.0000 
     33 O1         17.7250   65.0940   30.3650 O.3       1 1N11892     0.0000 
     34 H          29.5251   59.7741   29.2391 H         1 1N11892     0.0000 
     35 H          17.5536   63.1915   26.3871 H         1 1N11892     0.0000 
     36 H          32.7563   53.1091   31.8272 H         1 1N11892     0.0000 
     37 H          31.9874   54.7405   33.4377 H         1 1N11892     0.0000 
     38 H          23.0832   62.3980   28.0714 H         1 1N11892     0.0000 
     39 H          21.6000   63.3448   27.2181 H         1 1N11892     0.0000 
     40 H          20.6712   63.8556   28.6381 H         1 1N11892     0.0000 
     41 H          19.1475   62.0390   29.7322 H         1 1N11892     0.0000 
     42 H          19.2001   60.4262   28.9999 H         1 1N11892     0.0000 
     43 H          16.5497   63.8589   28.5947 H         1 1N11892     0.0000 
     44 H          17.1202   65.0656   27.4293 H         1 1N11892     0.0000 
     45 H          18.4895   66.0525   28.7808 H         1 1N11892     0.0000 
     46 H          19.2860   64.5376   29.2396 H         1 1N11892     0.0000 
     47 H          25.4575   61.9197   28.1906 H         1 1N11892     0.0000 
     48 H          30.4665   58.2108   30.2500 H         1 1N11892     0.0000 
     49 H          32.2655   53.4227   29.4709 H         1 1N11892     0.0000 
     50 H          19.5936   64.6714   26.6913 H         1 1N11892     0.0000 
     51 H          19.6547   63.0907   25.8926 H         1 1N11892     0.0000 
     52 H          18.1405   61.1919   27.0060 H         1 1N11892     0.0000 
     53 H          17.1919   61.7036   28.4125 H         1 1N11892     0.0000 
     54 H          31.3180   57.4140   33.5527 H         1 1N11892     0.0000 
     55 H          30.0467   57.7500   32.6269 H         1 1N11892     0.0000 
     56 H          29.9541   56.5798   33.7260 H         1 1N11892     0.0000 
     57 H          22.9638   56.9305   29.6476 H         1 1N11892     0.0000 
     58 H          21.5782   57.3850   30.3256 H         1 1N11892     0.0000 
     59 H          21.6086   56.9356   28.7818 H         1 1N11892     0.0000 
     60 H          18.1210   64.3316   30.8768 H         1 1N11892     0.0000 
@<TRIPOS>BOND
     1    2    1 2    
     2   20    1 1    
     3   34    1 1    
     4    3    2 1    
     5   21    2 1    
     6   22    3 am   
     7   27    3 2    
     8   16    4 1    
     9   31    4 1    
    10   32    4 1    
    11   35    4 1    
    12    6    5 ar   
    13   25    5 ar   
    14   36    5 1    
    15    7    6 ar   
    16   37    6 1    
    17    8    7 1    
    18   23    7 ar   
    19   54    8 1    
    20   55    8 1    
    21   56    8 1    
    22   10    9 ar   
    23   18    9 1    
    24   29    9 ar   
    25   11   10 ar   
    26   38   10 1    
    27   28   11 ar   
    28   30   11 1    
    29   13   12 1    
    30   28   12 ar   
    31   29   12 ar   
    32   57   13 1    
    33   58   13 1    
    34   59   13 1    
    35   30   14 1    
    36   31   14 1    
    37   39   14 1    
    38   40   14 1    
    39   30   15 1    
    40   32   15 1    
    41   41   15 1    
    42   42   15 1    
    43   17   16 1    
    44   43   16 1    
    45   44   16 1    
    46   33   17 1    
    47   45   17 1    
    48   46   17 1    
    49   19   18 1    
    50   47   18 1    
    51   20   19 2    
    52   21   19 1    
    53   23   22 1    
    54   48   22 1    
    55   24   23 ar   
    56   25   24 ar   
    57   26   24 1    
    58   49   25 1    
    59   50   31 1    
    60   51   31 1    
    61   52   32 1    
    62   53   32 1    
    63   60   33 1    
@<TRIPOS>SUBSTRUCTURE
     1 1N11892     1 GROUP   
@<TRIPOS>SET

