#    Name: 3UKF_9_CAVITY_N1_6.mol2
#    Modification time : Tue Mar 11 07:49:38 2014

@<TRIPOS>MOLECULE
3UKF_9_CAVITY_N1_6.mol2
  101     0     6     0     0
SMALL
NO_CHARGES


@<TRIPOS>ATOM
      1 OG        -44.3173   61.2959   70.4700 O.2       1 SER1        0.0000 
      2 OG        -43.0771   61.2590   69.6271 O.2       1 SER1        0.0000 
      3 OG        -46.3270   60.6687   70.2099 O.2       1 SER1        0.0000 
      4 N         -45.0868   60.6318   69.3669 N.2       2 ALA2        0.0000 
      5 OG        -48.3367   60.0415   69.9497 O.2       1 SER1        0.0000 
      6 DU        -47.0965   60.0045   69.1068 H         6 CUB7        0.0000 
      7 N         -45.8563   59.9676   68.2639 N.2       2 ALA2        0.0000 
      8 N         -44.6161   59.9306   67.4210 N.2       2 ALA2        0.0000 
      9 CZ        -49.1062   59.3773   68.8467 C.ar      4 PHE5        0.0000 
     10 DU        -47.8660   59.3404   68.0037 H         6 CUB7        0.0000 
     11 DU        -46.6258   59.3034   67.1608 H         6 CUB7        0.0000 
     12 CA        -45.3856   59.2664   66.3179 C.3       5 GLY6        0.0000 
     13 O         -44.2399   64.6490   70.4368 O.2       2 ALA2        0.0000 
     14 CZ        -49.8757   58.7132   67.7436 C.ar      4 PHE5        0.0000 
     15 N         -48.6355   58.6762   66.9007 N.2       2 ALA2        0.0000 
     16 CZ        -47.3953   58.6392   66.0578 C.ar      4 PHE5        0.0000 
     17 O         -43.3457   65.9564   69.0257 O.2       2 ALA2        0.0000 
     18 CZ        -42.1055   65.9194   68.1828 C.ar      4 PHE5        0.0000 
     19 CZ        -40.8653   65.8825   67.3399 C.ar      4 PHE5        0.0000 
     20 O         -46.5956   65.3662   69.6085 O.2       2 ALA2        0.0000 
     21 O         -45.3554   65.3292   68.7656 O.2       2 ALA2        0.0000 
     22 O         -41.6348   65.2183   66.2369 O.2       2 ALA2        0.0000 
     23 NZ        -40.3946   65.1813   65.3940 N.2       3 LYS4        0.0000 
     24 O         -48.6053   64.7390   69.3484 O.2       2 ALA2        0.0000 
     25 OG        -47.3651   64.7020   68.5055 O.2       1 SER1        0.0000 
     26 O         -46.1249   64.6650   67.6625 O.2       2 ALA2        0.0000 
     27 OG        -49.3748   64.0748   68.2453 O.2       1 SER1        0.0000 
     28 OG        -48.1346   64.0378   67.4024 O.2       1 SER1        0.0000 
     29 CZ        -46.8752   58.0169   72.1890 C.ar      4 PHE5        0.0000 
     30 CZ        -45.6349   57.9799   71.3461 C.ar      4 PHE5        0.0000 
     31 CZ        -44.3947   57.9429   70.5032 C.ar      4 PHE5        0.0000 
     32 CZ        -47.6447   57.3527   71.0860 C.ar      4 PHE5        0.0000 
     33 DU        -46.4044   57.3157   70.2431 H         6 CUB7        0.0000 
     34 N         -45.1642   57.2787   69.4002 N.2       2 ALA2        0.0000 
     35 CZ        -48.4141   56.6885   69.9829 C.ar      4 PHE5        0.0000 
     36 CZ        -47.1739   56.6515   69.1400 C.ar      4 PHE5        0.0000 
     37 CA        -45.9337   56.6145   68.2971 C.3       5 GLY6        0.0000 
     38 N         -47.9434   55.9873   68.0370 N.2       2 ALA2        0.0000 
     39 CA        -46.7032   55.9503   67.1941 C.3       5 GLY6        0.0000 
     40 O         -41.7595   64.5750   68.7510 O.2       2 ALA2        0.0000 
     41 CA        -40.5192   64.5380   67.9081 C.3       5 GLY6        0.0000 
     42 O         -46.2496   64.0218   70.1766 O.2       2 ALA2        0.0000 
     43 O         -45.0094   63.9848   69.3337 O.2       2 ALA2        0.0000 
     44 O         -43.7692   63.9478   68.4908 O.2       2 ALA2        0.0000 
     45 O         -42.5289   63.9108   67.6479 O.2       2 ALA2        0.0000 
     46 N         -41.2887   63.8738   66.8050 N.2       2 ALA2        0.0000 
     47 OG        -47.0191   63.3576   69.0736 O.2       1 SER1        0.0000 
     48 OG        -45.7789   63.3206   68.2307 O.2       1 SER1        0.0000 
     49 O         -44.5387   63.2836   67.3878 O.2       2 ALA2        0.0000 
     50 OG        -50.2690   62.7674   69.6563 O.2       1 SER1        0.0000 
     51 DU        -49.0288   62.7304   68.8134 H         6 CUB7        0.0000 
     52 OG        -47.7886   62.6934   67.9705 O.2       1 SER1        0.0000 
     53 CA        -51.0385   62.1032   68.5533 C.3       5 GLY6        0.0000 
     54 CA        -49.7983   62.0662   67.7104 C.3       5 GLY6        0.0000 
     55 OG        -48.5581   62.0292   66.8675 O.2       1 SER1        0.0000 
     56 CZ        -49.3276   61.3650   65.7644 C.ar      4 PHE5        0.0000 
     57 CZ        -45.2889   56.6355   71.9143 C.ar      4 PHE5        0.0000 
     58 N         -44.0487   56.5985   71.0714 N.2       2 ALA2        0.0000 
     59 CZ        -46.0584   55.9713   70.8112 C.ar      4 PHE5        0.0000 
     60 CA        -44.8182   55.9343   69.9683 C.3       5 GLY6        0.0000 
     61 O         -43.8939   63.3046   71.0049 O.2       2 ALA2        0.0000 
     62 O         -41.4134   63.2306   69.3191 O.2       2 ALA2        0.0000 
     63 OG        -45.9036   62.6774   70.7448 O.2       1 SER1        0.0000 
     64 OG        -44.6633   62.6404   69.9019 O.2       1 SER1        0.0000 
     65 O         -43.4231   62.6034   69.0590 O.2       2 ALA2        0.0000 
     66 N         -42.1829   62.5664   68.2161 N.2       2 ALA2        0.0000 
     67 CZ        -47.9133   62.0502   70.4846 C.ar      4 PHE5        0.0000 
     68 OG        -46.6731   62.0132   69.6417 O.2       1 SER1        0.0000 
     69 DU        -45.4328   61.9762   68.7988 H         6 CUB7        0.0000 
     70 CA        -44.1926   61.9392   67.9559 C.3       5 GLY6        0.0000 
     71 OG        -48.6828   61.3860   69.3816 O.2       1 SER1        0.0000 
     72 DU        -47.4425   61.3490   68.5387 H         6 CUB7        0.0000 
     73 OG        -46.2023   61.3120   67.6958 O.2       1 SER1        0.0000 
     74 CA        -44.9621   61.2750   66.8529 C.3       5 GLY6        0.0000 
     75 OG        -50.6925   60.7588   69.1214 O.2       1 SER1        0.0000 
     76 OG        -49.4523   60.7218   68.2785 O.2       1 SER1        0.0000 
     77 OG        -48.2120   60.6848   67.4356 O.2       1 SER1        0.0000 
     78 OG        -46.9718   60.6478   66.5927 O.2       1 SER1        0.0000 
     79 CA        -45.7316   60.6108   65.7498 C.3       5 GLY6        0.0000 
     80 CA        -50.2218   60.0576   67.1755 C.3       5 GLY6        0.0000 
     81 O         -48.9815   60.0206   66.3326 O.2       2 ALA2        0.0000 
     82 CZ        -47.7413   59.9836   65.4896 C.ar      4 PHE5        0.0000 
     83 CZ        -49.5297   57.3687   68.3117 C.ar      4 PHE5        0.0000 
     84 N         -48.2895   57.3317   67.4688 N.2       2 ALA2        0.0000 
     85 N         -47.0492   57.2948   66.6259 N.2       2 ALA2        0.0000 
     86 CZ        -48.0681   55.3441   70.5511 C.ar      4 PHE5        0.0000 
     87 CA        -46.8279   55.3071   69.7081 C.3       5 GLY6        0.0000 
     88 CA        -45.5877   55.2701   68.8652 C.3       5 GLY6        0.0000 
     89 CZ        -45.2115   59.9885   71.8810 C.ar      4 PHE5        0.0000 
     90 CZ        -47.2212   59.3613   71.6209 C.ar      4 PHE5        0.0000 
     91 CZ        -45.9810   59.3243   70.7780 C.ar      4 PHE5        0.0000 
     92 N         -44.7408   59.2873   69.9351 N.2       2 ALA2        0.0000 
     93 CZ        -47.9907   58.6971   70.5178 C.ar      4 PHE5        0.0000 
     94 DU        -46.7505   58.6601   69.6749 H         6 CUB7        0.0000 
     95 N         -45.5103   58.6231   68.8320 N.2       2 ALA2        0.0000 
     96 CZ        -47.5200   57.9959   68.5719 C.ar      4 PHE5        0.0000 
     97 CA        -46.2798   57.9589   67.7290 C.3       5 GLY6        0.0000 
     98 O         -48.9514   66.0834   68.7802 O.2       2 ALA2        0.0000 
     99 OG        -47.7112   66.0464   67.9373 O.2       1 SER1        0.0000 
    100 O         -46.4709   66.0095   67.0944 O.2       2 ALA2        0.0000 
    101 OG        -48.4807   65.3823   66.8343 O.2       1 SER1        0.0000 
@<TRIPOS>BOND
@<TRIPOS>SUBSTRUCTURE
     1 SER1        1 GROUP   
     2 ALA2        4 GROUP   
     3 LYS4       23 GROUP   
     4 PHE5        9 GROUP   
     5 GLY6       12 GROUP   
     6 CUB7        6 GROUP   
@<TRIPOS>SET

