#    Name: 3ukf_GDU_9_INTS_M
#    Modification time : Mon Mar 24 22:43:38 2014

@<TRIPOS>MOLECULE
3ukf_GDU_9_INTS_M
   65     0     9     0     0
SMALL
NO_CHARGES


@<TRIPOS>ATOM
      1 O         -43.8735   54.5685   72.0115 O.2       1 ALC1        0.0000 
      2 O         -44.6020   55.8850   71.8340 O.2       7 ALL1        0.0000 
      3 O         -43.1450   53.2520   72.1890 O.2       4 ALP1        0.0000 
      4 CA        -46.6410   58.8755   73.8680 C.3       3 GLC5        0.0000 
      5 CA        -46.3350   57.2920   72.5610 C.3       9 GLL5        0.0000 
      6 CA        -46.9470   60.4590   75.1750 C.3       6 GLP5        0.0000 
      7 CA        -48.6575   57.7445   70.8995 C.3       3 GLC5        0.0000 
      8 CA        -46.6020   57.6410   71.2350 C.3       9 GLL5        0.0000 
      9 CA        -50.7130   57.8480   70.5640 C.3       6 GLP5        0.0000 
     10 CA        -47.4845   59.4000   72.3055 C.3       3 GLC5        0.0000 
     11 CA        -48.3670   61.1590   73.3760 C.3       6 GLP5        0.0000 
     12 N         -43.1160   54.6610   69.9690 N.am      2 SEC2        0.0000 
     13 N         -44.2240   55.7680   69.6680 N.am      8 SEL2        0.0000 
     14 N         -42.0080   53.5540   70.2700 N.am      5 SEP2        0.0000 
     15 N         -44.1700   55.2635   74.8155 N.am      2 SEC2        0.0000 
     16 N         -45.0380   56.0480   74.0930 N.am      8 SEL2        0.0000 
     17 N         -43.3020   54.4790   75.5380 N.am      5 SEP2        0.0000 
     18 CA        -45.0785   56.7530   67.1570 C.3       3 GLC5        0.0000 
     19 CA        -46.1130   57.4620   68.8050 C.3       9 GLL5        0.0000 
     20 CA        -44.0440   56.0440   65.5090 C.3       6 GLP5        0.0000 
     21 N         -48.8190   55.1165   67.4105 N.am      2 SEC2        0.0000 
     22 N         -47.7430   56.3230   67.5470 N.am      8 SEL2        0.0000 
     23 N         -49.8950   53.9100   67.2740 N.am      5 SEP2        0.0000 
     24 O         -48.8280   56.0725   66.8175 O.2       1 ALC1        0.0000 
     25 O         -47.7430   56.3230   67.5470 O.2       7 ALL1        0.0000 
     26 O         -49.9130   55.8220   66.0880 O.2       4 ALP1        0.0000 
     27 CA        -44.8440   59.7475   66.2135 C.3       3 GLC5        0.0000 
     28 CA        -46.5940   59.2300   67.4810 C.3       9 GLL5        0.0000 
     29 CA        -43.0940   60.2650   64.9460 C.3       6 GLP5        0.0000 
     30 N         -49.6710   58.4230   65.4795 N.am      2 SEC2        0.0000 
     31 N         -48.6410   58.4050   66.6260 N.am      8 SEL2        0.0000 
     32 N         -50.7010   58.4410   64.3330 N.am      5 SEP2        0.0000 
     33 O         -49.2770   57.1135   66.3570 O.2       1 ALC1        0.0000 
     34 O         -48.6410   58.4050   66.6260 O.2       7 ALL1        0.0000 
     35 N         -50.6980   64.5950   67.8860 N.am      2 SEC2        0.0000 
     36 N         -49.5320   63.7590   68.3720 N.am      8 SEL2        0.0000 
     37 N         -51.8640   65.4310   67.4000 N.am      5 SEP2        0.0000 
     38 N         -50.1765   65.3865   67.1390 N.am      2 SEC2        0.0000 
     39 N         -48.4890   65.3420   66.8780 N.am      8 SEL2        0.0000 
     40 N         -47.8245   64.4740   66.0065 N.am      2 SEC2        0.0000 
     41 N         -47.1600   63.6060   65.1350 N.am      5 SEP2        0.0000 
     42 N         -48.7765   65.4815   70.5360 N.am      2 SEC2        0.0000 
     43 N         -48.1680   65.4960   69.3210 N.am      8 SEL2        0.0000 
     44 N         -49.3850   65.4670   71.7510 N.am      5 SEP2        0.0000 
     45 CA        -45.9165   69.7465   73.5125 C.3       3 GLC5        0.0000 
     46 CA        -46.9240   68.1290   72.4230 C.3       9 GLL5        0.0000 
     47 CA        -44.9090   71.3640   74.6020 C.3       6 GLP5        0.0000 
     48 CA        -46.4925   67.1425   74.3955 C.3       3 GLC5        0.0000 
     49 CA        -46.0610   66.1560   76.3680 C.3       6 GLP5        0.0000 
     50 N         -45.3700   66.1090   66.5020 N.am      2 SEC2        0.0000 
     51 N         -46.5700   66.9110   67.1920 N.am      8 SEL2        0.0000 
     52 N         -44.1700   65.3070   65.8120 N.am      5 SEP2        0.0000 
     53 N         -44.2355   66.1860   67.3100 N.am      2 SEC2        0.0000 
     54 N         -44.3010   67.0650   68.8080 N.am      8 SEL2        0.0000 
     55 N         -48.7415   66.4815   71.0795 N.am      2 SEC2        0.0000 
     56 N         -48.0980   67.4960   70.4080 N.am      8 SEL2        0.0000 
     57 O         -48.5425   69.9250   73.0930 O.2       1 ALC1        0.0000 
     58 O         -48.1160   68.7200   72.8440 O.2       7 ALL1        0.0000 
     59 O         -48.9690   71.1300   73.3420 O.2       4 ALP1        0.0000 
     60 CA        -44.8012   58.4903   72.5735 C.3       3 GLC5        0.0000 
     61 CA        -43.1340   59.5140   73.2490 C.3       6 GLP5        0.0000 
     62 CA        -47.3992   55.9882   72.4525 C.3       3 GLC5        0.0000 
     63 CA        -48.3300   54.5100   73.0070 C.3       6 GLP5        0.0000 
     64 CA        -49.2133   57.9200   69.3372 C.3       3 GLC5        0.0000 
     65 CA        -47.5520   57.3690   68.4300 C.3       9 GLL5        0.0000 
@<TRIPOS>BOND
@<TRIPOS>SUBSTRUCTURE
     1 ALC1        1 GROUP        1 X    ALC  0     ROOT ALC X 1
     2 SEC2       12 GROUP        1 X    SEC  0     **** SEC X 2
     3 GLC5        4 GROUP        1 X    GLC  0     **** GLC X 6
     4 ALP1        3 GROUP        1 Y    ALP  0     ROOT ALP Y 8
     5 SEP2       14 GROUP        1 Y    SEP  0     **** SEP Y 9
     6 GLP5        6 GROUP        1 Y    GLP  0     **** GLP Y 13
     7 ALL1        2 GROUP        1 Z    ALL  0     ROOT ALL Z 15
     8 SEL2       13 GROUP        1 Z    SEL  0     **** SEL Z 16
     9 GLL5        5 GROUP        1 Z    GLL  0     **** GLL Z 20
@<TRIPOS>SET

