#    Name: 3ukf_GDU_9_ligand
#    Modification time : Mon Mar 24 22:43:38 2014

@<TRIPOS>MOLECULE
3ukf_GDU_9_ligand
   58    60     1     0     0
SMALL
NO_CHARGES


@<TRIPOS>ATOM
      1 N1        -45.8630   57.0990   70.2470 N.am      1 GDU802      0.0000 
      2 C2        -44.8850   56.2430   70.5640 C.2       1 GDU802      0.0000 
      3 N3        -44.6020   55.8850   71.8340 N.am      1 GDU802      0.0000 
      4 C4        -45.3130   56.3970   72.8370 C.2       1 GDU802      0.0000 
      5 C5        -46.3350   57.2920   72.5610 C.2       1 GDU802      0.0000 
      6 C6        -46.6020   57.6410   71.2350 C.2       1 GDU802      0.0000 
      7 O2        -44.2240   55.7680   69.6680 O.2       1 GDU802      0.0000 
      8 O4        -45.0380   56.0480   74.0930 O.2       1 GDU802      0.0000 
      9 C1D       -46.1130   57.4620   68.8050 C.3       1 GDU802      0.0000 
     10 C2D       -47.5520   57.3690   68.4300 C.3       1 GDU802      0.0000 
     11 O2D       -47.7430   56.3230   67.5470 O.3       1 GDU802      0.0000 
     12 C3D       -47.8750   58.6150   67.7910 C.3       1 GDU802      0.0000 
     13 C4D       -46.5940   59.2300   67.4810 C.3       1 GDU802      0.0000 
     14 O4D       -45.6920   58.7350   68.4870 O.3       1 GDU802      0.0000 
     15 O3D       -48.6410   58.4050   66.6260 O.3       1 GDU802      0.0000 
     16 C5D       -46.7040   60.6790   67.6150 C.3       1 GDU802      0.0000 
     17 O5D       -47.1590   61.1460   68.8440 O.3       1 GDU802      0.0000 
     18 PA        -46.8260   62.6300   69.3270 P.3       1 GDU802      0.0000 
     19 O1A       -47.8350   62.9550   70.4550 O.co2     1 GDU802      0.0000 
     20 O2A       -45.3810   62.7510   69.8480 O.co2     1 GDU802      0.0000 
     21 O3A       -47.1210   63.6310   68.1030 O.3       1 GDU802      0.0000 
     22 PB        -48.3430   64.5800   68.1420 P.3       1 GDU802      0.0000 
     23 O1B       -49.5320   63.7590   68.3720 O.co2     1 GDU802      0.0000 
     24 O2B       -48.4890   65.3420   66.8780 O.co2     1 GDU802      0.0000 
     25 O3B       -48.1680   65.4960   69.3210 O.3       1 GDU802      0.0000 
     26 C1'       -48.0040   66.8680   69.1650 C.3       1 GDU802      0.0000 
     27 C2'       -46.6510   67.2180   68.5820 C.3       1 GDU802      0.0000 
     28 C3'       -45.5680   66.6050   69.3450 C.3       1 GDU802      0.0000 
     29 C4'       -45.6350   66.8960   70.7560 C.3       1 GDU802      0.0000 
     30 C5'       -47.0030   67.1190   71.3520 C.3       1 GDU802      0.0000 
     31 C6'       -46.9240   68.1290   72.4230 C.3       1 GDU802      0.0000 
     32 O2'       -46.5700   66.9110   67.1920 O.3       1 GDU802      0.0000 
     33 O3'       -44.3010   67.0650   68.8080 O.3       1 GDU802      0.0000 
     34 O4'       -44.7300   67.9660   71.1160 O.3       1 GDU802      0.0000 
     35 O5'       -48.0980   67.4960   70.4080 O.3       1 GDU802      0.0000 
     36 O6'       -48.1160   68.7200   72.8440 O.3       1 GDU802      0.0000 
     37 H         -43.8291   55.2105   72.0206 H         1 GDU802      0.0000 
     38 H         -46.8920   57.6964   73.3190 H         1 GDU802      0.0000 
     39 H         -47.3616   58.3085   71.0375 H         1 GDU802      0.0000 
     40 H         -45.5761   56.7184   68.1784 H         1 GDU802      0.0000 
     41 H         -48.1256   57.2631   69.3316 H         1 GDU802      0.0000 
     42 H         -48.3973   59.2490   68.5006 H         1 GDU802      0.0000 
     43 H         -46.2725   58.9529   66.5153 H         1 GDU802      0.0000 
     44 H         -47.3634   61.0590   66.7739 H         1 GDU802      0.0000 
     45 H         -45.6943   61.1311   67.3645 H         1 GDU802      0.0000 
     46 H         -48.7545   67.2810   68.4851 H         1 GDU802      0.0000 
     47 H         -46.5506   68.3332   68.7033 H         1 GDU802      0.0000 
     48 H         -45.6175   65.5122   69.1991 H         1 GDU802      0.0000 
     49 H         -45.2263   65.9646   71.3036 H         1 GDU802      0.0000 
     50 H         -47.3063   66.1608   71.8498 H         1 GDU802      0.0000 
     51 H         -46.1803   68.9245   72.0883 H         1 GDU802      0.0000 
     52 H         -46.3822   67.6512   73.3040 H         1 GDU802      0.0000 
     53 H         -48.6645   56.4572   67.1825 H         1 GDU802      0.0000 
     54 H         -48.5690   57.4247   66.4423 H         1 GDU802      0.0000 
     55 H         -47.5160   66.7599   66.9049 H         1 GDU802      0.0000 
     56 H         -43.9573   67.7200   69.4809 H         1 GDU802      0.0000 
     57 H         -45.2251   68.8074   70.8994 H         1 GDU802      0.0000 
     58 H         -47.9309   69.7027   72.8461 H         1 GDU802      0.0000 
@<TRIPOS>BOND
     1    2    1 1    
     2    6    1 1    
     3    9    1 1    
     4    3    2 1    
     5    7    2 2    
     6    4    3 1    
     7   37    3 1    
     8    5    4 1    
     9    8    4 2    
    10    6    5 2    
    11   38    5 1    
    12   39    6 1    
    13   10    9 1    
    14   14    9 1    
    15   40    9 1    
    16   11   10 1    
    17   12   10 1    
    18   41   10 1    
    19   53   11 1    
    20   13   12 1    
    21   15   12 1    
    22   42   12 1    
    23   14   13 1    
    24   16   13 1    
    25   43   13 1    
    26   54   15 1    
    27   17   16 1    
    28   44   16 1    
    29   45   16 1    
    30   18   17 1    
    31   19   18 ar   
    32   20   18 ar   
    33   21   18 1    
    34   22   21 1    
    35   23   22 ar   
    36   24   22 ar   
    37   25   22 1    
    38   26   25 1    
    39   27   26 1    
    40   35   26 1    
    41   46   26 1    
    42   28   27 1    
    43   32   27 1    
    44   47   27 1    
    45   29   28 1    
    46   33   28 1    
    47   48   28 1    
    48   30   29 1    
    49   34   29 1    
    50   49   29 1    
    51   31   30 1    
    52   35   30 1    
    53   50   30 1    
    54   36   31 1    
    55   51   31 1    
    56   52   31 1    
    57   55   32 1    
    58   56   33 1    
    59   57   34 1    
    60   58   36 1    
@<TRIPOS>SUBSTRUCTURE
     1 GDU802      1 GROUP   
@<TRIPOS>SET

