#    Name: 2oli_IOP_1_INTS_M
#    Modification time : Tue Mar 25 22:54:04 2014

@<TRIPOS>MOLECULE
2oli_IOP_1_INTS_M
   32     0     9     0     0
SMALL
NO_CHARGES


@<TRIPOS>ATOM
      1 NZ        -23.1825    9.0100  -11.0885 N.4       2 LYC4        0.0000 
      2 NZ        -23.4530    7.8050  -10.2120 N.4       8 LYL4        0.0000 
      3 NZ        -22.9120   10.2150  -11.9650 N.4       5 LYP4        0.0000 
      4 N         -23.1825    9.0100  -11.0885 N.am      1 SEC2        0.0000 
      5 N         -23.4530    7.8050  -10.2120 N.am      7 SEL2        0.0000 
      6 N         -22.9120   10.2150  -11.9650 N.am      4 SEP2        0.0000 
      7 NZ        -22.1165    8.8300  -11.5545 N.4       2 LYC4        0.0000 
      8 NZ        -21.3210    7.4450  -11.1440 N.4       8 LYL4        0.0000 
      9 CA        -22.1395    3.2040   -7.0950 C.3       3 GLC5        0.0000 
     10 CA        -21.1710    5.1700   -6.7070 C.3       9 GLL5        0.0000 
     11 CA        -23.1080    1.2380   -7.4830 C.3       6 GLP5        0.0000 
     12 CA        -24.5810    4.9840   -7.1990 C.3       3 GLC5        0.0000 
     13 CA        -22.5370    5.0560   -6.2890 C.3       9 GLL5        0.0000 
     14 CA        -26.6250    4.9120   -8.1090 C.3       6 GLP5        0.0000 
     15 CA        -19.3895    7.1330   -6.4780 C.3       3 GLC5        0.0000 
     16 CA        -20.0810    5.3740   -5.6720 C.3       9 GLL5        0.0000 
     17 CA        -18.6980    8.8920   -7.2840 C.3       6 GLP5        0.0000 
     18 CA        -19.4067    6.8952   -8.4814 C.3       3 GLC5        0.0000 
     19 CA        -20.4300    5.1440   -8.0160 C.3       9 GLL5        0.0000 
     20 CA        -18.9240    8.6040   -8.7600 C.3       6 GLP5        0.0000 
     21 CA        -19.1358    3.4858   -8.2089 C.3       3 GLC5        0.0000 
     22 CA        -19.0820    5.3170   -7.6750 C.3       9 GLL5        0.0000 
     23 CA        -18.3820    1.7850   -8.2150 C.3       6 GLP5        0.0000 
     24 CA        -19.9050    3.2685   -6.6178 C.3       3 GLC5        0.0000 
     25 CA        -19.1840    1.2650   -7.0460 C.3       6 GLP5        0.0000 
     26 CA        -23.5422    3.3137   -6.1472 C.3       3 GLC5        0.0000 
     27 CA        -24.3910    1.5320   -6.6970 C.3       6 GLP5        0.0000 
     28 CA        -21.0895    5.2730   -2.1715 C.3       3 GLC5        0.0000 
     29 CA        -21.8170    5.3280   -3.9350 C.3       9 GLL5        0.0000 
     30 CA        -21.0500    5.1580   -0.2240 C.3       6 GLP5        0.0000 
     31 CA        -19.8500    4.0075   -3.8172 C.3       3 GLC5        0.0000 
     32 CA        -19.0950    2.6340   -2.7390 C.3       6 GLP5        0.0000 
@<TRIPOS>BOND
@<TRIPOS>SUBSTRUCTURE
     1 SEC2        4 GROUP        1 X    SEC  0     ROOT SEC X 2
     2 LYC4        1 GROUP        1 X    LYC  0     **** LYC X 4
     3 GLC5        9 GROUP        1 X    GLC  0     **** GLC X 6
     4 SEP2        6 GROUP        1 Y    SEP  0     ROOT SEP Y 9
     5 LYP4        3 GROUP        1 Y    LYP  0     **** LYP Y 11
     6 GLP5       11 GROUP        1 Y    GLP  0     **** GLP Y 13
     7 SEL2        5 GROUP        1 Z    SEL  0     ROOT SEL Z 16
     8 LYL4        2 GROUP        1 Z    LYL  0     **** LYL Z 18
     9 GLL5       10 GROUP        1 Z    GLL  0     **** GLL Z 20
@<TRIPOS>SET

