#    Name: 2oli_IOP_1_ligand
#    Modification time : Tue Mar 25 22:54:04 2014

@<TRIPOS>MOLECULE
2oli_IOP_1_ligand
   24    25     1     0     0
SMALL
NO_CHARGES


@<TRIPOS>ATOM
      1 C1'       -22.1410    7.2360   -9.9930 C.2       1 IOP1001     0.0000 
      2 O1        -23.4530    7.8050  -10.2120 O.co2     1 IOP1001     0.0000 
      3 O2        -21.3210    7.4450  -11.1440 O.co2     1 IOP1001     0.0000 
      4 C2'       -22.2790    5.7390   -9.7050 C.3       1 IOP1001     0.0000 
      5 C3'       -20.9640    4.9680   -9.4450 C.3       1 IOP1001     0.0000 
      6 N1        -18.9070    5.4480   -6.3220 N.pl3     1 IOP1001     0.0000 
      7 C2        -19.0820    5.3170   -7.6750 C.2       1 IOP1001     0.0000 
      8 C3        -20.4300    5.1440   -8.0160 C.2       1 IOP1001     0.0000 
      9 C3A       -21.1710    5.1700   -6.7070 C.ar      1 IOP1001     0.0000 
     10 C4        -22.5370    5.0560   -6.2890 C.ar      1 IOP1001     0.0000 
     11 C5        -22.8500    5.1350   -4.9060 C.ar      1 IOP1001     0.0000 
     12 C6        -21.8170    5.3280   -3.9350 C.ar      1 IOP1001     0.0000 
     13 C7        -20.4410    5.4480   -4.3030 C.ar      1 IOP1001     0.0000 
     14 C7A       -20.0810    5.3740   -5.6720 C.ar      1 IOP1001     0.0000 
     15 H         -22.8026    5.2562  -10.5570 H         1 IOP1001     0.0000 
     16 H         -22.9421    5.6023   -8.8248 H         1 IOP1001     0.0000 
     17 H         -20.2061    5.3158  -10.1569 H         1 IOP1001     0.0000 
     18 H         -21.1382    3.9022   -9.6345 H         1 IOP1001     0.0000 
     19 H         -18.0330    5.5782   -5.8977 H         1 IOP1001     0.0000 
     20 H         -18.3645    5.3393   -8.3353 H         1 IOP1001     0.0000 
     21 H         -23.2665    4.9208   -6.9764 H         1 IOP1001     0.0000 
     22 H         -23.8198    5.0539   -4.5970 H         1 IOP1001     0.0000 
     23 H         -22.0738    5.3822   -2.9386 H         1 IOP1001     0.0000 
     24 H         -19.7357    5.5842   -3.5901 H         1 IOP1001     0.0000 
@<TRIPOS>BOND
     1    2    1 ar   
     2    3    1 ar   
     3    4    1 1    
     4    5    4 1    
     5   15    4 1    
     6   16    4 1    
     7    8    5 1    
     8   17    5 1    
     9   18    5 1    
    10    7    6 1    
    11   14    6 1    
    12   19    6 1    
    13    8    7 2    
    14   20    7 1    
    15    9    8 1    
    16   10    9 ar   
    17   14    9 ar   
    18   11   10 ar   
    19   21   10 1    
    20   12   11 ar   
    21   22   11 1    
    22   13   12 ar   
    23   23   12 1    
    24   14   13 ar   
    25   24   13 1    
@<TRIPOS>SUBSTRUCTURE
     1 IOP1001     1 GROUP   
@<TRIPOS>SET

