#    Name: 2pau_D5M_2_INTS_M
#    Modification time : Mon Mar 24 18:38:50 2014

@<TRIPOS>MOLECULE
2pau_D5M_2_INTS_M
   52     0    15     0     0
SMALL
NO_CHARGES


@<TRIPOS>ATOM
      1 CA          5.0555   20.4965   43.0005 C.3       5 GLC5        0.0000 
      2 CA          3.1580   20.5720   42.9370 C.3      15 GLL5        0.0000 
      3 CA          6.9530   20.4210   43.0640 C.3      10 GLP5        0.0000 
      4 N           5.0445   21.2445   44.4680 N.am      2 SEC2        0.0000 
      5 N           3.8600   20.4680   44.1980 N.am     12 SEL2        0.0000 
      6 N           6.2290   22.0210   44.7380 N.am      7 SEP2        0.0000 
      7 N           3.8715   21.8525   45.0610 N.am      2 SEC2        0.0000 
      8 N           3.8830   23.2370   45.9240 N.am      7 SEP2        0.0000 
      9 CA          1.3170   17.6045   42.0915 C.3       5 GLC5        0.0000 
     10 CA          2.2850   19.3160   42.9010 C.3      15 GLL5        0.0000 
     11 CA          0.3490   15.8930   41.2820 C.3      10 GLP5        0.0000 
     12 N           3.0110   16.7535   42.6650 N.am      2 SEC2        0.0000 
     13 N           3.0940   18.2370   42.4620 N.am     12 SEL2        0.0000 
     14 N           2.9280   15.2700   42.8680 N.am      7 SEP2        0.0000 
     15 O           2.9170   19.1335   41.0475 O.2       1 ALC1        0.0000 
     16 O           3.0940   18.2370   42.4620 O.2      11 ALL1        0.0000 
     17 O           2.7400   20.0300   39.6330 O.2       6 ALP1        0.0000 
     18 O           3.3605   18.1265   41.2790 O.2       1 ALC1        0.0000 
     19 O           3.6270   18.0160   40.0960 O.2       6 ALP1        0.0000 
     20 CA          1.2315   17.6535   45.5265 C.3       5 GLC5        0.0000 
     21 CA          1.9930   19.0040   44.3430 C.3      15 GLL5        0.0000 
     22 CA          0.4700   16.3030   46.7100 C.3      10 GLP5        0.0000 
     23 CA          3.0405   17.6300   46.2405 C.3       5 GLC5        0.0000 
     24 CA          3.3520   19.3500   44.9660 C.3      15 GLL5        0.0000 
     25 CA          2.7290   15.9100   47.5150 C.3      10 GLP5        0.0000 
     26 CA          5.1525   19.8855   44.0150 C.3       5 GLC5        0.0000 
     27 CA          6.9190   20.2115   48.8730 C.3       5 GLC5        0.0000 
     28 CA          5.3330   19.5010   49.3220 C.3      15 GLL5        0.0000 
     29 CA          8.5050   20.9220   48.4240 C.3      10 GLP5        0.0000 
     30 CA          4.4865   18.1655   50.7625 C.3       5 GLC5        0.0000 
     31 CA          3.6400   16.8300   52.2030 C.3      10 GLP5        0.0000 
     32 CA          6.3460   16.0685   48.0840 C.3       5 GLC5        0.0000 
     33 CA          6.4510   18.1810   47.6910 C.3      15 GLL5        0.0000 
     34 CA          6.2410   13.9560   48.4770 C.3      10 GLP5        0.0000 
     35 CA          7.1155   19.7175   47.4240 C.3       5 GLC5        0.0000 
     36 CA          7.7800   21.2540   47.1570 C.3      10 GLP5        0.0000 
     37 NZ         -1.3545   20.8375   43.2330 N.4       3 LYC4        0.0000 
     38 NZ         -1.2090   22.4110   42.6960 N.4      13 LYL4        0.0000 
     39 NZ         -1.3790   18.9020   42.5190 N.4       8 LYP4        0.0000 
     40 Zn         -2.2540   22.7830   42.2945 Zn        4 ZIC7        0.0000 
     41 Zn         -1.2090   22.4110   42.6960 Zn       14 ZIL7        0.0000 
     42 Zn         -3.2990   23.1550   41.8930 Zn        9 ZIP7        0.0000 
     43 N          -1.0375   21.0835   42.1740 N.am      2 SEC2        0.0000 
     44 N          -1.2090   22.4110   42.6960 N.am     12 SEL2        0.0000 
     45 N          -0.8660   19.7560   41.6520 N.am      7 SEP2        0.0000 
     46 N          -1.3545   20.8375   43.2330 N.am      2 SEC2        0.0000 
     47 N          -1.5000   19.2640   43.7700 N.am      7 SEP2        0.0000 
     48 CA          4.7828   21.4453   47.1730 C.3       5 GLC5        0.0000 
     49 CA          4.4890   19.3140   47.1190 C.3      15 GLL5        0.0000 
     50 CA          5.1470   23.3150   46.5920 C.3      10 GLP5        0.0000 
     51 CA          6.0992   20.4147   47.4555 C.3       5 GLC5        0.0000 
     52 CA          4.3480   19.8370   48.3890 C.3      15 GLL5        0.0000 
@<TRIPOS>BOND
@<TRIPOS>SUBSTRUCTURE
     1 ALC1       15 GROUP        1 X    ALC  0     ROOT ALC X 1
     2 SEC2        4 GROUP        1 X    SEC  0     **** SEC X 2
     3 LYC4       37 GROUP        1 X    LYC  0     **** LYC X 4
     4 ZIC7       40 GROUP        1 X    ZIC  0     **** ZIC X 5
     5 GLC5        1 GROUP        1 X    GLC  0     **** GLC X 6
     6 ALP1       17 GROUP        1 Y    ALP  0     ROOT ALP Y 8
     7 SEP2        6 GROUP        1 Y    SEP  0     **** SEP Y 9
     8 LYP4       39 GROUP        1 Y    LYP  0     **** LYP Y 11
     9 ZIP7       42 GROUP        1 Y    ZIP  0     **** ZIP Y 12
    10 GLP5        3 GROUP        1 Y    GLP  0     **** GLP Y 13
    11 ALL1       16 GROUP        1 Z    ALL  0     ROOT ALL Z 15
    12 SEL2        5 GROUP        1 Z    SEL  0     **** SEL Z 16
    13 LYL4       38 GROUP        1 Z    LYL  0     **** LYL Z 18
    14 ZIL7       41 GROUP        1 Z    ZIL  0     **** ZIL Z 19
    15 GLL5        2 GROUP        1 Z    GLL  0     **** GLL Z 20
@<TRIPOS>SET

