#    Name: 2pau_D5M_2_ligand
#    Modification time : Mon Mar 24 18:38:50 2014

@<TRIPOS>MOLECULE
2pau_D5M_2_ligand
   34    36     1     0     0
SMALL
NO_CHARGES


@<TRIPOS>ATOM
      1 O5'         1.2010   21.7820   43.7100 O.3       1 D5M301      0.0000 
      2 C5'         2.3880   21.8820   42.8900 C.3       1 D5M301      0.0000 
      3 C4'         3.1580   20.5720   42.9370 C.3       1 D5M301      0.0000 
      4 O4'         3.8600   20.4680   44.1980 O.3       1 D5M301      0.0000 
      5 C3'         2.2850   19.3160   42.9010 C.3       1 D5M301      0.0000 
      6 O3'         3.0940   18.2370   42.4620 O.3       1 D5M301      0.0000 
      7 C2'         1.9930   19.0040   44.3430 C.3       1 D5M301      0.0000 
      8 C1'         3.3520   19.3500   44.9660 C.3       1 D5M301      0.0000 
      9 N9          3.4490   19.7310   46.4210 N.pl3     1 D5M301      0.0000 
     10 C8          2.6730   20.5490   47.1780 C.2       1 D5M301      0.0000 
     11 N7          3.2210   20.6150   48.4100 N.2       1 D5M301      0.0000 
     12 C5          4.3480   19.8370   48.3890 C.ar      1 D5M301      0.0000 
     13 C6          5.3330   19.5010   49.3220 C.ar      1 D5M301      0.0000 
     14 N6          5.2710   19.9930   50.5830 N.pl3     1 D5M301      0.0000 
     15 N1          6.3660   18.6810   48.9500 N.ar      1 D5M301      0.0000 
     16 C2          6.4510   18.1810   47.6910 C.ar      1 D5M301      0.0000 
     17 N3          5.5220   18.4910   46.7660 N.ar      1 D5M301      0.0000 
     18 C4          4.4890   19.3140   47.1190 C.ar      1 D5M301      0.0000 
     19 P          -0.0360   22.8600   43.5800 P.3       1 D5M301      0.0000 
     20 O1P        -1.2090   22.4110   42.6960 O.co2     1 D5M301      0.0000 
     21 O3P        -0.4620   22.8580   45.0430 O.co2     1 D5M301      0.0000 
     22 O2P         0.6850   24.0930   43.0150 O.co2     1 D5M301      0.0000 
     23 H           3.0482   22.6802   43.2443 H         1 D5M301      0.0000 
     24 H           2.1321   22.0916   41.8464 H         1 D5M301      0.0000 
     25 H           3.8583   20.5217   42.1291 H         1 D5M301      0.0000 
     26 H           1.4335   19.4692   42.3736 H         1 D5M301      0.0000 
     27 H           1.8012   17.9820   44.4696 H         1 D5M301      0.0000 
     28 H           1.2610   19.6508   44.7212 H         1 D5M301      0.0000 
     29 H           4.0317   18.5001   44.7748 H         1 D5M301      0.0000 
     30 H           1.8768   20.9984   46.8846 H         1 D5M301      0.0000 
     31 H           6.0057   19.7133   51.2011 H         1 D5M301      0.0000 
     32 H           4.4960   20.5922   50.7839 H         1 D5M301      0.0000 
     33 H           7.2461   17.5502   47.4414 H         1 D5M301      0.0000 
     34 H           2.7891   18.0482   41.5285 H         1 D5M301      0.0000 
@<TRIPOS>BOND
     1    2    1 1    
     2   19    1 1    
     3    3    2 1    
     4   23    2 1    
     5   24    2 1    
     6    4    3 1    
     7    5    3 1    
     8   25    3 1    
     9    8    4 1    
    10    6    5 1    
    11    7    5 1    
    12   26    5 1    
    13   34    6 1    
    14    8    7 1    
    15   27    7 1    
    16   28    7 1    
    17    9    8 1    
    18   29    8 1    
    19   10    9 1    
    20   18    9 1    
    21   11   10 2    
    22   30   10 1    
    23   12   11 1    
    24   13   12 ar   
    25   18   12 ar   
    26   14   13 1    
    27   15   13 ar   
    28   31   14 1    
    29   32   14 1    
    30   16   15 ar   
    31   17   16 ar   
    32   33   16 1    
    33   18   17 ar   
    34   20   19 ar   
    35   21   19 ar   
    36   22   19 ar   
@<TRIPOS>SUBSTRUCTURE
     1 D5M301      1 GROUP   
@<TRIPOS>SET

