#    Name: 1uqu_UPG_1_INTS_M
#    Modification time : Tue Mar 25 07:02:41 2014

@<TRIPOS>MOLECULE
1uqu_UPG_1_INTS_M
   78     0    12     0     0
SMALL
NO_CHARGES


@<TRIPOS>ATOM
      1 O          24.8745   19.2110   13.1715 O.2       1 ALC1        0.0000 
      2 O          26.0620   19.6960   13.6530 O.2       9 ALL1        0.0000 
      3 O          23.6870   18.7260   12.6900 O.2       5 ALP1        0.0000 
      4 CA         28.4345   17.7465   15.4750 C.3       4 GLC5        0.0000 
      5 CA         27.6630   19.6040   15.4670 C.3      12 GLL5        0.0000 
      6 CA         29.2060   15.8890   15.4830 C.3       8 GLP5        0.0000 
      7 N          25.1255   17.0320   14.3400 N.am      2 SEC2        0.0000 
      8 N          26.2030   17.8620   14.9750 N.am     10 SEL2        0.0000 
      9 N          24.0480   16.2020   13.7050 N.am      6 SEP2        0.0000 
     10 O          26.0855   26.0440   14.8220 O.2       1 ALC1        0.0000 
     11 O          26.0140   24.3240   15.0460 O.2       9 ALL1        0.0000 
     12 O          26.1570   27.7640   14.5980 O.2       5 ALP1        0.0000 
     13 O          25.7165   25.4910   15.6740 O.2       1 ALC1        0.0000 
     14 O          25.4190   26.6580   16.3020 O.2       5 ALP1        0.0000 
     15 N          26.4605   26.5515   12.9220 N.am      2 SEC2        0.0000 
     16 N          27.8040   26.0370   13.7720 N.am     10 SEL2        0.0000 
     17 N          25.1170   27.0660   12.0720 N.am      6 SEP2        0.0000 
     18 O          26.9805   26.9005   14.1850 O.2       1 ALC1        0.0000 
     19 O          27.8040   26.0370   13.7720 O.2       9 ALL1        0.0000 
     20 N          31.6910   28.1560   17.3270 N.am      2 SEC2        0.0000 
     21 N          32.4510   27.2570   16.5390 N.am     10 SEL2        0.0000 
     22 N          30.9310   29.0550   18.1150 N.am      6 SEP2        0.0000 
     23 N          30.9820   27.3850   17.9610 N.am      2 SEC2        0.0000 
     24 N          31.0330   25.7150   17.8070 N.am     10 SEL2        0.0000 
     25 N          29.7975   26.7255   18.2740 N.am      2 SEC2        0.0000 
     26 N          28.5620   27.7360   18.7410 N.am      6 SEP2        0.0000 
     27 NZ         34.6340   21.8880   15.3295 N.4       3 LYC4        0.0000 
     28 NZ         34.0000   23.1060   15.3700 N.4      11 LYL4        0.0000 
     29 NZ         36.3160   20.3960   16.0790 N.4       7 LYP4        0.0000 
     30 N          34.6340   21.8880   15.3295 N.am      2 SEC2        0.0000 
     31 N          34.0000   23.1060   15.3700 N.am     10 SEL2        0.0000 
     32 N          35.2680   20.6700   15.2890 N.am      6 SEP2        0.0000 
     33 NZ         36.1640   22.6980   16.8445 N.4       3 LYC4        0.0000 
     34 NZ         35.5150   24.0440   16.8510 N.4      11 LYL4        0.0000 
     35 NZ         34.9510   23.9370   18.2080 N.4       3 LYC4        0.0000 
     36 NZ         34.3870   23.8300   19.5650 N.4       7 LYP4        0.0000 
     37 N          36.1640   22.6980   16.8445 N.am      2 SEC2        0.0000 
     38 N          35.5150   24.0440   16.8510 N.am     10 SEL2        0.0000 
     39 N          36.8130   21.3520   16.8380 N.am      6 SEP2        0.0000 
     40 N          34.9510   23.9370   18.2080 N.am      2 SEC2        0.0000 
     41 N          34.3870   23.8300   19.5650 N.am      6 SEP2        0.0000 
     42 CA         39.0540   26.6655   15.8090 C.3       4 GLC5        0.0000 
     43 CA         36.9080   26.6430   16.0490 C.3      12 GLL5        0.0000 
     44 CA         41.2000   26.6880   15.5690 C.3       8 GLP5        0.0000 
     45 CA         34.2390   28.1945   18.3300 C.3       4 GLC5        0.0000 
     46 CA         35.8320   27.5180   16.9000 C.3      12 GLL5        0.0000 
     47 CA         32.6460   28.8710   19.7600 C.3       8 GLP5        0.0000 
     48 CA         35.0500   30.3910   17.1405 C.3       4 GLC5        0.0000 
     49 CA         35.2800   28.6630   15.9790 C.3      12 GLL5        0.0000 
     50 CA         34.8200   32.1190   18.3020 C.3       8 GLP5        0.0000 
     51 CA         36.7895   29.3705   13.0825 C.3       4 GLC5        0.0000 
     52 CA         34.6740   29.1810   13.4670 C.3      12 GLL5        0.0000 
     53 CA         38.9050   29.5600   12.6980 C.3       8 GLP5        0.0000 
     54 CA         34.1150   31.0140   14.0010 C.3       4 GLC5        0.0000 
     55 CA         33.5560   32.8470   14.5350 C.3       8 GLP5        0.0000 
     56 N          36.3515   29.4310   18.8120 N.am      2 SEC2        0.0000 
     57 N          36.2000   28.1830   18.2580 N.am     10 SEL2        0.0000 
     58 N          36.5030   30.6790   19.3660 N.am      6 SEP2        0.0000 
     59 N          34.9805   28.9720   18.8665 N.am      2 SEC2        0.0000 
     60 N          33.7610   29.7610   19.4750 N.am      6 SEP2        0.0000 
     61 O          36.3100   27.2520   19.1535 O.2       1 ALC1        0.0000 
     62 O          36.2000   28.1830   18.2580 O.2       9 ALL1        0.0000 
     63 O          36.4200   26.3210   20.0490 O.2       5 ALP1        0.0000 
     64 N          33.9140   29.5250   18.0890 N.am      2 SEC2        0.0000 
     65 N          34.0670   29.2890   16.7030 N.am     10 SEL2        0.0000 
     66 N          36.3820   30.4515   12.4755 N.am      2 SEC2        0.0000 
     67 N          35.6520   30.2130   13.6400 N.am     10 SEL2        0.0000 
     68 N          37.1120   30.6900   11.3110 N.am      6 SEP2        0.0000 
     69 N          36.4100   31.1360   14.5420 N.am      2 SEC2        0.0000 
     70 N          37.1680   32.0590   15.4440 N.am      6 SEP2        0.0000 
     71 CA         26.9440   20.0285   16.9222 C.3       4 GLC5        0.0000 
     72 CA         27.9970   20.9540   15.2660 C.3      12 GLL5        0.0000 
     73 CA         26.0580   19.7780   18.4780 C.3       8 GLP5        0.0000 
     74 CA         25.7720   20.8230   15.5557 C.3       4 GLC5        0.0000 
     75 CA         23.7140   21.3670   15.7450 C.3       8 GLP5        0.0000 
     76 CA         27.8160   24.6110   16.8633 C.3       4 GLC5        0.0000 
     77 CA         27.3550   23.9830   15.0540 C.3      12 GLL5        0.0000 
     78 CA         27.8040   24.6760   18.8260 C.3       8 GLP5        0.0000 
@<TRIPOS>BOND
@<TRIPOS>SUBSTRUCTURE
     1 ALC1        1 GROUP        1 X    ALC  0     ROOT ALC X 1
     2 SEC2        7 GROUP        1 X    SEC  0     **** SEC X 2
     3 LYC4       27 GROUP        1 X    LYC  0     **** LYC X 4
     4 GLC5        4 GROUP        1 X    GLC  0     **** GLC X 6
     5 ALP1        3 GROUP        1 Y    ALP  0     ROOT ALP Y 8
     6 SEP2        9 GROUP        1 Y    SEP  0     **** SEP Y 9
     7 LYP4       29 GROUP        1 Y    LYP  0     **** LYP Y 11
     8 GLP5        6 GROUP        1 Y    GLP  0     **** GLP Y 13
     9 ALL1        2 GROUP        1 Z    ALL  0     ROOT ALL Z 15
    10 SEL2        8 GROUP        1 Z    SEL  0     **** SEL Z 16
    11 LYL4       28 GROUP        1 Z    LYL  0     **** LYL Z 18
    12 GLL5        5 GROUP        1 Z    GLL  0     **** GLL Z 20
@<TRIPOS>SET

