#    Name: 1uqu_UPG_1_ligand
#    Modification time : Tue Mar 25 07:02:41 2014

@<TRIPOS>MOLECULE
1uqu_UPG_1_ligand
   58    60     1     0     0
SMALL
NO_CHARGES


@<TRIPOS>ATOM
      1 N1         27.3580   21.6720   14.2570 N.am      1 UPG1457     0.0000 
      2 C2         26.4120   21.0330   13.4430 C.2       1 UPG1457     0.0000 
      3 N3         26.0620   19.6960   13.6530 N.am      1 UPG1457     0.0000 
      4 C4         26.6750   18.9870   14.6840 C.2       1 UPG1457     0.0000 
      5 C5         27.6630   19.6040   15.4670 C.2       1 UPG1457     0.0000 
      6 C6         27.9970   20.9540   15.2660 C.2       1 UPG1457     0.0000 
      7 O2         25.8030   21.6930   12.6100 O.2       1 UPG1457     0.0000 
      8 O4         26.2030   17.8620   14.9750 O.2       1 UPG1457     0.0000 
      9 C1C        27.6690   23.0500   13.9430 C.3       1 UPG1457     0.0000 
     10 C2C        27.3550   23.9830   15.0540 C.3       1 UPG1457     0.0000 
     11 O2C        26.0140   24.3240   15.0460 O.3       1 UPG1457     0.0000 
     12 C3C        28.3010   25.1090   14.7470 C.3       1 UPG1457     0.0000 
     13 C4C        29.5380   24.3870   14.2070 C.3       1 UPG1457     0.0000 
     14 O4C        29.0770   23.0920   13.8260 O.3       1 UPG1457     0.0000 
     15 O3C        27.8040   26.0370   13.7720 O.3       1 UPG1457     0.0000 
     16 C5C        30.6040   24.2680   15.3040 C.3       1 UPG1457     0.0000 
     17 O5C        31.3670   25.4630   15.2670 O.3       1 UPG1457     0.0000 
     18 PA         32.0060   25.9050   16.6860 P.3       1 UPG1457     0.0000 
     19 O1A        32.4510   27.2570   16.5390 O.co2     1 UPG1457     0.0000 
     20 O2A        31.0330   25.7150   17.8070 O.co2     1 UPG1457     0.0000 
     21 O3A        33.1600   24.8740   16.9740 O.3       1 UPG1457     0.0000 
     22 PB         34.3140   24.4170   16.0120 P.3       1 UPG1457     0.0000 
     23 O1B        34.0000   23.1060   15.3700 O.co2     1 UPG1457     0.0000 
     24 O2B        35.5150   24.0440   16.8510 O.co2     1 UPG1457     0.0000 
     25 O3B        35.0510   25.1290   14.8010 O.3       1 UPG1457     0.0000 
     26 C1'        36.3300   25.9130   14.9100 C.3       1 UPG1457     0.0000 
     27 C2'        36.9080   26.6430   16.0490 C.3       1 UPG1457     0.0000 
     28 C3'        35.8320   27.5180   16.9000 C.3       1 UPG1457     0.0000 
     29 C4'        35.2800   28.6630   15.9790 C.3       1 UPG1457     0.0000 
     30 C5'        34.7850   27.9880   14.5090 C.3       1 UPG1457     0.0000 
     31 C6'        34.6740   29.1810   13.4670 C.3       1 UPG1457     0.0000 
     32 O2'        37.4510   25.6720   16.9380 O.3       1 UPG1457     0.0000 
     33 O3'        36.2000   28.1830   18.2580 O.3       1 UPG1457     0.0000 
     34 O4'        34.0670   29.2890   16.7030 O.3       1 UPG1457     0.0000 
     35 O5'        35.8720   27.1220   14.1070 O.3       1 UPG1457     0.0000 
     36 O6'        35.6520   30.2130   13.6400 O.3       1 UPG1457     0.0000 
     37 H          25.3655   19.2464   13.0571 H         1 UPG1457     0.0000 
     38 H          28.1477   19.0634   16.1952 H         1 UPG1457     0.0000 
     39 H          28.7010   21.3992   15.8557 H         1 UPG1457     0.0000 
     40 H          27.2078   23.3664   13.0508 H         1 UPG1457     0.0000 
     41 H          27.6919   23.5154   15.9637 H         1 UPG1457     0.0000 
     42 H          28.5889   25.5771   15.6655 H         1 UPG1457     0.0000 
     43 H          29.9203   24.9326   13.3880 H         1 UPG1457     0.0000 
     44 H          31.2018   23.3883   15.0892 H         1 UPG1457     0.0000 
     45 H          30.0902   24.1340   16.2503 H         1 UPG1457     0.0000 
     46 H          37.0904   25.4910   14.2710 H         1 UPG1457     0.0000 
     47 H          37.6664   27.3291   15.7284 H         1 UPG1457     0.0000 
     48 H          34.9499   26.8587   17.0673 H         1 UPG1457     0.0000 
     49 H          36.0125   29.3581   15.7752 H         1 UPG1457     0.0000 
     50 H          33.8925   27.5453   14.6684 H         1 UPG1457     0.0000 
     51 H          33.6379   29.5696   13.5586 H         1 UPG1457     0.0000 
     52 H          34.7352   28.7136   12.4617 H         1 UPG1457     0.0000 
     53 H          25.9637   25.1875   15.5478 H         1 UPG1457     0.0000 
     54 H          27.5704   26.8584   14.2922 H         1 UPG1457     0.0000 
     55 H          36.6572   25.2476   17.3737 H         1 UPG1457     0.0000 
     56 H          36.7305   27.4920   18.7491 H         1 UPG1457     0.0000 
     57 H          33.5985   28.5189   17.1360 H         1 UPG1457     0.0000 
     58 H          36.5129   29.7296   13.7986 H         1 UPG1457     0.0000 
@<TRIPOS>BOND
     1    2    1 1    
     2    6    1 1    
     3    9    1 1    
     4    3    2 1    
     5    7    2 2    
     6    4    3 1    
     7   37    3 1    
     8    5    4 1    
     9    8    4 2    
    10    6    5 2    
    11   38    5 1    
    12   39    6 1    
    13   10    9 1    
    14   14    9 1    
    15   40    9 1    
    16   11   10 1    
    17   12   10 1    
    18   41   10 1    
    19   53   11 1    
    20   13   12 1    
    21   15   12 1    
    22   42   12 1    
    23   14   13 1    
    24   16   13 1    
    25   43   13 1    
    26   54   15 1    
    27   17   16 1    
    28   44   16 1    
    29   45   16 1    
    30   18   17 1    
    31   19   18 ar   
    32   20   18 ar   
    33   21   18 1    
    34   22   21 1    
    35   23   22 ar   
    36   24   22 ar   
    37   25   22 1    
    38   26   25 1    
    39   27   26 1    
    40   35   26 1    
    41   46   26 1    
    42   28   27 1    
    43   32   27 1    
    44   47   27 1    
    45   29   28 1    
    46   33   28 1    
    47   48   28 1    
    48   30   29 1    
    49   34   29 1    
    50   49   29 1    
    51   31   30 1    
    52   35   30 1    
    53   50   30 1    
    54   36   31 1    
    55   51   31 1    
    56   52   31 1    
    57   55   32 1    
    58   56   33 1    
    59   57   34 1    
    60   58   36 1    
@<TRIPOS>SUBSTRUCTURE
     1 UPG1457     1 GROUP   
@<TRIPOS>SET

