#    Name: 2npi_ATP_1_INTS_M
#    Modification time : Tue Mar 25 21:28:27 2014

@<TRIPOS>MOLECULE
2npi_ATP_1_INTS_M
   72     0    15     0     0
SMALL
NO_CHARGES


@<TRIPOS>ATOM
      1 N          23.0765   24.1910   40.0510 N.am      2 SEC2        0.0000 
      2 N          24.4250   23.8360   40.9990 N.am     12 SEL2        0.0000 
      3 N          21.7280   24.5460   39.1030 N.am      7 SEP2        0.0000 
      4 NZ         23.7760   24.7625   44.4650 N.4       3 LYC4        0.0000 
      5 NZ         24.2650   23.7690   43.5380 N.4      13 LYL4        0.0000 
      6 NZ         23.2870   25.7560   45.3920 N.4       8 LYP4        0.0000 
      7 Zn         25.2595   23.5820   43.8035 Zn        4 ZIC7        0.0000 
      8 Zn         24.2650   23.7690   43.5380 Zn       14 ZIL7        0.0000 
      9 Zn         26.2540   23.3950   44.0690 Zn        9 ZIP7        0.0000 
     10 N          23.7760   24.7625   44.4650 N.am      2 SEC2        0.0000 
     11 N          24.2650   23.7690   43.5380 N.am     12 SEL2        0.0000 
     12 N          23.2870   25.7560   45.3920 N.am      7 SEP2        0.0000 
     13 NZ         22.7720   25.1325   43.7805 N.4       3 LYC4        0.0000 
     14 NZ         22.2570   24.5090   42.1690 N.4      13 LYL4        0.0000 
     15 N          22.0190   26.0170   41.5990 N.am      2 SEC2        0.0000 
     16 N          22.2570   24.5090   42.1690 N.am     12 SEL2        0.0000 
     17 N          21.7810   27.5250   41.0290 N.am      7 SEP2        0.0000 
     18 Zn         26.4400   24.2820   43.4275 Zn        4 ZIC7        0.0000 
     19 Zn         26.6260   25.1690   42.7860 Zn       14 ZIL7        0.0000 
     20 N          27.9385   25.7405   43.5405 N.am      2 SEC2        0.0000 
     21 N          26.6260   25.1690   42.7860 N.am     12 SEL2        0.0000 
     22 N          29.2510   26.3120   44.2950 N.am      7 SEP2        0.0000 
     23 N          24.8435   28.7320   42.1295 N.am      2 SEC2        0.0000 
     24 N          25.9240   27.6830   42.7310 N.am     12 SEL2        0.0000 
     25 N          23.7630   29.7810   41.5280 N.am      7 SEP2        0.0000 
     26 N          26.1675   28.9255   42.3630 N.am      2 SEC2        0.0000 
     27 N          26.4110   30.1680   41.9950 N.am      7 SEP2        0.0000 
     28 N          26.8200   28.3005   43.4000 N.am      2 SEC2        0.0000 
     29 N          27.7160   28.9180   44.0690 N.am      7 SEP2        0.0000 
     30 N          23.0115   26.7130   41.6635 N.am      2 SEC2        0.0000 
     31 N          24.2420   25.9010   42.2980 N.am     12 SEL2        0.0000 
     32 N          29.8755   26.9225   41.6535 N.am      2 SEC2        0.0000 
     33 N          28.4800   27.0330   40.8950 N.am     12 SEL2        0.0000 
     34 N          31.2710   26.8120   42.4120 N.am      7 SEP2        0.0000 
     35 N          29.7605   27.2410   40.2875 N.am      2 SEC2        0.0000 
     36 N          31.0410   27.4490   39.6800 N.am      7 SEP2        0.0000 
     37 CA         24.6295   26.3805   37.8475 C.3       5 GLC5        0.0000 
     38 CA         26.5740   26.2800   37.6120 C.3      15 GLL5        0.0000 
     39 CA         22.6850   26.4810   38.0830 C.3      10 GLP5        0.0000 
     40 CA         26.4835   28.2980   37.9715 C.3       5 GLC5        0.0000 
     41 CA         26.3930   30.3160   38.3310 C.3      10 GLP5        0.0000 
     42 CA         31.7470   26.3555   36.5710 C.3       5 GLC5        0.0000 
     43 CA         29.7450   26.1710   36.2110 C.3      15 GLL5        0.0000 
     44 CA         33.7490   26.5400   36.9310 C.3      10 GLP5        0.0000 
     45 CA         29.1475   26.6350   33.3475 C.3       5 GLC5        0.0000 
     46 CA         29.1610   27.3590   35.4770 C.3      15 GLL5        0.0000 
     47 CA         29.1340   25.9110   31.2180 C.3      10 GLP5        0.0000 
     48 O          33.2970   33.7700   34.6070 O.2       1 ALC1        0.0000 
     49 O          32.2390   32.6720   35.2900 O.2      11 ALL1        0.0000 
     50 O          34.3550   34.8680   33.9240 O.2       6 ALP1        0.0000 
     51 O          31.1615   33.6075   35.8225 O.2       1 ALC1        0.0000 
     52 O          30.0840   34.5430   36.3550 O.2       6 ALP1        0.0000 
     53 CA         31.3895   31.5045   31.4290 C.3       5 GLC5        0.0000 
     54 CA         30.9520   30.4300   32.7750 C.3      15 GLL5        0.0000 
     55 CA         31.8270   32.5790   30.0830 C.3      10 GLP5        0.0000 
     56 CA         32.8020   30.4360   33.0885 C.3       5 GLC5        0.0000 
     57 CA         34.6520   30.4420   33.4020 C.3      10 GLP5        0.0000 
     58 CA         29.9435   32.1595   33.3340 C.3       5 GLC5        0.0000 
     59 CA         28.9350   33.8890   33.8930 C.3      10 GLP5        0.0000 
     60 CA         32.1380   28.8710   34.5195 C.3       5 GLC5        0.0000 
     61 CA         30.3690   29.4320   34.8290 C.3      15 GLL5        0.0000 
     62 CA         33.9070   28.3100   34.2100 C.3      10 GLP5        0.0000 
     63 CA         26.1635   24.8079   36.0312 C.3       5 GLC5        0.0000 
     64 CA         27.3300   26.1670   36.2940 C.3      15 GLL5        0.0000 
     65 CA         24.5770   23.8730   35.3790 C.3      10 GLP5        0.0000 
     66 CA         32.8573   30.3740   34.8870 C.3       5 GLC5        0.0000 
     67 CA         31.0090   30.5460   35.5440 C.3      15 GLL5        0.0000 
     68 CA         34.3980   29.6690   34.6440 C.3      10 GLP5        0.0000 
     69 CA         30.1258   32.4840   34.5115 C.3       5 GLC5        0.0000 
     70 CA         31.6240   31.6120   34.7160 C.3      15 GLL5        0.0000 
     71 CA         28.9070   30.7300   35.7002 C.3       5 GLC5        0.0000 
     72 CA         27.1250   31.4710   36.2140 C.3      10 GLP5        0.0000 
@<TRIPOS>BOND
@<TRIPOS>SUBSTRUCTURE
     1 ALC1       48 GROUP        1 X    ALC  0     ROOT ALC X 1
     2 SEC2        1 GROUP        1 X    SEC  0     **** SEC X 2
     3 LYC4        4 GROUP        1 X    LYC  0     **** LYC X 4
     4 ZIC7        7 GROUP        1 X    ZIC  0     **** ZIC X 5
     5 GLC5       37 GROUP        1 X    GLC  0     **** GLC X 6
     6 ALP1       50 GROUP        1 Y    ALP  0     ROOT ALP Y 8
     7 SEP2        3 GROUP        1 Y    SEP  0     **** SEP Y 9
     8 LYP4        6 GROUP        1 Y    LYP  0     **** LYP Y 11
     9 ZIP7        9 GROUP        1 Y    ZIP  0     **** ZIP Y 12
    10 GLP5       39 GROUP        1 Y    GLP  0     **** GLP Y 13
    11 ALL1       49 GROUP        1 Z    ALL  0     ROOT ALL Z 15
    12 SEL2        2 GROUP        1 Z    SEL  0     **** SEL Z 16
    13 LYL4        5 GROUP        1 Z    LYL  0     **** LYL Z 18
    14 ZIL7        8 GROUP        1 Z    ZIL  0     **** ZIL Z 19
    15 GLL5       38 GROUP        1 Z    GLL  0     **** GLL Z 20
@<TRIPOS>SET

