#    Name: 2npi_ATP_1_ligand
#    Modification time : Tue Mar 25 21:28:27 2014

@<TRIPOS>MOLECULE
2npi_ATP_1_ligand
   43    45     1     0     0
SMALL
NO_CHARGES


@<TRIPOS>ATOM
      1 PG         23.7590   24.3720   42.2470 P.3       1 ATP600      0.0000 
      2 O1G        24.4250   23.8360   40.9990 O.co2     1 ATP600      0.0000 
      3 O2G        24.2650   23.7690   43.5380 O.co2     1 ATP600      0.0000 
      4 O3G        22.2570   24.5090   42.1690 O.co2     1 ATP600      0.0000 
      5 PB         25.7960   26.2850   42.1980 P.3       1 ATP600      0.0000 
      6 O1B        26.6260   25.1690   42.7860 O.co2     1 ATP600      0.0000 
      7 O2B        25.9240   27.6830   42.7310 O.co2     1 ATP600      0.0000 
      8 O3B        24.2420   25.9010   42.2980 O.3       1 ATP600      0.0000 
      9 PA         27.5540   26.1800   40.0580 P.3       1 ATP600      0.0000 
     10 O1A        27.8350   24.7020   39.9190 O.co2     1 ATP600      0.0000 
     11 O2A        28.4800   27.0330   40.8950 O.co2     1 ATP600      0.0000 
     12 O3A        26.0550   26.3300   40.6170 O.3       1 ATP600      0.0000 
     13 O5'        27.4280   26.8510   38.6020 O.3       1 ATP600      0.0000 
     14 C5'        26.5740   26.2800   37.6120 C.3       1 ATP600      0.0000 
     15 C4'        27.3300   26.1670   36.2940 C.3       1 ATP600      0.0000 
     16 O4'        27.8000   27.4560   35.8970 O.3       1 ATP600      0.0000 
     17 C3'        28.5480   25.2620   36.4140 C.3       1 ATP600      0.0000 
     18 O3'        28.4980   24.2460   35.4060 O.3       1 ATP600      0.0000 
     19 C2'        29.7450   26.1710   36.2110 C.3       1 ATP600      0.0000 
     20 O2'        30.7610   25.5540   35.4200 O.3       1 ATP600      0.0000 
     21 C1'        29.1610   27.3590   35.4770 C.3       1 ATP600      0.0000 
     22 N9         29.8950   28.6130   35.7650 N.pl3     1 ATP600      0.0000 
     23 C8         30.1820   29.1290   36.9720 C.2       1 ATP600      0.0000 
     24 N7         30.8600   30.2990   36.8550 N.2       1 ATP600      0.0000 
     25 C5         31.0090   30.5460   35.5440 C.ar      1 ATP600      0.0000 
     26 C6         31.6240   31.6120   34.7160 C.ar      1 ATP600      0.0000 
     27 N6         32.2390   32.6720   35.2900 N.pl3     1 ATP600      0.0000 
     28 N1         31.5550   31.4850   33.3660 N.ar      1 ATP600      0.0000 
     29 C2         30.9520   30.4300   32.7750 C.ar      1 ATP600      0.0000 
     30 N3         30.3710   29.4310   33.4690 N.ar      1 ATP600      0.0000 
     31 C4         30.3690   29.4320   34.8290 C.ar      1 ATP600      0.0000 
     32 H          25.6851   26.8960   37.4378 H         1 ATP600      0.0000 
     33 H          26.2389   25.2760   37.8944 H         1 ATP600      0.0000 
     34 H          26.6733   25.7543   35.5482 H         1 ATP600      0.0000 
     35 H          28.5778   24.8692   37.4000 H         1 ATP600      0.0000 
     36 H          30.0848   26.5015   37.1603 H         1 ATP600      0.0000 
     37 H          29.2052   27.1418   34.4153 H         1 ATP600      0.0000 
     38 H          29.9367   28.7191   37.8307 H         1 ATP600      0.0000 
     39 H          33.2158   32.7700   35.0999 H         1 ATP600      0.0000 
     40 H          31.6620   33.2634   35.8534 H         1 ATP600      0.0000 
     41 H          30.9357   30.3870   31.7130 H         1 ATP600      0.0000 
     42 H          29.3493   24.3497   34.8917 H         1 ATP600      0.0000 
     43 H          31.6022   25.6610   35.9500 H         1 ATP600      0.0000 
@<TRIPOS>BOND
     1    2    1 ar   
     2    3    1 ar   
     3    4    1 ar   
     4    8    1 1    
     5    6    5 ar   
     6    7    5 ar   
     7    8    5 1    
     8   12    5 1    
     9   10    9 ar   
    10   11    9 ar   
    11   12    9 1    
    12   13    9 1    
    13   14   13 1    
    14   15   14 1    
    15   32   14 1    
    16   33   14 1    
    17   16   15 1    
    18   17   15 1    
    19   34   15 1    
    20   21   16 1    
    21   18   17 1    
    22   19   17 1    
    23   35   17 1    
    24   42   18 1    
    25   20   19 1    
    26   21   19 1    
    27   36   19 1    
    28   43   20 1    
    29   22   21 1    
    30   37   21 1    
    31   23   22 1    
    32   31   22 1    
    33   24   23 2    
    34   38   23 1    
    35   25   24 1    
    36   26   25 ar   
    37   31   25 ar   
    38   27   26 1    
    39   28   26 ar   
    40   39   27 1    
    41   40   27 1    
    42   29   28 ar   
    43   30   29 ar   
    44   41   29 1    
    45   31   30 ar   
@<TRIPOS>SUBSTRUCTURE
     1 ATP600      1 GROUP   
@<TRIPOS>SET

