#    Name: 2x3f_APC_2_INTS_M
#    Modification time : Tue Mar 25 05:02:40 2014

@<TRIPOS>MOLECULE
2x3f_APC_2_INTS_M
   85     0    12     0     0
SMALL
NO_CHARGES


@<TRIPOS>ATOM
      1 N          11.3815   37.6980   78.0910 N.am      2 SEC2        0.0000 
      2 N          12.1830   37.8290   77.0280 N.am     10 SEL2        0.0000 
      3 N          10.5800   37.5670   79.1540 N.am      6 SEP2        0.0000 
      4 N          10.9965   38.1425   76.9000 N.am      2 SEC2        0.0000 
      5 N           9.8100   38.4560   76.7720 N.am      6 SEP2        0.0000 
      6 NZ         15.2975   37.2525   78.2895 N.4       3 LYC4        0.0000 
      7 NZ         14.6380   37.9600   77.5150 N.4      11 LYL4        0.0000 
      8 NZ         15.9570   36.5450   79.0640 N.4       7 LYP4        0.0000 
      9 N          14.0615   39.3165   78.1740 N.am      2 SEC2        0.0000 
     10 N          14.6380   37.9600   77.5150 N.am     10 SEL2        0.0000 
     11 N          13.4850   40.6730   78.8330 N.am      6 SEP2        0.0000 
     12 NZ         14.7280   36.1175   78.2490 N.4       3 LYC4        0.0000 
     13 NZ         13.4990   35.6900   77.4340 N.4      11 LYL4        0.0000 
     14 NZ         13.2020   34.7910   76.3920 N.4       3 LYC4        0.0000 
     15 NZ         12.4130   32.6790   75.0930 N.4       7 LYP4        0.0000 
     16 N          14.7280   36.1175   78.2490 N.am      2 SEC2        0.0000 
     17 N          13.4990   35.6900   77.4340 N.am     10 SEL2        0.0000 
     18 N          15.9570   36.5450   79.0640 N.am      6 SEP2        0.0000 
     19 N          12.9290   35.4410   78.5940 N.am      2 SEC2        0.0000 
     20 N          12.3590   35.1920   79.7540 N.am      6 SEP2        0.0000 
     21 N          13.2020   34.7910   76.3920 N.am      2 SEC2        0.0000 
     22 N          12.9050   33.8920   75.3500 N.am      6 SEP2        0.0000 
     23 NZ         16.1720   36.9880   77.1380 N.4       3 LYC4        0.0000 
     24 NZ         16.3870   37.4310   75.2120 N.4      11 LYL4        0.0000 
     25 N          14.6650   40.7620   75.2305 N.am      2 SEC2        0.0000 
     26 N          14.6140   39.3530   75.1300 N.am     10 SEL2        0.0000 
     27 N          14.7160   42.1710   75.3310 N.am      6 SEP2        0.0000 
     28 N          14.1160   41.0425   70.8310 N.am      2 SEC2        0.0000 
     29 N          14.3370   40.3790   72.1680 N.am     10 SEL2        0.0000 
     30 N          13.8950   41.7060   69.4940 N.am      6 SEP2        0.0000 
     31 CA         14.6660   37.1760   70.8905 C.3       4 GLC5        0.0000 
     32 CA         15.0650   37.8200   72.9610 C.3      12 GLL5        0.0000 
     33 CA         14.2670   36.5320   68.8200 C.3       8 GLP5        0.0000 
     34 CA         13.0725   37.5360   72.1675 C.3       4 GLC5        0.0000 
     35 CA         11.0800   37.2520   71.3740 C.3       8 GLP5        0.0000 
     36 CA         16.4545   42.3095   71.2885 C.3       4 GLC5        0.0000 
     37 CA         17.2800   41.2880   72.6950 C.3      12 GLL5        0.0000 
     38 CA         15.6290   43.3310   69.8820 C.3       8 GLP5        0.0000 
     39 N          21.8130   41.6955   74.5045 N.am      2 SEC2        0.0000 
     40 N          20.7930   41.3060   73.5020 N.am     10 SEL2        0.0000 
     41 N          22.8330   42.0850   75.5070 N.am      6 SEP2        0.0000 
     42 O          20.6180   42.5475   72.7355 O.2       1 ALC1        0.0000 
     43 O          20.7930   41.3060   73.5020 O.2       9 ALL1        0.0000 
     44 O          20.4430   43.7890   71.9690 O.2       5 ALP1        0.0000 
     45 O          20.2680   38.0575   75.3610 O.2       1 ALC1        0.0000 
     46 O          20.5750   39.3970   75.5280 O.2       9 ALL1        0.0000 
     47 O          19.9610   36.7180   75.1940 O.2       5 ALP1        0.0000 
     48 CA         17.1450   42.2990   75.5680 C.3       4 GLC5        0.0000 
     49 CA         18.8990   41.2300   75.8320 C.3      12 GLL5        0.0000 
     50 CA         15.3910   43.3680   75.3040 C.3       8 GLP5        0.0000 
     51 CA         19.2080   43.0040   75.6215 C.3       4 GLC5        0.0000 
     52 CA         19.5170   44.7780   75.4110 C.3       8 GLP5        0.0000 
     53 CA         20.1530   40.5680   81.8545 C.3       4 GLC5        0.0000 
     54 CA         18.3330   40.6580   80.6530 C.3      12 GLL5        0.0000 
     55 CA         21.9730   40.4780   83.0560 C.3       8 GLP5        0.0000 
     56 CA         18.3265   42.0730   82.2915 C.3       4 GLC5        0.0000 
     57 CA         18.3200   43.4880   83.9300 C.3       8 GLP5        0.0000 
     58 O          17.6215   40.3080   83.1390 O.2       1 ALC1        0.0000 
     59 O          17.5580   40.0680   81.5980 O.2       9 ALL1        0.0000 
     60 O          17.6850   40.5480   84.6800 O.2       5 ALP1        0.0000 
     61 O          16.3595   39.1820   81.4740 O.2       1 ALC1        0.0000 
     62 O          15.1610   38.2960   81.3500 O.2       5 ALP1        0.0000 
     63 N          19.7160   41.5660   82.3745 N.am      2 SEC2        0.0000 
     64 N          19.4100   41.4030   81.0140 N.am     10 SEL2        0.0000 
     65 N          20.0220   41.7290   83.7350 N.am      6 SEP2        0.0000 
     66 CA         18.4300   43.0840   80.3650 C.3       4 GLC5        0.0000 
     67 CA         20.1830   41.9680   80.0660 C.3      12 GLL5        0.0000 
     68 CA         16.6770   44.2000   80.6640 C.3       8 GLP5        0.0000 
     69 CA         21.4895   41.7545   78.4565 C.3       4 GLC5        0.0000 
     70 CA         22.7960   41.5410   76.8470 C.3       8 GLP5        0.0000 
     71 CA         21.0780   41.2230   81.5610 C.3       4 GLC5        0.0000 
     72 CA         19.7115   43.2340   81.6670 C.3       4 GLC5        0.0000 
     73 CA         19.2400   44.5000   83.2680 C.3       8 GLP5        0.0000 
     74 CA         20.8120   41.3205   77.5930 C.3       4 GLC5        0.0000 
     75 CA         18.8280   41.1000   78.3390 C.3      12 GLL5        0.0000 
     76 CA         19.7760   39.2205   78.7025 C.3       4 GLC5        0.0000 
     77 CA         20.7240   37.3410   79.0660 C.3       8 GLP5        0.0000 
     78 CA         16.6223   42.4297   74.2278 C.3       4 GLC5        0.0000 
     79 CA         18.4270   41.6950   73.6080 C.3      12 GLL5        0.0000 
     80 CA         19.2480   42.9750   74.5208 C.3       4 GLC5        0.0000 
     81 CA         20.9665   41.0820   76.1375 C.3       4 GLC5        0.0000 
     82 CA         18.2598   38.6958   79.5157 C.3       4 GLC5        0.0000 
     83 CA         18.3400   36.8130   79.0560 C.3       8 GLP5        0.0000 
     84 CA         17.5904   42.5196   79.9106 C.3       4 GLC5        0.0000 
     85 CA         18.0260   40.4990   79.2980 C.3      12 GLL5        0.0000 
@<TRIPOS>BOND
@<TRIPOS>SUBSTRUCTURE
     1 ALC1       42 GROUP        1 X    ALC  0     ROOT ALC X 1
     2 SEC2        1 GROUP        1 X    SEC  0     **** SEC X 2
     3 LYC4        6 GROUP        1 X    LYC  0     **** LYC X 4
     4 GLC5       31 GROUP        1 X    GLC  0     **** GLC X 6
     5 ALP1       44 GROUP        1 Y    ALP  0     ROOT ALP Y 8
     6 SEP2        3 GROUP        1 Y    SEP  0     **** SEP Y 9
     7 LYP4        8 GROUP        1 Y    LYP  0     **** LYP Y 11
     8 GLP5       33 GROUP        1 Y    GLP  0     **** GLP Y 13
     9 ALL1       43 GROUP        1 Z    ALL  0     ROOT ALL Z 15
    10 SEL2        2 GROUP        1 Z    SEL  0     **** SEL Z 16
    11 LYL4        7 GROUP        1 Z    LYL  0     **** LYL Z 18
    12 GLL5       32 GROUP        1 Z    GLL  0     **** GLL Z 20
@<TRIPOS>SET

