#    Name: 2x3f_APC_2_ligand
#    Modification time : Tue Mar 25 05:02:40 2014

@<TRIPOS>MOLECULE
2x3f_APC_2_ligand
   45    47     1     0     0
SMALL
NO_CHARGES


@<TRIPOS>ATOM
      1 PG         13.5170   37.1190   76.9350 P.3       1 APC1283     0.0000 
      2 O1G        12.1830   37.8290   77.0280 O.co2     1 APC1283     0.0000 
      3 O2G        14.6380   37.9600   77.5150 O.co2     1 APC1283     0.0000 
      4 O3G        13.4990   35.6900   77.4340 O.co2     1 APC1283     0.0000 
      5 PB         15.0420   37.9480   74.7670 P.3       1 APC1283     0.0000 
      6 O1B        16.3870   37.4310   75.2120 O.co2     1 APC1283     0.0000 
      7 O2B        14.6140   39.3530   75.1300 O.co2     1 APC1283     0.0000 
      8 O3B        13.8770   37.0020   75.3660 O.3       1 APC1283     0.0000 
      9 PA         15.5130   39.4200   72.2310 P.3       1 APC1283     0.0000 
     10 O1A        16.2110   39.0920   70.9270 O.co2     1 APC1283     0.0000 
     11 O2A        14.3370   40.3790   72.1680 O.co2     1 APC1283     0.0000 
     12 C3A        15.0650   37.8200   72.9610 C.3       1 APC1283     0.0000 
     13 O5'        16.6300   40.1120   73.1700 O.3       1 APC1283     0.0000 
     14 C5'        17.2800   41.2880   72.6950 C.3       1 APC1283     0.0000 
     15 C4'        18.4270   41.6950   73.6080 C.3       1 APC1283     0.0000 
     16 O4'        17.9760   41.8720   74.9570 O.3       1 APC1283     0.0000 
     17 C3'        19.5310   40.6490   73.6530 C.3       1 APC1283     0.0000 
     18 O3'        20.7930   41.3060   73.5020 O.3       1 APC1283     0.0000 
     19 C2'        19.3750   40.0160   75.0240 C.3       1 APC1283     0.0000 
     20 O2'        20.5750   39.3970   75.5280 O.3       1 APC1283     0.0000 
     21 C1'        18.8990   41.2300   75.8320 C.3       1 APC1283     0.0000 
     22 N9         18.3200   40.8060   77.1240 N.pl3     1 APC1283     0.0000 
     23 C8         17.2360   40.0490   77.2980 C.2       1 APC1283     0.0000 
     24 N7         17.0520   39.8510   78.6280 N.2       1 APC1283     0.0000 
     25 C5         18.0260   40.4990   79.2980 C.ar      1 APC1283     0.0000 
     26 C6         18.3330   40.6580   80.6530 C.ar      1 APC1283     0.0000 
     27 N6         17.5580   40.0680   81.5980 N.pl3     1 APC1283     0.0000 
     28 N1         19.4100   41.4030   81.0140 N.ar      1 APC1283     0.0000 
     29 C2         20.1830   41.9680   80.0660 C.ar      1 APC1283     0.0000 
     30 N3         19.8970   41.8200   78.7480 N.ar      1 APC1283     0.0000 
     31 C4         18.8280   41.1000   78.3390 C.ar      1 APC1283     0.0000 
     32 H          14.1037   37.6184   72.6639 H         1 APC1283     0.0000 
     33 H          15.8155   37.1637   72.7179 H         1 APC1283     0.0000 
     34 H          16.5815   42.1406   72.6335 H         1 APC1283     0.0000 
     35 H          17.6934   41.1416   71.6819 H         1 APC1283     0.0000 
     36 H          18.8613   42.6166   73.2365 H         1 APC1283     0.0000 
     37 H          19.3341   39.9269   72.9105 H         1 APC1283     0.0000 
     38 H          18.5345   39.3406   74.9630 H         1 APC1283     0.0000 
     39 H          19.7701   41.8512   75.9861 H         1 APC1283     0.0000 
     40 H          16.6655   39.6928   76.6001 H         1 APC1283     0.0000 
     41 H          17.8268   40.2249   82.5483 H         1 APC1283     0.0000 
     42 H          16.7867   39.5285   81.2605 H         1 APC1283     0.0000 
     43 H          21.0209   42.5325   80.3474 H         1 APC1283     0.0000 
     44 H          20.7161   41.8210   72.6483 H         1 APC1283     0.0000 
     45 H          20.4129   38.4136   75.4459 H         1 APC1283     0.0000 
@<TRIPOS>BOND
     1    2    1 ar   
     2    3    1 ar   
     3    4    1 ar   
     4    8    1 1    
     5    6    5 ar   
     6    7    5 ar   
     7    8    5 1    
     8   12    5 1    
     9   10    9 ar   
    10   11    9 ar   
    11   12    9 1    
    12   13    9 1    
    13   32   12 1    
    14   33   12 1    
    15   14   13 1    
    16   15   14 1    
    17   34   14 1    
    18   35   14 1    
    19   16   15 1    
    20   17   15 1    
    21   36   15 1    
    22   21   16 1    
    23   18   17 1    
    24   19   17 1    
    25   37   17 1    
    26   44   18 1    
    27   20   19 1    
    28   21   19 1    
    29   38   19 1    
    30   45   20 1    
    31   22   21 1    
    32   39   21 1    
    33   23   22 1    
    34   31   22 1    
    35   24   23 2    
    36   40   23 1    
    37   25   24 1    
    38   26   25 ar   
    39   31   25 ar   
    40   27   26 1    
    41   28   26 ar   
    42   41   27 1    
    43   42   27 1    
    44   29   28 ar   
    45   30   29 ar   
    46   43   29 1    
    47   31   30 ar   
@<TRIPOS>SUBSTRUCTURE
     1 APC1283     1 GROUP   
@<TRIPOS>SET

