#    Name: 2X94_1_CAVITY_N1_ALL.mol2
#    Modification time : Mon Mar 10 22:41:00 2014

@<TRIPOS>MOLECULE
2X94_1_CAVITY_N1_ALL.mol2
  210     0     7     0     0
SMALL
NO_CHARGES


@<TRIPOS>ATOM
      1 O          28.3838    2.2651  -29.8370 O.2       2 ALA2        0.0000 
      2 CA         26.7587    2.0435  -31.1824 C.3       6 GLY6        0.0000 
      3 O          27.5335    1.1166  -30.2932 O.2       2 ALA2        0.0000 
      4 NZ         25.4726    6.6310  -35.4015 N.2       4 LYS4        0.0000 
      5 O          28.5717    2.9235  -31.8448 O.2       2 ALA2        0.0000 
      6 CA         29.3464    1.9966  -30.9556 C.3       6 GLY6        0.0000 
      7 O          23.8476    6.4095  -36.7469 O.2       2 ALA2        0.0000 
      8 CA         26.9466    2.7020  -33.1902 C.3       6 GLY6        0.0000 
      9 CA         27.7214    1.7751  -32.3010 C.3       6 GLY6        0.0000 
     10 DU         28.4961    0.8482  -31.4118 H         7 CUB7        0.0000 
     11 N          29.2709   -0.0787  -30.5226 N.2       2 ALA2        0.0000 
     12 CA         26.8711    0.6267  -32.7572 C.3       6 GLY6        0.0000 
     13 O          27.6458   -0.3002  -31.8680 O.2       2 ALA2        0.0000 
     14 NZ         29.9121   13.0315  -35.1282 N.2       4 LYS4        0.0000 
     15 N          30.6868   12.1047  -34.2390 N.2       2 ALA2        0.0000 
     16 NZ         28.2870   12.8100  -36.4736 N.2       4 LYS4        0.0000 
     17 NZ         29.0618   11.8831  -35.5844 N.2       4 LYS4        0.0000 
     18 NZ         29.8365   10.9562  -34.6952 N.2       4 LYS4        0.0000 
     19 NZ         27.4367   11.6616  -36.9298 N.2       4 LYS4        0.0000 
     20 O          28.2115   10.7347  -36.0406 O.2       2 ALA2        0.0000 
     21 O          27.3612    9.5863  -36.4969 O.2       2 ALA2        0.0000 
     22 O          26.5109    8.4379  -36.9531 O.2       2 ALA2        0.0000 
     23 NZ         27.2856    7.5110  -36.0639 N.2       4 LYS4        0.0000 
     24 NZ         28.8351    5.6573  -34.2855 N.2       4 LYS4        0.0000 
     25 O          25.6606    7.2895  -37.4093 O.2       2 ALA2        0.0000 
     26 NZ         26.4353    6.3626  -36.5201 N.2       4 LYS4        0.0000 
     27 NZ         27.2101    5.4357  -35.6309 N.2       4 LYS4        0.0000 
     28 NZ         27.9848    4.5088  -34.7417 N.2       4 LYS4        0.0000 
     29 CA         28.7596    3.5820  -33.8525 C.3       6 GLY6        0.0000 
     30 CA         29.5344    2.6551  -32.9633 C.3       6 GLY6        0.0000 
     31 O          24.8103    6.1410  -37.8655 O.2       2 ALA2        0.0000 
     32 NZ         25.5850    5.2142  -36.9763 N.2       4 LYS4        0.0000 
     33 NZ         26.3598    4.2873  -36.0871 N.2       4 LYS4        0.0000 
     34 CA         27.1345    3.3604  -35.1979 C.3       6 GLY6        0.0000 
     35 O          27.9093    2.4335  -34.3087 O.2       2 ALA2        0.0000 
     36 CZ         28.6841    1.5067  -33.4195 C.ar      5 PHE5        0.0000 
     37 CZ         29.4588    0.5798  -32.5304 C.ar      5 PHE5        0.0000 
     38 O          27.8338    0.3583  -33.8758 O.2       2 ALA2        0.0000 
     39 CZ         28.6085   -0.5686  -32.9866 C.ar      5 PHE5        0.0000 
     40 NZ         30.1000   13.6900  -37.1360 N.2       4 LYS4        0.0000 
     41 CA         30.8747   12.7631  -36.2468 C.3       6 GLY6        0.0000 
     42 N          31.6495   11.8362  -35.3576 N.2       2 ALA2        0.0000 
     43 NZ         29.2497   12.5416  -37.5922 N.2       4 LYS4        0.0000 
     44 DU         30.0244   11.6147  -36.7030 H         7 CUB7        0.0000 
     45 NZ         30.7992   10.6878  -35.8138 N.2       4 LYS4        0.0000 
     46 NZ         29.1741   10.4663  -37.1592 N.2       4 LYS4        0.0000 
     47 NZ         29.9489    9.5394  -36.2700 N.2       4 LYS4        0.0000 
     48 NZ         28.3238    9.3179  -37.6154 N.2       4 LYS4        0.0000 
     49 NZ         29.0986    8.3910  -36.7262 N.2       4 LYS4        0.0000 
     50 O          26.6988    9.0963  -38.9608 O.2       2 ALA2        0.0000 
     51 O          27.4735    8.1695  -38.0716 O.2       2 ALA2        0.0000 
     52 NZ         28.2483    7.2426  -37.1825 N.2       4 LYS4        0.0000 
     53 NZ         29.0231    6.3157  -36.2933 N.2       4 LYS4        0.0000 
     54 O          25.8485    7.9479  -39.4170 O.2       2 ALA2        0.0000 
     55 O          26.6232    7.0210  -38.5279 O.2       2 ALA2        0.0000 
     56 DU         27.3980    6.0942  -37.6387 H         7 CUB7        0.0000 
     57 O          28.1728    5.1673  -36.7495 O.2       2 ALA2        0.0000 
     58 O          28.9475    4.2404  -35.8603 O.2       2 ALA2        0.0000 
     59 CA         29.7223    3.3135  -34.9711 C.3       6 GLY6        0.0000 
     60 CA         25.7729    5.8726  -38.9841 C.3       6 GLY6        0.0000 
     61 O          26.5477    4.9457  -38.0949 O.2       2 ALA2        0.0000 
     62 O          27.3225    4.0189  -37.2057 O.2       2 ALA2        0.0000 
     63 O          28.0972    3.0920  -36.3165 O.2       2 ALA2        0.0000 
     64 O          28.8720    2.1651  -35.4273 O.2       2 ALA2        0.0000 
     65 CZ         29.6467    1.2383  -34.5381 C.ar      5 PHE5        0.0000 
     66 O          30.9871   11.3463  -37.8216 O.2       2 ALA2        0.0000 
     67 NZ         30.1368   10.1979  -38.2778 N.2       4 LYS4        0.0000 
     68 NZ         30.9116    9.2710  -37.3886 N.2       4 LYS4        0.0000 
     69 NZ         29.2865    9.0495  -38.7340 N.2       4 LYS4        0.0000 
     70 NZ         30.0613    8.1226  -37.8448 N.2       4 LYS4        0.0000 
     71 OG         27.6615    8.8279  -40.0794 O.2       1 SER1        0.0000 
     72 DU         28.4362    7.9010  -39.1902 H         7 CUB7        0.0000 
     73 DU         29.2110    6.9742  -38.3010 H         7 CUB7        0.0000 
     74 NZ         29.9857    6.0473  -37.4118 N.2       4 LYS4        0.0000 
     75 CZ         30.7605    5.1204  -36.5226 C.ar      5 PHE5        0.0000 
     76 OG         26.8112    7.6795  -40.5356 O.2       1 SER1        0.0000 
     77 DU         27.5859    6.7526  -39.6464 H         7 CUB7        0.0000 
     78 DU         28.3607    5.8257  -38.7572 H         7 CUB7        0.0000 
     79 O          29.1354    4.8989  -37.8681 O.2       2 ALA2        0.0000 
     80 O          29.9102    3.9720  -36.9789 O.2       2 ALA2        0.0000 
     81 O          30.6849    3.0451  -36.0897 O.2       2 ALA2        0.0000 
     82 CA         26.7356    5.6042  -40.1026 C.3       6 GLY6        0.0000 
     83 O          27.5104    4.6773  -39.2135 O.2       2 ALA2        0.0000 
     84 CA         25.8853    4.4558  -40.5589 C.3       6 GLY6        0.0000 
     85 O          26.6601    3.5289  -39.6697 O.2       2 ALA2        0.0000 
     86 N          31.0995    9.9295  -39.3964 N.2       2 ALA2        0.0000 
     87 O          31.8742    9.0026  -38.5072 O.2       2 ALA2        0.0000 
     88 NZ         28.6997   10.6348  -41.6310 N.2       4 LYS4        0.0000 
     89 NZ         29.4744    9.7079  -40.7418 N.2       4 LYS4        0.0000 
     90 DU         30.2492    8.7810  -39.8526 H         7 CUB7        0.0000 
     91 DU         31.0239    7.8542  -38.9634 H         7 CUB7        0.0000 
     92 CZ         31.7987    6.9273  -38.0742 C.ar      5 PHE5        0.0000 
     93 CA         26.2999   11.3401  -43.8656 C.3       6 GLY6        0.0000 
     94 OG         27.0746   10.4132  -42.9764 O.2       1 SER1        0.0000 
     95 OG         27.8494    9.4864  -42.0872 O.2       1 SER1        0.0000 
     96 OG         28.6241    8.5595  -41.1980 O.2       1 SER1        0.0000 
     97 DU         29.3989    7.6326  -40.3088 H         7 CUB7        0.0000 
     98 DU         30.1736    6.7058  -39.4196 H         7 CUB7        0.0000 
     99 CZ         30.9484    5.7789  -38.5304 C.ar      5 PHE5        0.0000 
    100 CZ         31.7232    4.8520  -37.6412 C.ar      5 PHE5        0.0000 
    101 OG         27.7738    7.4111  -41.6542 O.2       1 SER1        0.0000 
    102 DU         28.5486    6.4842  -40.7650 H         7 CUB7        0.0000 
    103 DU         29.3233    5.5573  -39.8758 H         7 CUB7        0.0000 
    104 O          30.0981    4.6305  -38.9866 O.2       2 ALA2        0.0000 
    105 CA         26.1488    7.1895  -42.9996 C.3       6 GLY6        0.0000 
    106 CA         26.9235    6.2627  -42.1104 C.3       6 GLY6        0.0000 
    107 DU         27.6983    5.3358  -41.2212 H         7 CUB7        0.0000 
    108 N          28.4730    4.4089  -40.3320 N.2       2 ALA2        0.0000 
    109 NZ         26.0732    5.1142  -42.5666 N.2       4 LYS4        0.0000 
    110 NZ         26.8480    4.1874  -41.6774 N.2       4 LYS4        0.0000 
    111 O          32.0622    9.6610  -40.5149 O.2       2 ALA2        0.0000 
    112 O          32.8369    8.7342  -39.6258 O.2       2 ALA2        0.0000 
    113 CA         27.3381   13.1470  -45.4171 C.3       6 GLY6        0.0000 
    114 NZ         28.1128   12.2201  -44.5279 N.2       4 LYS4        0.0000 
    115 NZ         28.8876   11.2932  -43.6387 N.2       4 LYS4        0.0000 
    116 N          29.6623   10.3664  -42.7495 N.2       2 ALA2        0.0000 
    117 N          30.4371    9.4395  -41.8603 N.2       2 ALA2        0.0000 
    118 O          31.2119    8.5126  -40.9712 O.2       2 ALA2        0.0000 
    119 O          31.9866    7.5858  -40.0820 O.2       2 ALA2        0.0000 
    120 N          32.7614    6.6589  -39.1928 N.2       2 ALA2        0.0000 
    121 CA         26.4878   11.9986  -45.8733 C.3       6 GLY6        0.0000 
    122 CA         27.2625   11.0717  -44.9841 C.3       6 GLY6        0.0000 
    123 OG         28.0373   10.1448  -44.0949 O.2       1 SER1        0.0000 
    124 DU         28.8120    9.2180  -43.2057 H         7 CUB7        0.0000 
    125 DU         29.5868    8.2911  -42.3166 H         7 CUB7        0.0000 
    126 O          30.3616    7.3642  -41.4274 O.2       2 ALA2        0.0000 
    127 O          31.1363    6.4373  -40.5382 O.2       2 ALA2        0.0000 
    128 OD1        31.9111    5.5105  -39.6490 O.3       3 ASP3        0.0000 
    129 N          25.6375   10.8502  -46.3295 N.2       2 ALA2        0.0000 
    130 N          26.4122    9.9233  -45.4403 N.2       2 ALA2        0.0000 
    131 OG         27.1870    8.9964  -44.5512 O.2       1 SER1        0.0000 
    132 OG         27.9617    8.0695  -43.6620 O.2       1 SER1        0.0000 
    133 DU         28.7365    7.1427  -42.7728 H         7 CUB7        0.0000 
    134 DU         29.5113    6.2158  -41.8836 H         7 CUB7        0.0000 
    135 DU         30.2860    5.2889  -40.9944 H         7 CUB7        0.0000 
    136 OD1        31.0608    4.3620  -40.1052 O.3       3 ASP3        0.0000 
    137 CA         26.3367    7.8480  -45.0074 C.3       6 GLY6        0.0000 
    138 CA         27.1114    6.9211  -44.1182 C.3       6 GLY6        0.0000 
    139 DU         27.8862    5.9942  -43.2290 H         7 CUB7        0.0000 
    140 DU         28.6610    5.0674  -42.3398 H         7 CUB7        0.0000 
    141 N          29.4357    4.1405  -41.4506 N.2       2 ALA2        0.0000 
    142 CA         26.2611    5.7727  -44.5744 C.3       6 GLY6        0.0000 
    143 NZ         27.0359    4.8458  -43.6852 N.2       4 LYS4        0.0000 
    144 N          27.8107    3.9190  -42.7960 N.2       2 ALA2        0.0000 
    145 NZ         26.9604    2.7705  -43.2522 N.2       4 LYS4        0.0000 
    146 NZ         26.1101    1.6221  -43.7084 N.2       4 LYS4        0.0000 
    147 NZ         30.7006   12.1732  -44.3011 N.2       4 LYS4        0.0000 
    148 O          31.4753   11.2464  -43.4119 O.2       2 ALA2        0.0000 
    149 N          32.2501   10.3195  -42.5227 N.2       2 ALA2        0.0000 
    150 NZ         28.3007   12.8786  -46.5357 N.2       4 LYS4        0.0000 
    151 NZ         29.0755   11.9517  -45.6465 N.2       4 LYS4        0.0000 
    152 NZ         29.8503   11.0248  -44.7573 N.2       4 LYS4        0.0000 
    153 DU         30.6250   10.0980  -43.8681 H         7 CUB7        0.0000 
    154 CA         26.6757   12.6570  -47.8811 C.3       6 GLY6        0.0000 
    155 OD1        27.4504   11.7302  -46.9919 O.3       3 ASP3        0.0000 
    156 DU         28.2252   10.8033  -46.1027 H         7 CUB7        0.0000 
    157 DU         29.0000    9.8764  -45.2135 H         7 CUB7        0.0000 
    158 DU         29.7747    8.9495  -44.3243 H         7 CUB7        0.0000 
    159 O          30.5495    8.0227  -43.4351 O.2       2 ALA2        0.0000 
    160 O          31.3242    7.0958  -42.5459 O.2       2 ALA2        0.0000 
    161 NZ         26.6001   10.5817  -47.4481 N.2       4 LYS4        0.0000 
    162 NZ         27.3749    9.6549  -46.5589 N.2       4 LYS4        0.0000 
    163 DU         28.1497    8.7280  -45.6697 H         7 CUB7        0.0000 
    164 DU         28.9244    7.8011  -44.7805 H         7 CUB7        0.0000 
    165 DU         29.6992    6.8742  -43.8913 H         7 CUB7        0.0000 
    166 O          30.4739    5.9474  -43.0022 O.2       2 ALA2        0.0000 
    167 O          31.2487    5.0205  -42.1130 O.2       2 ALA2        0.0000 
    168 O          27.2994    7.5796  -46.1259 O.2       2 ALA2        0.0000 
    169 O          28.0741    6.6527  -45.2368 O.2       2 ALA2        0.0000 
    170 DU         28.8489    5.7258  -44.3476 H         7 CUB7        0.0000 
    171 DU         29.6236    4.7990  -43.4584 H         7 CUB7        0.0000 
    172 N          30.3984    3.8721  -42.5692 N.2       2 ALA2        0.0000 
    173 N          27.9986    4.5774  -44.8038 N.2       2 ALA2        0.0000 
    174 OG         28.7733    3.6505  -43.9146 O.2       1 SER1        0.0000 
    175 N          29.5481    2.7237  -43.0254 N.2       2 ALA2        0.0000 
    176 N          27.1483    3.4290  -45.2600 N.2       2 ALA2        0.0000 
    177 OG         27.9230    2.5021  -44.3708 O.2       1 SER1        0.0000 
    178 OG         28.6978    1.5753  -43.4816 O.2       1 SER1        0.0000 
    179 OD1        27.0727    1.3537  -44.8270 O.3       3 ASP3        0.0000 
    180 OG         27.8475    0.4268  -43.9378 O.2       1 SER1        0.0000 
    181 OD1        26.2224    0.2053  -45.2832 O.3       3 ASP3        0.0000 
    182 N          26.9972   -0.7216  -44.3940 N.2       2 ALA2        0.0000 
    183 NZ         30.0382   11.6833  -46.7651 N.2       4 LYS4        0.0000 
    184 NZ         30.8129   10.7564  -45.8759 N.2       4 LYS4        0.0000 
    185 CZ         31.5877    9.8295  -44.9867 C.ar      5 PHE5        0.0000 
    186 O          32.3624    8.9027  -44.0975 O.2       2 ALA2        0.0000 
    187 NZ         29.1879   10.5349  -47.2213 N.2       4 LYS4        0.0000 
    188 CZ         29.9626    9.6080  -46.3321 C.ar      5 PHE5        0.0000 
    189 CZ         30.7374    8.6811  -45.4429 C.ar      5 PHE5        0.0000 
    190 O          31.5121    7.7542  -44.5537 O.2       2 ALA2        0.0000 
    191 NZ         29.1123    8.4596  -46.7883 N.2       4 LYS4        0.0000 
    192 DU         29.8871    7.5327  -45.8991 H         7 CUB7        0.0000 
    193 DU         30.6618    6.6058  -45.0099 H         7 CUB7        0.0000 
    194 OG         31.4366    5.6790  -44.1207 O.2       1 SER1        0.0000 
    195 OG         32.2114    4.7521  -43.2315 O.2       1 SER1        0.0000 
    196 O          28.2620    7.3112  -47.2445 O.2       2 ALA2        0.0000 
    197 O          29.0368    6.3843  -46.3553 O.2       2 ALA2        0.0000 
    198 CZ         29.8115    5.4574  -45.4661 C.ar      5 PHE5        0.0000 
    199 CZ         30.5863    4.5305  -44.5769 C.ar      5 PHE5        0.0000 
    200 N          31.3611    3.6037  -43.6878 N.2       2 ALA2        0.0000 
    201 CZ         28.9612    4.3090  -45.9223 C.ar      5 PHE5        0.0000 
    202 CZ         29.7360    3.3821  -45.0332 C.ar      5 PHE5        0.0000 
    203 OG         27.9599   -0.9900  -45.5126 O.2       1 SER1        0.0000 
    204 CZ         32.4748    7.4858  -45.6723 C.ar      5 PHE5        0.0000 
    205 CZ         30.0750    8.1912  -47.9069 C.ar      5 PHE5        0.0000 
    206 CZ         30.8498    7.2643  -47.0177 C.ar      5 PHE5        0.0000 
    207 CZ         31.6245    6.3374  -46.1285 C.ar      5 PHE5        0.0000 
    208 OG         32.3993    5.4105  -45.2393 O.2       1 SER1        0.0000 
    209 NZ         29.2247    7.0427  -48.3631 N.2       4 LYS4        0.0000 
    210 CZ         29.9995    6.1159  -47.4739 C.ar      5 PHE5        0.0000 
@<TRIPOS>BOND
@<TRIPOS>SUBSTRUCTURE
     1 SER1       71 GROUP   
     2 ALA2        1 GROUP   
     3 ASP3      128 GROUP   
     4 LYS4        4 GROUP   
     5 PHE5       36 GROUP   
     6 GLY6        2 GROUP   
     7 CUB7       10 GROUP   
@<TRIPOS>SET

