#    Name: 2x94_X94_1_INTS_M
#    Modification time : Tue Mar 25 05:31:42 2014

@<TRIPOS>MOLECULE
2x94_X94_1_INTS_M
   62     0    12     0     0
SMALL
NO_CHARGES


@<TRIPOS>ATOM
      1 CA         29.5650   -3.8925  -43.1140 C.3       4 GLC5        0.0000 
      2 CA         27.7900   -2.8340  -42.8830 C.3      12 GLL5        0.0000 
      3 CA         31.3400   -4.9510  -43.3450 C.3       8 GLP5        0.0000 
      4 CA         30.4105   -0.9115  -43.2885 C.3       4 GLC5        0.0000 
      5 CA         28.2460   -1.4010  -43.1350 C.3      12 GLL5        0.0000 
      6 CA         32.5750   -0.4220  -43.4420 C.3       8 GLP5        0.0000 
      7 CA         25.2750   -1.2705  -42.9030 C.3       4 GLC5        0.0000 
      8 CA         27.1030   -0.5730  -43.7220 C.3      12 GLL5        0.0000 
      9 CA         23.4470   -1.9680  -42.0840 C.3       8 GLP5        0.0000 
     10 Zn         26.1780    1.8815  -46.5385 Zn        3 ZIC7        0.0000 
     11 Zn         25.7190    1.5500  -45.3740 Zn       11 ZIL7        0.0000 
     12 Zn         26.6370    2.2130  -47.7030 Zn        7 ZIP7        0.0000 
     13 N          24.8850    2.3300  -44.5835 N.am      1 SEC2        0.0000 
     14 N          25.7190    1.5500  -45.3740 N.am      9 SEL2        0.0000 
     15 N          24.0510    3.1100  -43.7930 N.am      5 SEP2        0.0000 
     16 Zn         27.1830    1.8405  -47.0070 Zn        3 ZIC7        0.0000 
     17 Zn         27.7290    1.4680  -46.3110 Zn       11 ZIL7        0.0000 
     18 N          29.0055    1.1395  -46.1230 N.am      1 SEC2        0.0000 
     19 N          27.7290    1.4680  -46.3110 N.am      9 SEL2        0.0000 
     20 N          30.2820    0.8110  -45.9350 N.am      5 SEP2        0.0000 
     21 CA         25.1215    3.6080  -41.0340 C.3       4 GLC5        0.0000 
     22 CA         26.8540    3.9380  -41.9130 C.3      12 GLL5        0.0000 
     23 CA         23.3890    3.2780  -40.1550 C.3       8 GLP5        0.0000 
     24 N          29.3760    2.1260  -41.4575 N.am      1 SEC2        0.0000 
     25 N          29.7270    2.7500  -42.5870 N.am      9 SEL2        0.0000 
     26 N          29.0250    1.5020  -40.3280 N.am      5 SEP2        0.0000 
     27 CA         27.0280    5.2040  -45.7895 C.3       4 GLC5        0.0000 
     28 CA         28.7720    5.5530  -44.6890 C.3      12 GLL5        0.0000 
     29 CA         25.2840    4.8550  -46.8900 C.3       8 GLP5        0.0000 
     30 CA         30.9620    8.1395  -47.6540 C.3       4 GLC5        0.0000 
     31 CA         29.7070    7.4920  -46.1770 C.3      12 GLL5        0.0000 
     32 CA         32.2170    8.7870  -49.1310 C.3       8 GLP5        0.0000 
     33 CA         33.0075    6.4190  -45.6185 C.3       4 GLC5        0.0000 
     34 CA         31.1340    6.0710  -44.6770 C.3      12 GLL5        0.0000 
     35 CA         34.8810    6.7670  -46.5600 C.3       8 GLP5        0.0000 
     36 CA         31.3815    4.8060  -46.3260 C.3       4 GLC5        0.0000 
     37 CA         31.6290    3.5410  -47.9750 C.3       8 GLP5        0.0000 
     38 CA         30.8350    3.7530  -45.5875 C.3       4 GLC5        0.0000 
     39 CA         30.9550    4.7700  -43.8930 C.3      12 GLL5        0.0000 
     40 CA         30.7150    2.7360  -47.2820 C.3       8 GLP5        0.0000 
     41 NZ         32.4395    4.7005  -40.7670 N.4       2 LYC4        0.0000 
     42 NZ         30.7690    5.3250  -41.5630 N.4      10 LYL4        0.0000 
     43 NZ         34.1100    4.0760  -39.9710 N.4       6 LYP4        0.0000 
     44 NZ         33.4215    4.3470  -41.1405 N.4       2 LYC4        0.0000 
     45 NZ         32.7330    4.6180  -42.3100 N.4      10 LYL4        0.0000 
     46 N          33.2870    6.0000  -42.0780 N.am      1 SEC2        0.0000 
     47 N          32.7330    4.6180  -42.3100 N.am      9 SEL2        0.0000 
     48 N          33.8410    7.3820  -41.8460 N.am      5 SEP2        0.0000 
     49 N          33.4215    4.3470  -41.1405 N.am      1 SEC2        0.0000 
     50 N          34.1100    4.0760  -39.9710 N.am      5 SEP2        0.0000 
     51 N          33.7670    4.5990  -43.1325 N.am      1 SEC2        0.0000 
     52 N          34.8010    4.5800  -43.9550 N.am      5 SEP2        0.0000 
     53 CA         28.9095   -2.2293  -41.3495 C.3       4 GLC5        0.0000 
     54 CA         29.8010   -2.3410  -39.6900 C.3       8 GLP5        0.0000 
     55 CA         27.8549    0.3205  -41.7219 C.3       4 GLC5        0.0000 
     56 CA         28.0890    0.7060  -39.7150 C.3       8 GLP5        0.0000 
     57 CA         27.6185    2.1353  -41.1158 C.3       4 GLC5        0.0000 
     58 CA         27.4420    3.1910  -43.1200 C.3      12 GLL5        0.0000 
     59 CA         30.0275    4.2748  -46.2137 C.3       4 GLC5        0.0000 
     60 CA         26.6427    7.0827  -46.2820 C.3       4 GLC5        0.0000 
     61 CA         28.3140    8.0780  -45.9250 C.3      12 GLL5        0.0000 
     62 CA         25.1860    6.1160  -47.3730 C.3       8 GLP5        0.0000 
@<TRIPOS>BOND
@<TRIPOS>SUBSTRUCTURE
     1 SEC2       13 GROUP        1 X    SEC  0     ROOT SEC X 2
     2 LYC4       41 GROUP        1 X    LYC  0     **** LYC X 4
     3 ZIC7       10 GROUP        1 X    ZIC  0     **** ZIC X 5
     4 GLC5        1 GROUP        1 X    GLC  0     **** GLC X 6
     5 SEP2       15 GROUP        1 Y    SEP  0     ROOT SEP Y 9
     6 LYP4       43 GROUP        1 Y    LYP  0     **** LYP Y 11
     7 ZIP7       12 GROUP        1 Y    ZIP  0     **** ZIP Y 12
     8 GLP5        3 GROUP        1 Y    GLP  0     **** GLP Y 13
     9 SEL2       14 GROUP        1 Z    SEL  0     ROOT SEL Z 16
    10 LYL4       42 GROUP        1 Z    LYL  0     **** LYL Z 18
    11 ZIL7       11 GROUP        1 Z    ZIL  0     **** ZIL Z 19
    12 GLL5        2 GROUP        1 Z    GLL  0     **** GLL Z 20
@<TRIPOS>SET

