#    Name: 2x94_X94_1_ligand
#    Modification time : Tue Mar 25 05:31:42 2014

@<TRIPOS>MOLECULE
2x94_X94_1_ligand
   49    50     1     0     0
SMALL
NO_CHARGES


@<TRIPOS>ATOM
      1 CAA        27.7900   -2.8340  -42.8830 C.3       1 X941624     0.0000 
      2 CAH        28.2460   -1.4010  -43.1350 C.3       1 X941624     0.0000 
      3 CAK        27.1030   -0.5730  -43.7220 C.3       1 X941624     0.0000 
      4 CAU        27.5670    0.8570  -44.0290 C.3       1 X941624     0.0000 
      5 CAP        26.9480    1.3270  -45.3490 C.2       1 X941624     0.0000 
      6 OAF        25.7190    1.5500  -45.3740 O.co2     1 X941624     0.0000 
      7 OAC        27.7290    1.4680  -46.3110 O.co2     1 X941624     0.0000 
      8 N          27.1950    1.7490  -42.9130 N.4       1 X941624     0.0000 
      9 CA         27.4420    3.1910  -43.1200 C.3       1 X941624     0.0000 
     10 CB         26.8540    3.9380  -41.9130 C.3       1 X941624     0.0000 
     11 C          28.9540    3.4890  -43.1960 C.2       1 X941624     0.0000 
     12 O          29.7270    2.7500  -42.5870 O.2       1 X941624     0.0000 
     13 NAX        29.4850    4.5410  -43.8550 N.am      1 X941624     0.0000 
     14 CAW        28.7720    5.5530  -44.6890 C.3       1 X941624     0.0000 
     15 CAM        28.0880    6.6370  -43.8030 C.3       1 X941624     0.0000 
     16 CAJ        27.8850    8.0210  -44.4570 C.3       1 X941624     0.0000 
     17 CAI        28.3140    8.0780  -45.9250 C.3       1 X941624     0.0000 
     18 CAL        29.7070    7.4920  -46.1770 C.3       1 X941624     0.0000 
     19 CAT        29.9080    6.0740  -45.6020 C.3       1 X941624     0.0000 
     20 CAN        31.1340    6.0710  -44.6770 C.3       1 X941624     0.0000 
     21 CAV        30.9550    4.7700  -43.8930 C.3       1 X941624     0.0000 
     22 CAQ        31.5360    4.9220  -42.4670 C.2       1 X941624     0.0000 
     23 OAD        30.7690    5.3250  -41.5630 O.co2     1 X941624     0.0000 
     24 OAG        32.7330    4.6180  -42.3100 O.co2     1 X941624     0.0000 
     25 H          29.0802   -1.4050  -43.8323 H         1 X941624     0.0000 
     26 H          28.5671   -0.9542  -42.1972 H         1 X941624     0.0000 
     27 H          26.2818   -0.5358  -43.0093 H         1 X941624     0.0000 
     28 H          26.7549   -1.0396  -44.6410 H         1 X941624     0.0000 
     29 H          28.6426    0.8372  -44.1458 H         1 X941624     0.0000 
     30 H          26.9678    3.5410  -44.0005 H         1 X941624     0.0000 
     31 H          28.0538    5.0564  -45.2980 H         1 X941624     0.0000 
     32 H          28.6907    6.7628  -42.8828 H         1 X941624     0.0000 
     33 H          27.1033    6.2483  -43.4789 H         1 X941624     0.0000 
     34 H          28.4562    8.7663  -43.8852 H         1 X941624     0.0000 
     35 H          26.8223    8.2924  -44.3811 H         1 X941624     0.0000 
     36 H          28.3016    9.1248  -46.2609 H         1 X941624     0.0000 
     37 H          27.5810    7.5291  -46.5334 H         1 X941624     0.0000 
     38 H          30.4630    8.1601  -45.7365 H         1 X941624     0.0000 
     39 H          29.8930    7.4609  -47.2617 H         1 X941624     0.0000 
     40 H          30.0845    5.3687  -46.3760 H         1 X941624     0.0000 
     41 H          31.0867    6.8956  -44.0216 H         1 X941624     0.0000 
     42 H          32.0149    6.0248  -45.2546 H         1 X941624     0.0000 
     43 H          31.4425    3.9878  -44.4054 H         1 X941624     0.0000 
     44 H          28.5229   -3.3946  -42.4975 H         1 X941624     0.0000 
     45 H          27.0235   -2.8725  -42.2420 H         1 X941624     0.0000 
     46 H          27.4904   -3.2820  -43.7254 H         1 X941624     0.0000 
     47 H          27.2775    3.6483  -41.0547 H         1 X941624     0.0000 
     48 H          26.9876    4.9263  -41.9868 H         1 X941624     0.0000 
     49 H          25.8706    3.7811  -41.8222 H         1 X941624     0.0000 
@<TRIPOS>BOND
     1    2    1 1    
     2   44    1 1    
     3   45    1 1    
     4   46    1 1    
     5    3    2 1    
     6   25    2 1    
     7   26    2 1    
     8    4    3 1    
     9   27    3 1    
    10   28    3 1    
    11    5    4 1    
    12    8    4 1    
    13   29    4 1    
    14    6    5 ar   
    15    7    5 ar   
    16    9    8 1    
    17   10    9 1    
    18   11    9 1    
    19   30    9 1    
    20   47   10 1    
    21   48   10 1    
    22   49   10 1    
    23   12   11 2    
    24   13   11 am   
    25   14   13 1    
    26   21   13 1    
    27   15   14 1    
    28   19   14 1    
    29   31   14 1    
    30   16   15 1    
    31   32   15 1    
    32   33   15 1    
    33   17   16 1    
    34   34   16 1    
    35   35   16 1    
    36   18   17 1    
    37   36   17 1    
    38   37   17 1    
    39   19   18 1    
    40   38   18 1    
    41   39   18 1    
    42   20   19 1    
    43   40   19 1    
    44   21   20 1    
    45   41   20 1    
    46   42   20 1    
    47   22   21 1    
    48   43   21 1    
    49   23   22 ar   
    50   24   22 ar   
@<TRIPOS>SUBSTRUCTURE
     1 X941624     1 GROUP   
@<TRIPOS>SET

