#    Name: 3srq_Q19_1_INTS_M
#    Modification time : Mon Mar 24 18:07:44 2014

@<TRIPOS>MOLECULE
3srq_Q19_1_INTS_M
   56     0     9     0     0
SMALL
NO_CHARGES


@<TRIPOS>ATOM
      1 CA         -4.9405  -27.9650    1.9605 C.3       3 GLC5        0.0000 
      2 CA         -4.2840  -28.6440    3.8480 C.3       9 GLL5        0.0000 
      3 CA         -5.5970  -27.2860    0.0730 C.3       6 GLP5        0.0000 
      4 CA         -3.9490  -26.6720    3.8525 C.3       3 GLC5        0.0000 
      5 CA         -3.6140  -24.7000    3.8570 C.3       6 GLP5        0.0000 
      6 CA         -5.9920  -27.4970    2.2200 C.3       3 GLC5        0.0000 
      7 CA         -6.3870  -27.7080    4.3670 C.3       9 GLL5        0.0000 
      8 CA         -5.0005  -26.2040    4.1120 C.3       3 GLC5        0.0000 
      9 CA         -6.4805  -26.5370    5.9875 C.3       3 GLC5        0.0000 
     10 CA         -6.5740  -25.3660    7.6080 C.3       6 GLP5        0.0000 
     11 CA         -7.4035  -28.7015    3.4330 C.3       3 GLC5        0.0000 
     12 CA         -8.4200  -29.6950    2.4990 C.3       6 GLP5        0.0000 
     13 N          -7.9045  -28.5540    5.8095 N.am      2 SEC2        0.0000 
     14 N          -6.7710  -28.7510    5.1590 N.am      8 SEL2        0.0000 
     15 N          -9.0380  -28.3570    6.4600 N.am      5 SEP2        0.0000 
     16 CA         -8.1480  -31.5470    6.6990 C.3       3 GLC5        0.0000 
     17 CA         -6.3330  -30.9130    6.0950 C.3       9 GLL5        0.0000 
     18 CA         -9.9630  -32.1810    7.3030 C.3       6 GLP5        0.0000 
     19 CA         -3.7510  -31.4620    7.6900 C.3       3 GLC5        0.0000 
     20 CA         -4.1400  -32.0000    5.6050 C.3       9 GLL5        0.0000 
     21 CA         -3.3620  -30.9240    9.7750 C.3       6 GLP5        0.0000 
     22 O          -2.7960  -27.4005    2.5620 O.2       1 ALC1        0.0000 
     23 O          -3.0960  -28.5520    3.2390 O.2       7 ALL1        0.0000 
     24 O          -2.4960  -26.2490    1.8850 O.2       4 ALP1        0.0000 
     25 O          -1.8390  -29.1765    3.1840 O.2       1 ALC1        0.0000 
     26 O          -0.5820  -29.8010    3.1290 O.2       4 ALP1        0.0000 
     27 O          -8.4860  -26.6035    4.8360 O.2       1 ALC1        0.0000 
     28 O          -7.2380  -26.6700    4.2050 O.2       7 ALL1        0.0000 
     29 O          -9.7340  -26.5370    5.4670 O.2       4 ALP1        0.0000 
     30 O          -8.1380  -27.5135    5.3325 O.2       1 ALC1        0.0000 
     31 O          -9.0380  -28.3570    6.4600 O.2       4 ALP1        0.0000 
     32 O          -7.6445  -25.4565    3.2815 O.2       1 ALC1        0.0000 
     33 O          -8.0510  -24.2430    2.3580 O.2       4 ALP1        0.0000 
     34 CA         -1.1665  -33.3440    5.4190 C.3       3 GLC5        0.0000 
     35 CA         -3.1940  -33.1790    5.8000 C.3       9 GLL5        0.0000 
     36 CA          0.8610  -33.5090    5.0380 C.3       6 GLP5        0.0000 
     37 CA         -3.1060  -35.0745    6.0190 C.3       3 GLC5        0.0000 
     38 CA         -3.0180  -36.9700    6.2380 C.3       6 GLP5        0.0000 
     39 CA         -3.1165  -33.2800    4.0855 C.3       3 GLC5        0.0000 
     40 CA         -3.0390  -33.3810    2.3710 C.3       6 GLP5        0.0000 
     41 CA         -1.6725  -31.6265    5.9890 C.3       3 GLC5        0.0000 
     42 CA         -0.1510  -30.0740    6.1780 C.3       6 GLP5        0.0000 
     43 CA         -6.4393  -29.4647    3.3798 C.3       3 GLC5        0.0000 
     44 CA         -4.6330  -29.8250    4.6730 C.3       9 GLL5        0.0000 
     45 CA         -7.2810  -30.0318    4.1037 C.3       3 GLC5        0.0000 
     46 CA         -5.5663  -30.2884    7.6871 C.3       3 GLC5        0.0000 
     47 CA         -5.9510  -29.8240    5.3220 C.3       9 GLL5        0.0000 
     48 CA         -5.3340  -29.3950    9.3850 C.3       6 GLP5        0.0000 
     49 CA         -4.6218  -32.0762    8.7658 C.3       3 GLC5        0.0000 
     50 CA         -5.9290  -33.1690    7.0640 C.3       9 GLL5        0.0000 
     51 CA         -8.9565  -34.9427    7.5465 C.3       3 GLC5        0.0000 
     52 CA         -7.0400  -35.3270    6.9740 C.3       9 GLL5        0.0000 
     53 CA        -10.9230  -34.4980    7.4360 C.3       6 GLP5        0.0000 
     54 CA         -4.9028  -35.8648    6.4470 C.3       3 GLC5        0.0000 
     55 CA         -8.0856  -32.9456    7.1751 C.3       3 GLC5        0.0000 
     56 CA         -6.5350  -34.1920    6.3380 C.3       9 GLL5        0.0000 
@<TRIPOS>BOND
@<TRIPOS>SUBSTRUCTURE
     1 ALC1       22 GROUP        1 X    ALC  0     ROOT ALC X 1
     2 SEC2       13 GROUP        1 X    SEC  0     **** SEC X 2
     3 GLC5        1 GROUP        1 X    GLC  0     **** GLC X 6
     4 ALP1       24 GROUP        1 Y    ALP  0     ROOT ALP Y 8
     5 SEP2       15 GROUP        1 Y    SEP  0     **** SEP Y 9
     6 GLP5        3 GROUP        1 Y    GLP  0     **** GLP Y 13
     7 ALL1       23 GROUP        1 Z    ALL  0     ROOT ALL Z 15
     8 SEL2       14 GROUP        1 Z    SEL  0     **** SEL Z 16
     9 GLL5        2 GROUP        1 Z    GLL  0     **** GLL Z 20
@<TRIPOS>SET

