#    Name: 3srq_Q19_1_ligand
#    Modification time : Mon Mar 24 18:07:44 2014

@<TRIPOS>MOLECULE
3srq_Q19_1_ligand
   38    40     1     0     0
SMALL
NO_CHARGES


@<TRIPOS>ATOM
      1 C1         -4.2840  -28.6440    3.8480 C.ar      1 Q19169      0.0000 
      2 N2         -5.1960  -27.6420    3.7310 N.ar      1 Q19169      0.0000 
      3 C3         -6.3870  -27.7080    4.3670 C.ar      1 Q19169      0.0000 
      4 N4         -6.7710  -28.7510    5.1590 N.ar      1 Q19169      0.0000 
      5 C5         -5.9510  -29.8240    5.3220 C.ar      1 Q19169      0.0000 
      6 C6         -4.6330  -29.8250    4.6730 C.ar      1 Q19169      0.0000 
      7 C7         -6.3330  -30.9130    6.0950 C.ar      1 Q19169      0.0000 
      8 C8         -5.4550  -31.9950    6.2700 C.ar      1 Q19169      0.0000 
      9 C9         -4.1400  -32.0000    5.6050 C.ar      1 Q19169      0.0000 
     10 C10        -3.7540  -30.8940    4.8310 C.ar      1 Q19169      0.0000 
     11 N11        -3.0960  -28.5520    3.2390 N.pl3     1 Q19169      0.0000 
     12 N12        -7.2380  -26.6700    4.2050 N.pl3     1 Q19169      0.0000 
     13 C13        -3.1940  -33.1790    5.8000 C.3       1 Q19169      0.0000 
     14 C14        -5.9290  -33.1690    7.0640 C.ar      1 Q19169      0.0000 
     15 C15        -5.8340  -33.2880    8.4490 C.ar      1 Q19169      0.0000 
     16 C16        -6.3310  -34.4390    9.0770 C.ar      1 Q19169      0.0000 
     17 C17        -6.9400  -35.4480    8.3400 C.ar      1 Q19169      0.0000 
     18 C18        -7.0400  -35.3270    6.9740 C.ar      1 Q19169      0.0000 
     19 C19        -6.5350  -34.1920    6.3380 C.ar      1 Q19169      0.0000 
     20 C20        -7.7110  -36.4160    6.1960 C.2       1 Q19169      0.0000 
     21 O21        -8.1950  -36.1460    5.1030 O.2       1 Q19169      0.0000 
     22 C22        -7.8000  -37.7820    6.8170 C.3       1 Q19169      0.0000 
     23 H          -7.2573  -30.9335    6.5420 H         1 Q19169      0.0000 
     24 H          -2.8324  -30.8781    4.3881 H         1 Q19169      0.0000 
     25 H          -2.9527  -27.7391    2.6745 H         1 Q19169      0.0000 
     26 H          -2.4580  -29.3044    3.4031 H         1 Q19169      0.0000 
     27 H          -7.1745  -26.1807    3.3352 H         1 Q19169      0.0000 
     28 H          -7.8554  -26.4838    4.9693 H         1 Q19169      0.0000 
     29 H          -5.4067  -32.5454    9.0057 H         1 Q19169      0.0000 
     30 H          -6.2408  -34.5334   10.1016 H         1 Q19169      0.0000 
     31 H          -7.3118  -36.2781    8.8203 H         1 Q19169      0.0000 
     32 H          -6.6126  -34.1099    5.3092 H         1 Q19169      0.0000 
     33 H          -2.3394  -33.0569    5.2953 H         1 Q19169      0.0000 
     34 H          -2.9510  -33.3050    6.7618 H         1 Q19169      0.0000 
     35 H          -3.6001  -34.0370    5.4854 H         1 Q19169      0.0000 
     36 H          -6.8955  -38.1583    7.0179 H         1 Q19169      0.0000 
     37 H          -8.3087  -37.7662    7.6778 H         1 Q19169      0.0000 
     38 H          -8.2618  -38.4340    6.2156 H         1 Q19169      0.0000 
@<TRIPOS>BOND
     1    2    1 ar   
     2    6    1 ar   
     3   11    1 1    
     4    3    2 ar   
     5    4    3 ar   
     6   12    3 1    
     7    5    4 ar   
     8    6    5 ar   
     9    7    5 ar   
    10   10    6 ar   
    11    8    7 ar   
    12   23    7 1    
    13    9    8 ar   
    14   14    8 1    
    15   10    9 ar   
    16   13    9 1    
    17   24   10 1    
    18   25   11 1    
    19   26   11 1    
    20   27   12 1    
    21   28   12 1    
    22   33   13 1    
    23   34   13 1    
    24   35   13 1    
    25   15   14 ar   
    26   19   14 ar   
    27   16   15 ar   
    28   29   15 1    
    29   17   16 ar   
    30   30   16 1    
    31   18   17 ar   
    32   31   17 1    
    33   19   18 ar   
    34   20   18 1    
    35   32   19 1    
    36   21   20 2    
    37   22   20 1    
    38   36   22 1    
    39   37   22 1    
    40   38   22 1    
@<TRIPOS>SUBSTRUCTURE
     1 Q19169      1 GROUP   
@<TRIPOS>SET

