#    Name: 3g07_SAM_3_INTS_M
#    Modification time : Tue Mar 25 06:53:34 2014

@<TRIPOS>MOLECULE
3g07_SAM_3_INTS_M
   57     0     9     0     0
SMALL
NO_CHARGES


@<TRIPOS>ATOM
      1 O          -5.9795   38.8630   -3.3545 O.2       1 ALC1        0.0000 
      2 O          -4.8540   39.4380   -3.8000 O.2       7 ALL1        0.0000 
      3 O          -7.1050   38.2880   -2.9090 O.2       4 ALP1        0.0000 
      4 O          -3.5995   38.9900   -3.6410 O.2       1 ALC1        0.0000 
      5 O          -2.3450   38.5420   -3.4820 O.2       4 ALP1        0.0000 
      6 CA         -7.3985   41.8200   -2.3410 C.3       3 GLC5        0.0000 
      7 CA         -5.4580   41.3660   -2.4460 C.3       9 GLL5        0.0000 
      8 CA         -9.3390   42.2740   -2.2360 C.3       6 GLP5        0.0000 
      9 CA         -2.4280   40.9360   -1.9910 C.3       3 GLC5        0.0000 
     10 CA         -4.2880   41.0660   -1.5260 C.3       9 GLL5        0.0000 
     11 CA         -0.5680   40.8060   -2.4560 C.3       6 GLP5        0.0000 
     12 CA         -1.8540   41.4320   -0.8125 C.3       3 GLC5        0.0000 
     13 CA         -3.1400   42.0580    0.8310 C.3       9 GLL5        0.0000 
     14 CA         -2.4880   40.9625    2.0345 C.3       3 GLC5        0.0000 
     15 CA         -1.8360   39.8670    3.2380 C.3       6 GLP5        0.0000 
     16 CA         -3.3690   39.8515    2.0865 C.3       3 GLC5        0.0000 
     17 CA         -4.9020   39.8360    0.9350 C.3       9 GLL5        0.0000 
     18 CA         -7.0395   37.9135   -0.3620 C.3       3 GLC5        0.0000 
     19 CA         -6.3550   39.3980    0.8180 C.3       9 GLL5        0.0000 
     20 CA         -7.7240   36.4290   -1.5420 C.3       6 GLP5        0.0000 
     21 O          -9.2360   39.6185    0.4950 O.2       1 ALC1        0.0000 
     22 O          -8.3620   40.6750    1.0520 O.2       7 ALL1        0.0000 
     23 O         -10.1100   38.5620   -0.0620 O.2       4 ALP1        0.0000 
     24 O         -10.1245   38.8670    2.4940 O.2       1 ALC1        0.0000 
     25 O          -9.0370   39.3660    3.1530 O.2       7 ALL1        0.0000 
     26 O         -11.2120   38.3680    1.8350 O.2       4 ALP1        0.0000 
     27 O          -9.5735   38.9640    1.5455 O.2       1 ALC1        0.0000 
     28 CA         -7.6390   37.1260    0.2460 C.3       3 GLC5        0.0000 
     29 CA         -7.5540   37.8230    2.0340 C.3       9 GLL5        0.0000 
     30 CA         -8.8880   37.0890    3.6665 C.3       3 GLC5        0.0000 
     31 CA        -10.2220   36.3550    5.2990 C.3       6 GLP5        0.0000 
     32 CA         -5.9100   36.8370    1.5435 C.3       3 GLC5        0.0000 
     33 CA         -4.2660   35.8510    1.0530 C.3       6 GLP5        0.0000 
     34 CA         -9.0085   31.7975    4.0035 C.3       3 GLC5        0.0000 
     35 CA         -7.4490   33.1880    3.5420 C.3       9 GLL5        0.0000 
     36 CA        -10.5680   30.4070    4.4650 C.3       6 GLP5        0.0000 
     37 O          -7.4755   31.2690    4.9950 O.2       1 ALC1        0.0000 
     38 O          -6.9370   32.3290    4.4160 O.2       7 ALL1        0.0000 
     39 O          -8.0140   30.2090    5.5740 O.2       4 ALP1        0.0000 
     40 N          -8.6905   31.1750    2.6845 N.am      2 SEC2        0.0000 
     41 N          -8.3480   32.7320    2.6020 N.am      8 SEL2        0.0000 
     42 N          -9.0330   29.6180    2.7670 N.am      5 SEP2        0.0000 
     43 CA         -8.3090   35.0135    0.0675 C.3       3 GLC5        0.0000 
     44 CA         -8.8940   33.5980    1.6770 C.3       9 GLL5        0.0000 
     45 CA        -10.3365   34.6555    0.9295 C.3       3 GLC5        0.0000 
     46 CA        -11.7790   35.7130    0.1820 C.3       6 GLP5        0.0000 
     47 CA         -9.7875   34.2840    3.2645 C.3       3 GLC5        0.0000 
     48 CA        -10.6810   34.9700    4.8520 C.3       6 GLP5        0.0000 
     49 N         -10.0420   35.2055    2.1380 N.am      2 SEC2        0.0000 
     50 N          -8.5530   34.9330    1.6970 N.am      8 SEL2        0.0000 
     51 N         -11.5310   35.4780    2.5790 N.am      5 SEP2        0.0000 
     52 CA         -7.7015   35.9105    0.5400 C.3       3 GLC5        0.0000 
     53 CA         -7.6790   35.3920    2.6220 C.3       9 GLL5        0.0000 
     54 CA         -4.9473   37.7340    0.9647 C.3       3 GLC5        0.0000 
     55 CA         -5.8300   35.4087    2.0728 C.3       3 GLC5        0.0000 
     56 CA         -7.1090   34.5410    3.5630 C.3       9 GLL5        0.0000 
     57 CA         -9.0800   34.7991    3.9696 C.3       3 GLC5        0.0000 
@<TRIPOS>BOND
@<TRIPOS>SUBSTRUCTURE
     1 ALC1        1 GROUP        1 X    ALC  0     ROOT ALC X 1
     2 SEC2       40 GROUP        1 X    SEC  0     **** SEC X 2
     3 GLC5        6 GROUP        1 X    GLC  0     **** GLC X 6
     4 ALP1        3 GROUP        1 Y    ALP  0     ROOT ALP Y 8
     5 SEP2       42 GROUP        1 Y    SEP  0     **** SEP Y 9
     6 GLP5        8 GROUP        1 Y    GLP  0     **** GLP Y 13
     7 ALL1        2 GROUP        1 Z    ALL  0     ROOT ALL Z 15
     8 SEL2       41 GROUP        1 Z    SEL  0     **** SEL Z 16
     9 GLL5        7 GROUP        1 Z    GLL  0     **** GLL Z 20
@<TRIPOS>SET

