#    Name: 3g07_SAM_3_ligand
#    Modification time : Tue Mar 25 06:53:34 2014

@<TRIPOS>MOLECULE
3g07_SAM_3_ligand
   50    52     1     0     0
SMALL
NO_CHARGES


@<TRIPOS>ATOM
      1 N          -4.8540   39.4380   -3.8000 N.4       1 SAM701      0.0000 
      2 CA         -5.2450   40.8390   -3.8540 C.3       1 SAM701      0.0000 
      3 C          -4.1830   41.6760   -4.5530 C.2       1 SAM701      0.0000 
      4 O          -4.2570   42.9050   -4.5630 O.co2     1 SAM701      0.0000 
      5 OXT        -3.2250   41.1440   -5.1120 O.co2     1 SAM701      0.0000 
      6 CB         -5.4580   41.3660   -2.4460 C.3       1 SAM701      0.0000 
      7 CG         -4.2880   41.0660   -1.5260 C.3       1 SAM701      0.0000 
      8 SD         -4.7260   41.4710    0.1740 S.3       1 SAM701      0.0000 
      9 CE         -3.1400   42.0580    0.8310 C.3       1 SAM701      0.0000 
     10 C5'        -4.9020   39.8360    0.9350 C.3       1 SAM701      0.0000 
     11 C4'        -6.3550   39.3980    0.8180 C.3       1 SAM701      0.0000 
     12 O4'        -6.4910   38.0280    1.1240 O.3       1 SAM701      0.0000 
     13 C3'        -7.2510   40.1690    1.7720 C.3       1 SAM701      0.0000 
     14 O3'        -8.3620   40.6750    1.0520 O.3       1 SAM701      0.0000 
     15 C2'        -7.7000   39.1370    2.7880 C.3       1 SAM701      0.0000 
     16 O2'        -9.0370   39.3660    3.1530 O.3       1 SAM701      0.0000 
     17 C1'        -7.5540   37.8230    2.0340 C.3       1 SAM701      0.0000 
     18 N9         -7.1950   36.6490    2.8560 N.pl3     1 SAM701      0.0000 
     19 C8         -6.3290   36.5700    3.9190 C.2       1 SAM701      0.0000 
     20 N7         -6.2860   35.2850    4.3450 N.2       1 SAM701      0.0000 
     21 C5         -7.1090   34.5410    3.5630 C.ar      1 SAM701      0.0000 
     22 C6         -7.4490   33.1880    3.5420 C.ar      1 SAM701      0.0000 
     23 N6         -6.9370   32.3290    4.4160 N.pl3     1 SAM701      0.0000 
     24 N1         -8.3480   32.7320    2.6020 N.ar      1 SAM701      0.0000 
     25 C2         -8.8940   33.5980    1.6770 C.ar      1 SAM701      0.0000 
     26 N3         -8.5530   34.9330    1.6970 N.ar      1 SAM701      0.0000 
     27 C4         -7.6790   35.3920    2.6220 C.ar      1 SAM701      0.0000 
     28 H          -6.1755   40.9507   -4.3971 H         1 SAM701      0.0000 
     29 H          -6.3695   40.9175   -2.0276 H         1 SAM701      0.0000 
     30 H          -5.6139   42.4528   -2.4879 H         1 SAM701      0.0000 
     31 H          -3.4384   41.6806   -1.6989 H         1 SAM701      0.0000 
     32 H          -4.0464   40.0330   -1.4630 H         1 SAM701      0.0000 
     33 H          -4.5866   40.0122    1.9278 H         1 SAM701      0.0000 
     34 H          -4.2308   39.2484    0.3690 H         1 SAM701      0.0000 
     35 H          -6.6949   39.6039   -0.1917 H         1 SAM701      0.0000 
     36 H          -6.6782   40.9068    2.2543 H         1 SAM701      0.0000 
     37 H          -7.0158   39.1400    3.5924 H         1 SAM701      0.0000 
     38 H          -8.4652   37.6368    1.4903 H         1 SAM701      0.0000 
     39 H          -5.8404   37.3093    4.2904 H         1 SAM701      0.0000 
     40 H          -7.2632   31.3861    4.3491 H         1 SAM701      0.0000 
     41 H          -6.2715   32.7028    5.0621 H         1 SAM701      0.0000 
     42 H          -9.5582   33.2449    0.9699 H         1 SAM701      0.0000 
     43 H          -5.5461   38.8765   -3.3463 H         1 SAM701      0.0000 
     44 H          -4.7185   39.0547   -4.7136 H         1 SAM701      0.0000 
     45 H          -3.9982   39.3103   -3.2987 H         1 SAM701      0.0000 
     46 H          -2.4002   41.4101    0.6495 H         1 SAM701      0.0000 
     47 H          -2.8706   42.9316    0.4257 H         1 SAM701      0.0000 
     48 H          -3.1753   42.1928    1.8212 H         1 SAM701      0.0000 
     49 H          -8.8826   39.8664    0.7778 H         1 SAM701      0.0000 
     50 H          -9.5784   38.8498    2.4893 H         1 SAM701      0.0000 
@<TRIPOS>BOND
     1    2    1 1    
     2   43    1 1    
     3   44    1 1    
     4   45    1 1    
     5    3    2 1    
     6    6    2 1    
     7   28    2 1    
     8    4    3 ar   
     9    5    3 ar   
    10    7    6 1    
    11   29    6 1    
    12   30    6 1    
    13    8    7 1    
    14   31    7 1    
    15   32    7 1    
    16    9    8 1    
    17   10    8 1    
    18   46    9 1    
    19   47    9 1    
    20   48    9 1    
    21   11   10 1    
    22   33   10 1    
    23   34   10 1    
    24   12   11 1    
    25   13   11 1    
    26   35   11 1    
    27   17   12 1    
    28   14   13 1    
    29   15   13 1    
    30   36   13 1    
    31   49   14 1    
    32   16   15 1    
    33   17   15 1    
    34   37   15 1    
    35   50   16 1    
    36   18   17 1    
    37   38   17 1    
    38   19   18 1    
    39   27   18 1    
    40   20   19 2    
    41   39   19 1    
    42   21   20 1    
    43   22   21 ar   
    44   27   21 ar   
    45   23   22 1    
    46   24   22 ar   
    47   40   23 1    
    48   41   23 1    
    49   25   24 ar   
    50   26   25 ar   
    51   42   25 1    
    52   27   26 ar   
@<TRIPOS>SUBSTRUCTURE
     1 SAM701      1 GROUP   
@<TRIPOS>SET

