#    Name: 4cj6_RET_1_INTS_M
#    Modification time : Mon Apr  7 22:20:51 2014

@<TRIPOS>MOLECULE
4cj6_RET_1_INTS_M
   72     0     3     0     0
SMALL
NO_CHARGES


@<TRIPOS>ATOM
      1 CA          4.5800    9.4435    9.5855 C.3       1 GLC5        0.0000 
      2 CA          5.3880    9.0900   11.3130 C.3       3 GLL5        0.0000 
      3 CA          3.7720    9.7970    7.8580 C.3       2 GLP5        0.0000 
      4 CA          6.0390   10.4500    9.9690 C.3       1 GLC5        0.0000 
      5 CA          6.6900   11.8100    8.6250 C.3       2 GLP5        0.0000 
      6 CA          2.7740    5.3420   12.8120 C.3       1 GLC5        0.0000 
      7 CA          4.7950    4.5700   12.4330 C.3       3 GLL5        0.0000 
      8 CA          0.7530    6.1140   13.1910 C.3       2 GLP5        0.0000 
      9 CA         -0.4490    0.0490   15.8455 C.3       1 GLC5        0.0000 
     10 CA         -0.3480    0.9840   14.2710 C.3       3 GLL5        0.0000 
     11 CA         -0.5500   -0.8860   17.4200 C.3       2 GLP5        0.0000 
     12 CA          2.4840    6.9850   13.1690 C.3       1 GLC5        0.0000 
     13 CA          4.2150    7.8560   13.1470 C.3       3 GLL5        0.0000 
     14 CA          3.1615    9.6220   13.5815 C.3       1 GLC5        0.0000 
     15 CA          2.1080   11.3880   14.0160 C.3       2 GLP5        0.0000 
     16 CA          4.4800    7.9350   15.0225 C.3       1 GLC5        0.0000 
     17 CA          4.7450    8.0140   16.8980 C.3       2 GLP5        0.0000 
     18 CA          1.9170    7.1855   10.7785 C.3       1 GLC5        0.0000 
     19 CA          3.9040    7.2190   10.7730 C.3       3 GLL5        0.0000 
     20 CA         -0.0700    7.1520   10.7840 C.3       2 GLP5        0.0000 
     21 CA          3.8380    8.5080    9.3155 C.3       1 GLC5        0.0000 
     22 CA          5.2835    7.6600    9.2655 C.3       1 GLC5        0.0000 
     23 CA          6.6630    8.1010    7.7580 C.3       2 GLP5        0.0000 
     24 CA          9.5030    4.8700   12.9545 C.3       1 GLC5        0.0000 
     25 CA          8.5660    6.3070   11.9430 C.3       3 GLL5        0.0000 
     26 CA         10.4400    3.4330   13.9660 C.3       2 GLP5        0.0000 
     27 CA         10.5080    6.5920   11.6250 C.3       1 GLC5        0.0000 
     28 CA         12.4500    6.8770   11.3070 C.3       2 GLP5        0.0000 
     29 CA          6.4130    1.1815   13.5300 C.3       1 GLC5        0.0000 
     30 CA          6.0100    2.3700   11.9770 C.3       3 GLL5        0.0000 
     31 CA          6.8160   -0.0070   15.0830 C.3       2 GLP5        0.0000 
     32 CA          5.2855    0.5705   10.9940 C.3       1 GLC5        0.0000 
     33 CA          4.5610   -1.2290   10.0110 C.3       2 GLP5        0.0000 
     34 CA          7.8935    2.2980   12.9705 C.3       1 GLC5        0.0000 
     35 CA          9.7770    2.2260   13.9640 C.3       2 GLP5        0.0000 
     36 CA          6.9905    1.7220   10.7145 C.3       1 GLC5        0.0000 
     37 CA          7.9710    1.0740    9.4520 C.3       2 GLP5        0.0000 
     38 CA          2.4795   -1.4915   14.3450 C.3       1 GLC5        0.0000 
     39 CA          1.5770   -0.2200   13.3640 C.3       3 GLL5        0.0000 
     40 CA          3.3820   -2.7630   15.3260 C.3       2 GLP5        0.0000 
     41 CA          0.7685   -1.8975   13.1030 C.3       1 GLC5        0.0000 
     42 CA         -0.0400   -3.5750   12.8420 C.3       2 GLP5        0.0000 
     43 CA          1.8415   -0.9450   11.5460 C.3       1 GLC5        0.0000 
     44 CA          2.1060   -1.6700    9.7280 C.3       2 GLP5        0.0000 
     45 CA          8.0983   10.1205   10.5798 C.3       1 GLC5        0.0000 
     46 CA          6.5860    9.5960   12.0910 C.3       3 GLL5        0.0000 
     47 CA          9.0320   11.1210    9.1780 C.3       2 GLP5        0.0000 
     48 CA          8.2952   10.3640   12.9908 C.3       1 GLC5        0.0000 
     49 CA          7.7430    8.6440   11.8720 C.3       3 GLL5        0.0000 
     50 CA          9.4260   11.6080   14.0000 C.3       2 GLP5        0.0000 
     51 CA          6.2843    5.1860   13.8487 C.3       1 GLC5        0.0000 
     52 CA          5.8420    5.3020   12.0080 C.3       3 GLL5        0.0000 
     53 CA          7.2500    5.4360   15.4770 C.3       2 GLP5        0.0000 
     54 CA          4.9837    1.6763   14.0935 C.3       1 GLC5        0.0000 
     55 CA          4.7620    3.0980   12.3390 C.3       3 GLL5        0.0000 
     56 CA          5.7010    0.6330   15.5920 C.3       2 GLP5        0.0000 
     57 CA          0.7960    2.0990   12.2630 C.3       1 GLC5        0.0000 
     58 CA          2.5340    2.8560   13.3980 C.3       3 GLL5        0.0000 
     59 CA         -0.5460    1.6910   10.7190 C.3       2 GLP5        0.0000 
     60 CA          3.9195    1.5700   14.6995 C.3       1 GLC5        0.0000 
     61 CA          1.7420    2.1580   14.2160 C.3       3 GLL5        0.0000 
     62 CA          1.4455    4.3105   13.4990 C.3       1 GLC5        0.0000 
     63 CA          7.4525    6.0389   13.7195 C.3       1 GLC5        0.0000 
     64 CA          7.3790    7.2030   12.0210 C.3       3 GLL5        0.0000 
     65 CA          4.2852    2.7654   10.6254 C.3       1 GLC5        0.0000 
     66 CA          3.4280    2.8020    8.9530 C.3       2 GLP5        0.0000 
     67 CA          1.1120    0.0722   15.6433 C.3       1 GLC5        0.0000 
     68 CA          0.7730   -0.5400   17.5930 C.3       2 GLP5        0.0000 
     69 CA          0.1912    1.0410   12.2131 C.3       1 GLC5        0.0000 
     70 CA          0.9080    1.0200   13.8300 C.3       3 GLL5        0.0000 
     71 CA          6.6307    7.9247    9.8026 C.3       1 GLC5        0.0000 
     72 CA          6.1090    6.7500   11.9410 C.3       3 GLL5        0.0000 
@<TRIPOS>BOND
@<TRIPOS>SUBSTRUCTURE
     1 GLC5        1 GROUP        1 X    GLC  0     ROOT GLC X 6
     2 GLP5        3 GROUP        1 Y    GLP  0     ROOT GLP Y 13
     3 GLL5        2 GROUP        1 Z    GLL  0     ROOT GLL Z 20
@<TRIPOS>SET

