#    Name: 4cj6_RET_1_ligand
#    Modification time : Mon Apr  7 22:20:51 2014

@<TRIPOS>MOLECULE
4cj6_RET_1_ligand
   49    49     1     0     0
SMALL
NO_CHARGES


@<TRIPOS>ATOM
      1 C1          4.9370    7.7030   11.7960 C.3       1 RET1307     0.0000 
      2 C2          5.3880    9.0900   11.3130 C.3       1 RET1307     0.0000 
      3 C3          6.5860    9.5960   12.0910 C.3       1 RET1307     0.0000 
      4 C4          7.7430    8.6440   11.8720 C.3       1 RET1307     0.0000 
      5 C5          7.3790    7.2030   12.0210 C.2       1 RET1307     0.0000 
      6 C6          6.1090    6.7500   11.9410 C.2       1 RET1307     0.0000 
      7 C7          5.8420    5.3020   12.0080 C.2       1 RET1307     0.0000 
      8 C8          4.7950    4.5700   12.4330 C.2       1 RET1307     0.0000 
      9 C9          4.7620    3.0980   12.3390 C.2       1 RET1307     0.0000 
     10 C10         3.7710    2.3410   12.8510 C.2       1 RET1307     0.0000 
     11 C11         2.5340    2.8560   13.3980 C.2       1 RET1307     0.0000 
     12 C12         1.7420    2.1580   14.2160 C.2       1 RET1307     0.0000 
     13 C13         0.9080    1.0200   13.8300 C.2       1 RET1307     0.0000 
     14 C14        -0.3480    0.9840   14.2710 C.2       1 RET1307     0.0000 
     15 C15        -1.2400   -0.1610   14.0080 C.2       1 RET1307     0.0000 
     16 O1         -2.4270   -0.1300   14.2620 O.2       1 RET1307     0.0000 
     17 C16         4.2150    7.8560   13.1470 C.3       1 RET1307     0.0000 
     18 C17         3.9040    7.2190   10.7730 C.3       1 RET1307     0.0000 
     19 C18         8.5660    6.3070   11.9430 C.3       1 RET1307     0.0000 
     20 C19         6.0100    2.3700   11.9770 C.3       1 RET1307     0.0000 
     21 C20         1.5770   -0.2200   13.3640 C.3       1 RET1307     0.0000 
     22 H           4.5552    9.7897   11.4262 H         1 RET1307     0.0000 
     23 H           5.6404    9.0275   10.2508 H         1 RET1307     0.0000 
     24 H           6.3430    9.6357   13.1451 H         1 RET1307     0.0000 
     25 H           6.8563   10.5832   11.7385 H         1 RET1307     0.0000 
     26 H           8.5506    8.8969   12.5864 H         1 RET1307     0.0000 
     27 H           8.1585    8.8175   10.8602 H         1 RET1307     0.0000 
     28 H           6.7186    4.7226   11.6131 H         1 RET1307     0.0000 
     29 H           3.9488    5.0100   12.8530 H         1 RET1307     0.0000 
     30 H           3.8676    1.2840   12.8724 H         1 RET1307     0.0000 
     31 H           2.2851    3.8384   13.1081 H         1 RET1307     0.0000 
     32 H           1.6777    2.4140   15.2502 H         1 RET1307     0.0000 
     33 H          -0.7706    1.7584   14.8242 H         1 RET1307     0.0000 
     34 H          -0.7201   -0.9873   13.5810 H         1 RET1307     0.0000 
     35 H           4.8114    8.2546   13.8438 H         1 RET1307     0.0000 
     36 H           3.4126    8.4483   13.0743 H         1 RET1307     0.0000 
     37 H           3.8985    6.9758   13.5007 H         1 RET1307     0.0000 
     38 H           4.2928    7.1563    9.8538 H         1 RET1307     0.0000 
     39 H           3.5492    6.3129   11.0036 H         1 RET1307     0.0000 
     40 H           3.1188    7.8358   10.7177 H         1 RET1307     0.0000 
     41 H           9.0384    6.3919   11.0657 H         1 RET1307     0.0000 
     42 H           9.2348    6.5135   12.6572 H         1 RET1307     0.0000 
     43 H           8.3129    5.3453   12.0477 H         1 RET1307     0.0000 
     44 H           6.3566    2.6496   11.0816 H         1 RET1307     0.0000 
     45 H           6.7413    2.5347   12.6389 H         1 RET1307     0.0000 
     46 H           5.8656    1.3812   11.9397 H         1 RET1307     0.0000 
     47 H           2.1345   -0.0577   12.5498 H         1 RET1307     0.0000 
     48 H           2.1827   -0.6004   14.0629 H         1 RET1307     0.0000 
     49 H           0.9161   -0.9329   13.1294 H         1 RET1307     0.0000 
@<TRIPOS>BOND
     1    2    1 1    
     2    6    1 1    
     3   17    1 1    
     4   18    1 1    
     5    3    2 1    
     6   22    2 1    
     7   23    2 1    
     8    4    3 1    
     9   24    3 1    
    10   25    3 1    
    11    5    4 1    
    12   26    4 1    
    13   27    4 1    
    14    6    5 2    
    15   19    5 1    
    16    7    6 1    
    17    8    7 2    
    18   28    7 1    
    19    9    8 1    
    20   29    8 1    
    21   10    9 2    
    22   20    9 1    
    23   11   10 1    
    24   30   10 1    
    25   12   11 2    
    26   31   11 1    
    27   13   12 1    
    28   32   12 1    
    29   14   13 2    
    30   21   13 1    
    31   15   14 1    
    32   33   14 1    
    33   16   15 2    
    34   34   15 1    
    35   35   17 1    
    36   36   17 1    
    37   37   17 1    
    38   38   18 1    
    39   39   18 1    
    40   40   18 1    
    41   41   19 1    
    42   42   19 1    
    43   43   19 1    
    44   44   20 1    
    45   45   20 1    
    46   46   20 1    
    47   47   21 1    
    48   48   21 1    
    49   49   21 1    
@<TRIPOS>SUBSTRUCTURE
     1 RET1307     1 GROUP   
@<TRIPOS>SET

