#    Name: 1s26_APC_3_INTS_M
#    Modification time : Tue Mar 25 01:51:42 2014

@<TRIPOS>MOLECULE
1s26_APC_3_INTS_M
   36     0     9     0     0
SMALL
NO_CHARGES


@<TRIPOS>ATOM
      1 NZ          2.9315   58.6140   61.4500 N.4       2 LYC4        0.0000 
      2 NZ          2.2700   57.3990   62.1870 N.4       8 LYL4        0.0000 
      3 NZ          3.5930   59.8290   60.7130 N.4       5 LYP4        0.0000 
      4 N           1.0915   57.6155   61.3825 N.am      1 SEC2        0.0000 
      5 N           2.2700   57.3990   62.1870 N.am      7 SEL2        0.0000 
      6 N          -0.0870   57.8320   60.5780 N.am      4 SEP2        0.0000 
      7 N           2.9315   58.6140   61.4500 N.am      1 SEC2        0.0000 
      8 N           3.5930   59.8290   60.7130 N.am      4 SEP2        0.0000 
      9 NZ          3.2820   58.2310   60.3505 N.4       2 LYC4        0.0000 
     10 NZ          2.9710   56.6330   59.9880 N.4       8 LYL4        0.0000 
     11 N           1.8810   56.5610   59.0825 N.am      1 SEC2        0.0000 
     12 N           2.9710   56.6330   59.9880 N.am      7 SEL2        0.0000 
     13 N           0.7910   56.4890   58.1770 N.am      4 SEP2        0.0000 
     14 N           3.2820   58.2310   60.3505 N.am      1 SEC2        0.0000 
     15 NZ          2.4535   53.6855   60.8585 N.4       2 LYC4        0.0000 
     16 NZ          2.0880   54.9820   61.5710 N.4       8 LYL4        0.0000 
     17 NZ          2.8190   52.3890   60.1460 N.4       5 LYP4        0.0000 
     18 N           7.6635   55.3480   64.2140 N.am      1 SEC2        0.0000 
     19 N           6.4580   55.1920   63.1420 N.am      7 SEL2        0.0000 
     20 N           8.8690   55.5040   65.2860 N.am      4 SEP2        0.0000 
     21 NZ          4.2195   51.6185   60.9750 N.4       2 LYC4        0.0000 
     22 NZ          5.6200   50.8480   61.8040 N.4       8 LYL4        0.0000 
     23 NZ          7.2580   53.6450   59.2925 N.4       2 LYC4        0.0000 
     24 NZ          6.8460   52.1640   60.1720 N.4       8 LYL4        0.0000 
     25 NZ          7.6700   55.1260   58.4130 N.4       5 LYP4        0.0000 
     26 CA          3.4365   52.8030   61.4390 C.3       3 GLC5        0.0000 
     27 CA          5.0060   53.4740   61.6180 C.3       9 GLL5        0.0000 
     28 CA          1.8670   52.1320   61.2600 C.3       6 GLP5        0.0000 
     29 CA          8.6970   49.1165   63.0295 C.3       3 GLC5        0.0000 
     30 CA          9.4150   50.9880   62.5930 C.3       9 GLL5        0.0000 
     31 CA          7.9790   47.2450   63.4660 C.3       6 GLP5        0.0000 
     32 CA          9.1540   49.2680   60.0210 C.3       3 GLC5        0.0000 
     33 CA         10.8400   49.8240   61.0710 C.3       9 GLL5        0.0000 
     34 CA          7.4680   48.7120   58.9710 C.3       6 GLP5        0.0000 
     35 CA          9.6000   49.0985   58.7960 C.3       3 GLC5        0.0000 
     36 CA         11.7320   49.4850   58.6210 C.3       9 GLL5        0.0000 
@<TRIPOS>BOND
@<TRIPOS>SUBSTRUCTURE
     1 SEC2        4 GROUP        1 X    SEC  0     ROOT SEC X 2
     2 LYC4        1 GROUP        1 X    LYC  0     **** LYC X 4
     3 GLC5       26 GROUP        1 X    GLC  0     **** GLC X 6
     4 SEP2        6 GROUP        1 Y    SEP  0     ROOT SEP Y 9
     5 LYP4        3 GROUP        1 Y    LYP  0     **** LYP Y 11
     6 GLP5       28 GROUP        1 Y    GLP  0     **** GLP Y 13
     7 SEL2        5 GROUP        1 Z    SEL  0     ROOT SEL Z 16
     8 LYL4        2 GROUP        1 Z    LYL  0     **** LYL Z 18
     9 GLL5       27 GROUP        1 Z    GLL  0     **** GLL Z 20
@<TRIPOS>SET

