#    Name: 1s26_APC_3_ligand
#    Modification time : Tue Mar 25 01:51:42 2014

@<TRIPOS>MOLECULE
1s26_APC_3_ligand
   44    46     1     0     0
SMALL
NO_CHARGES


@<TRIPOS>ATOM
      1 PG          2.9240   56.3130   61.4160 P.3       1 APC3139     0.0000 
      2 O1G         2.2700   57.3990   62.1870 O.co2     1 APC3139     0.0000 
      3 O2G         2.9710   56.6330   59.9880 O.co2     1 APC3139     0.0000 
      4 O3G         2.0880   54.9820   61.5710 O.co2     1 APC3139     0.0000 
      5 PB          5.0340   54.8760   62.7620 P.3       1 APC3139     0.0000 
      6 O1B         6.4580   55.1920   63.1420 O.co2     1 APC3139     0.0000 
      7 O2B         4.2370   54.5630   63.9820 O.co2     1 APC3139     0.0000 
      8 O3B         4.3950   56.1260   61.9590 O.3       1 APC3139     0.0000 
      9 PA          6.2670   52.1800   61.5720 P.3       1 APC3139     0.0000 
     10 O1A         5.6200   50.8480   61.8040 O.co2     1 APC3139     0.0000 
     11 O2A         6.8460   52.1640   60.1720 O.co2     1 APC3139     0.0000 
     12 C3A         5.0060   53.4740   61.6180 C.3       1 APC3139     0.0000 
     13 O5'         7.4210   52.4100   62.6730 O.3       1 APC3139     0.0000 
     14 C5'         8.7770   52.3100   62.2010 C.3       1 APC3139     0.0000 
     15 C4'         9.4150   50.9880   62.5930 C.3       1 APC3139     0.0000 
     16 O4'         9.5300   50.2000   61.3600 O.3       1 APC3139     0.0000 
     17 C3'        10.8330   51.1150   63.1760 C.3       1 APC3139     0.0000 
     18 O3'        10.9180   50.6300   64.5470 O.3       1 APC3139     0.0000 
     19 C2'        11.7450   50.4020   62.1470 C.3       1 APC3139     0.0000 
     20 O2'        12.5180   49.3420   62.7290 O.3       1 APC3139     0.0000 
     21 C1'        10.8400   49.8240   61.0710 C.3       1 APC3139     0.0000 
     22 N9         11.1220   50.2420   59.6570 N.pl3     1 APC3139     0.0000 
     23 C8         10.8360   51.4700   59.0680 C.2       1 APC3139     0.0000 
     24 N7         11.1940   51.5660   57.7950 N.2       1 APC3139     0.0000 
     25 C5         11.7680   50.3120   57.4860 C.ar      1 APC3139     0.0000 
     26 C6         12.3470   49.7810   56.2630 C.ar      1 APC3139     0.0000 
     27 N6         12.4570   50.3600   55.1910 N.pl3     1 APC3139     0.0000 
     28 N1         12.7790   48.4980   56.4470 N.ar      1 APC3139     0.0000 
     29 C2         12.7120   47.7370   57.6030 C.ar      1 APC3139     0.0000 
     30 N3         12.1990   48.1920   58.7050 N.ar      1 APC3139     0.0000 
     31 C4         11.7320   49.4850   58.6210 C.ar      1 APC3139     0.0000 
     32 H           4.9780   53.9064   60.6112 H         1 APC3139     0.0000 
     33 H           4.0522   52.9623   61.7908 H         1 APC3139     0.0000 
     34 H           9.4018   53.1233   62.6101 H         1 APC3139     0.0000 
     35 H           8.8229   52.3966   61.1012 H         1 APC3139     0.0000 
     36 H           8.7905   50.4740   63.2870 H         1 APC3139     0.0000 
     37 H          11.0827   52.1859   63.1157 H         1 APC3139     0.0000 
     38 H          12.3667   51.1495   61.6851 H         1 APC3139     0.0000 
     39 H          10.9185   48.7262   61.1236 H         1 APC3139     0.0000 
     40 H          10.3944   52.2013   59.5922 H         1 APC3139     0.0000 
     41 H          13.1039   46.7524   57.5470 H         1 APC3139     0.0000 
     42 H          11.6211   51.1954   64.9783 H         1 APC3139     0.0000 
     43 H          12.2465   49.3220   63.6912 H         1 APC3139     0.0000 
     44 H          13.4073   50.6700   55.1607 H         1 APC3139     0.0000 
@<TRIPOS>BOND
     1    2    1 ar   
     2    3    1 ar   
     3    4    1 ar   
     4    8    1 1    
     5    6    5 ar   
     6    7    5 ar   
     7    8    5 1    
     8   12    5 1    
     9   10    9 ar   
    10   11    9 ar   
    11   12    9 1    
    12   13    9 1    
    13   32   12 1    
    14   33   12 1    
    15   14   13 1    
    16   15   14 1    
    17   34   14 1    
    18   35   14 1    
    19   16   15 1    
    20   17   15 1    
    21   36   15 1    
    22   21   16 1    
    23   18   17 1    
    24   19   17 1    
    25   37   17 1    
    26   42   18 1    
    27   20   19 1    
    28   21   19 1    
    29   38   19 1    
    30   43   20 1    
    31   22   21 1    
    32   39   21 1    
    33   23   22 1    
    34   31   22 1    
    35   24   23 2    
    36   40   23 1    
    37   25   24 1    
    38   26   25 ar   
    39   31   25 ar   
    40   27   26 1    
    41   28   26 ar   
    42   44   27 1    
    43   29   28 ar   
    44   30   29 ar   
    45   41   29 1    
    46   31   30 ar   
@<TRIPOS>SUBSTRUCTURE
     1 APC3139     1 GROUP   
@<TRIPOS>SET

