#    Name: 4KN2_3_CAVITY_N1_ALL.mol2
#    Modification time : Tue Mar 11 11:37:39 2014

@<TRIPOS>MOLECULE
4KN2_3_CAVITY_N1_ALL.mol2
  113     0     6     0     0
SMALL
NO_CHARGES


@<TRIPOS>ATOM
      1 O          26.1069   67.0348    7.7053 O.2       2 ALA2        0.0000 
      2 CZ         24.7248   67.3045    8.2222 C.ar      4 PHE5        0.0000 
      3 DU         25.6044   65.8096    7.0009 H         6 CUB7        0.0000 
      4 CZ         24.2223   66.0792    7.5178 C.ar      4 PHE5        0.0000 
      5 CZ         23.7198   64.8539    6.8134 C.ar      4 PHE5        0.0000 
      6 CZ         22.3377   65.1235    7.3304 C.ar      4 PHE5        0.0000 
      7 DU         23.2173   63.6286    6.1090 H         6 CUB7        0.0000 
      8 O          21.8353   63.8982    6.6260 O.2       2 ALA2        0.0000 
      9 CA         22.5154   59.3842   10.7986 C.3       5 GLY6        0.0000 
     10 CA         21.1333   59.6538   11.3155 C.3       5 GLY6        0.0000 
     11 CA         24.3185   62.2378   14.1311 C.3       5 GLY6        0.0000 
     12 CZ         25.1981   60.7429   12.9097 C.ar      4 PHE5        0.0000 
     13 CZ         23.8160   61.0125   13.4266 C.ar      4 PHE5        0.0000 
     14 CZ         22.4340   61.2821   13.9436 C.ar      4 PHE5        0.0000 
     15 CZ         26.0777   59.2480   11.6884 C.ar      4 PHE5        0.0000 
     16 CZ         24.6956   59.5176   12.2053 C.ar      4 PHE5        0.0000 
     17 CZ         23.3135   59.7872   12.7222 C.ar      4 PHE5        0.0000 
     18 CZ         21.9315   60.0569   13.2392 C.ar      4 PHE5        0.0000 
     19 CA         22.8110   58.5620   12.0178 C.3       5 GLY6        0.0000 
     20 OG         27.5037   64.8219   16.9466 O.2       1 SER1        0.0000 
     21 OG         28.3833   63.3270   15.7252 O.2       1 SER1        0.0000 
     22 CA         27.0012   63.5966   16.2422 C.3       5 GLY6        0.0000 
     23 OD1        27.7846   65.9430    8.4076 O.3       3 ASP3        0.0000 
     24 N          26.4025   66.2127    8.9246 N.2       2 ALA2        0.0000 
     25 OD1        27.2821   64.7178    7.7032 O.3       3 ASP3        0.0000 
     26 N          25.9000   64.9874    8.2202 N.2       2 ALA2        0.0000 
     27 N          24.5180   65.2570    8.7371 N.2       2 ALA2        0.0000 
     28 OD1        28.1616   63.2229    6.4819 O.3       3 ASP3        0.0000 
     29 OD1        26.7796   63.4925    6.9988 O.3       3 ASP3        0.0000 
     30 DU         25.3975   63.7621    7.5157 H         6 CUB7        0.0000 
     31 CZ         24.0155   64.0317    8.0327 C.ar      4 PHE5        0.0000 
     32 CA         26.2771   62.2672    6.2944 C.3       5 GLY6        0.0000 
     33 CA         24.8950   62.5368    6.8113 C.3       5 GLY6        0.0000 
     34 DU         23.5130   62.8064    7.3283 H         6 CUB7        0.0000 
     35 CZ         22.1309   63.0760    7.8452 C.ar      4 PHE5        0.0000 
     36 O          20.7489   63.3456    8.3622 O.2       2 ALA2        0.0000 
     37 O          23.0105   61.5811    6.6239 O.2       2 ALA2        0.0000 
     38 N          21.6284   61.8507    7.1408 N.2       2 ALA2        0.0000 
     39 N          20.2464   62.1203    7.6578 N.2       2 ALA2        0.0000 
     40 N          21.1259   60.6255    6.4364 N.2       2 ALA2        0.0000 
     41 CA         24.6068   62.3873   10.4712 C.3       5 GLY6        0.0000 
     42 CZ         23.2247   62.6569   10.9881 C.ar      4 PHE5        0.0000 
     43 CZ         21.8427   62.9265   11.5051 C.ar      4 PHE5        0.0000 
     44 CZ         25.4863   60.8924    9.2499 C.ar      4 PHE5        0.0000 
     45 CZ         24.1043   61.1620    9.7668 C.ar      4 PHE5        0.0000 
     46 DU         22.7222   61.4316   10.2837 H         6 CUB7        0.0000 
     47 N          21.3402   61.7012   10.8007 N.2       2 ALA2        0.0000 
     48 CZ         22.2197   60.2064    9.5793 C.ar      4 PHE5        0.0000 
     49 N          20.8377   60.4760   10.0963 N.2       2 ALA2        0.0000 
     50 CZ         21.7172   58.9811    8.8749 C.ar      4 PHE5        0.0000 
     51 CA         24.0229   63.0600   12.9118 C.3       5 GLY6        0.0000 
     52 CA         24.9024   61.5651   11.6905 C.3       5 GLY6        0.0000 
     53 CZ         23.5204   61.8347   12.2074 C.ar      4 PHE5        0.0000 
     54 CZ         24.3999   60.3398   10.9860 C.ar      4 PHE5        0.0000 
     55 DU         23.0179   60.6094   11.5030 H         6 CUB7        0.0000 
     56 N          21.6358   60.8790   12.0199 N.2       2 ALA2        0.0000 
     57 OG         25.2055   59.7712   17.7888 O.2       1 SER1        0.0000 
     58 OG         26.0851   58.2763   16.5675 O.2       1 SER1        0.0000 
     59 OG         24.7030   58.5459   17.0844 O.2       1 SER1        0.0000 
     60 CZ         26.9646   56.7815   15.3461 C.ar      4 PHE5        0.0000 
     61 CZ         25.5826   57.0511   15.8631 C.ar      4 PHE5        0.0000 
     62 CZ         24.2005   57.3207   16.3800 C.ar      4 PHE5        0.0000 
     63 CZ         25.0801   55.8258   15.1587 C.ar      4 PHE5        0.0000 
     64 CZ         23.6980   56.0954   15.6756 C.ar      4 PHE5        0.0000 
     65 CZ         24.5776   54.6005   14.4543 C.ar      4 PHE5        0.0000 
     66 CA         23.1955   54.8701   14.9712 C.3       5 GLY6        0.0000 
     67 CZ         24.0751   53.3752   13.7499 C.ar      4 PHE5        0.0000 
     68 CA         25.3757   55.0036   16.3779 C.3       5 GLY6        0.0000 
     69 CZ         24.8732   53.7783   15.6735 C.ar      4 PHE5        0.0000 
     70 CA         23.4912   54.0479   16.1905 C.3       5 GLY6        0.0000 
     71 CZ         26.4987   62.3713   15.5378 C.ar      4 PHE5        0.0000 
     72 CA         24.6142   61.4156   15.3503 C.3       5 GLY6        0.0000 
     73 CZ         25.4937   59.9207   14.1290 C.ar      4 PHE5        0.0000 
     74 CZ         24.1117   60.1903   14.6459 C.ar      4 PHE5        0.0000 
     75 CZ         26.3733   58.4258   12.9076 C.ar      4 PHE5        0.0000 
     76 CZ         23.6092   58.9651   13.9415 C.ar      4 PHE5        0.0000 
     77 CZ         25.8708   57.2006   12.2032 C.ar      4 PHE5        0.0000 
     78 CZ         24.4888   57.4702   12.7202 C.ar      4 PHE5        0.0000 
     79 N          23.1067   57.7398   13.2371 N.2       2 ALA2        0.0000 
     80 OG         27.7994   63.9997   18.1658 O.2       1 SER1        0.0000 
     81 OG         28.6789   62.5048   16.9445 O.2       1 SER1        0.0000 
     82 OG         27.2969   62.7744   17.4614 O.2       1 SER1        0.0000 
     83 CZ         25.9148   63.0440   17.9784 C.ar      4 PHE5        0.0000 
     84 CZ         28.1765   61.2795   16.2401 C.ar      4 PHE5        0.0000 
     85 CZ         26.7944   61.5491   16.7570 C.ar      4 PHE5        0.0000 
     86 CZ         25.4123   61.8187   17.2740 C.ar      4 PHE5        0.0000 
     87 CZ         26.2919   60.3238   16.0526 C.ar      4 PHE5        0.0000 
     88 CZ         24.9098   60.5934   16.5696 C.ar      4 PHE5        0.0000 
     89 CZ         25.7894   59.0985   15.3482 C.ar      4 PHE5        0.0000 
     90 CZ         24.4073   59.3681   15.8652 C.ar      4 PHE5        0.0000 
     91 CZ         26.6690   57.6037   14.1269 C.ar      4 PHE5        0.0000 
     92 DU         25.2869   57.8733   14.6438 H         6 CUB7        0.0000 
     93 CZ         23.9049   58.1429   15.1608 C.ar      4 PHE5        0.0000 
     94 CZ         26.1665   56.3784   13.4225 C.ar      4 PHE5        0.0000 
     95 DU         24.7844   56.6480   13.9394 H         6 CUB7        0.0000 
     96 CZ         23.4024   56.9176   14.4563 C.ar      4 PHE5        0.0000 
     97 N          24.2819   55.4227   13.2350 N.2       2 ALA2        0.0000 
     98 CZ         27.5925   61.9522   18.6807 C.ar      4 PHE5        0.0000 
     99 OG         27.0901   60.7269   17.9763 O.2       1 SER1        0.0000 
    100 OD1        27.5777   63.8956    8.9225 O.3       3 ASP3        0.0000 
    101 N          26.1957   64.1652    9.4394 N.2       2 ALA2        0.0000 
    102 OD1        27.0752   62.6703    8.2181 O.3       3 ASP3        0.0000 
    103 CZ         25.6932   62.9399    8.7350 C.ar      4 PHE5        0.0000 
    104 N          24.3111   63.2095    9.2519 N.2       2 ALA2        0.0000 
    105 CZ         22.9291   63.4791    9.7689 C.ar      4 PHE5        0.0000 
    106 CA         26.5727   61.4450    7.5137 C.3       5 GLY6        0.0000 
    107 CZ         25.1907   61.7146    8.0306 C.ar      4 PHE5        0.0000 
    108 CZ         23.8086   61.9842    8.5475 C.ar      4 PHE5        0.0000 
    109 CZ         22.4266   62.2538    9.0645 C.ar      4 PHE5        0.0000 
    110 CZ         21.0445   62.5234    9.5814 C.ar      4 PHE5        0.0000 
    111 O          23.3061   60.7589    7.8431 O.2       2 ALA2        0.0000 
    112 N          21.9241   61.0285    8.3601 N.2       2 ALA2        0.0000 
    113 N          21.4216   59.8033    7.6557 N.2       2 ALA2        0.0000 
@<TRIPOS>BOND
@<TRIPOS>SUBSTRUCTURE
     1 SER1       20 GROUP   
     2 ALA2        1 GROUP   
     3 ASP3       23 GROUP   
     4 PHE5        2 GROUP   
     5 GLY6        9 GROUP   
     6 CUB7        3 GROUP   
@<TRIPOS>SET

