#    Name: 4kn2_LYA_3_INTS_M
#    Modification time : Tue Mar 25 08:05:24 2014

@<TRIPOS>MOLECULE
4kn2_LYA_3_INTS_M
   59     0     9     0     0
SMALL
NO_CHARGES


@<TRIPOS>ATOM
      1 CA         19.8920   60.0490   10.7270 C.3       3 GLC5        0.0000 
      2 CA         21.3990   61.3860   10.7800 C.3       9 GLL5        0.0000 
      3 CA         18.3850   58.7120   10.6740 C.3       6 GLP5        0.0000 
      4 CA         25.7165   60.8350   12.7565 C.3       3 GLC5        0.0000 
      5 CA         23.8620   59.8330   13.2240 C.3       9 GLL5        0.0000 
      6 CA         27.5710   61.8370   12.2890 C.3       6 GLP5        0.0000 
      7 CA         26.4150   59.9045   13.2855 C.3       3 GLC5        0.0000 
      8 CA         24.8180   58.6710   13.1580 C.3       9 GLL5        0.0000 
      9 CA         28.0120   61.1380   13.4130 C.3       6 GLP5        0.0000 
     10 CA         24.8295   58.0810   11.2380 C.3       3 GLC5        0.0000 
     11 CA         24.8410   57.4910    9.3180 C.3       6 GLP5        0.0000 
     12 O          25.9765   58.0865   18.0240 O.2       1 ALC1        0.0000 
     13 O          25.2580   57.6700   16.6800 O.2       7 ALL1        0.0000 
     14 O          26.6950   58.5030   19.3680 O.2       4 ALP1        0.0000 
     15 CA         26.2930   55.0680   16.4200 C.3       3 GLC5        0.0000 
     16 CA         24.7820   56.5150   16.1770 C.3       9 GLL5        0.0000 
     17 CA         27.8040   53.6210   16.6630 C.3       6 GLP5        0.0000 
     18 N          24.3955   54.9560   11.5550 N.am      2 SEC2        0.0000 
     19 N          23.8210   55.7300   12.8320 N.am      8 SEL2        0.0000 
     20 N          24.9700   54.1820   10.2780 N.am      5 SEP2        0.0000 
     21 N          22.6485   55.7655   12.3135 N.am      2 SEC2        0.0000 
     22 N          21.4760   55.8010   11.7950 N.am      5 SEP2        0.0000 
     23 O          24.0570   54.4200   18.1090 O.2       1 ALC1        0.0000 
     24 O          24.5040   55.2430   16.8000 O.2       7 ALL1        0.0000 
     25 O          23.6100   53.5970   19.4180 O.2       4 ALP1        0.0000 
     26 O          24.3250   55.4840   18.0565 O.2       1 ALC1        0.0000 
     27 O          24.1460   55.7250   19.3130 O.2       4 ALP1        0.0000 
     28 O          23.6655   53.2435   18.0445 O.2       1 ALC1        0.0000 
     29 O          23.7210   52.8900   16.6710 O.2       7 ALL1        0.0000 
     30 O          19.5720   61.0520    8.3340 O.2       1 ALC1        0.0000 
     31 O          20.4240   61.9650    7.8980 O.2       7 ALL1        0.0000 
     32 O          18.7200   60.1390    8.7700 O.2       4 ALP1        0.0000 
     33 CA         19.6790   64.6070    7.1355 C.3       3 GLC5        0.0000 
     34 CA         19.8880   62.5550    6.6790 C.3       9 GLL5        0.0000 
     35 CA         19.4700   66.6590    7.5920 C.3       6 GLP5        0.0000 
     36 CA         23.2970   60.1565    5.1230 C.3       3 GLC5        0.0000 
     37 CA         21.3160   61.0710    5.0990 C.3       9 GLL5        0.0000 
     38 CA         25.2780   59.2420    5.1470 C.3       6 GLP5        0.0000 
     39 N          23.7195   60.2525    2.6490 N.am      2 SEC2        0.0000 
     40 N          22.2580   59.8450    3.2460 N.am      8 SEL2        0.0000 
     41 N          25.1810   60.6600    2.0520 N.am      5 SEP2        0.0000 
     42 N          23.2450   59.3495    4.6010 N.am      2 SEC2        0.0000 
     43 N          24.2320   58.8540    5.9560 N.am      5 SEP2        0.0000 
     44 N          16.6250   62.9925    7.7815 N.am      2 SEC2        0.0000 
     45 N          18.1760   63.6410    7.9770 N.am      8 SEL2        0.0000 
     46 N          15.0740   62.3440    7.5860 N.am      5 SEP2        0.0000 
     47 N          16.8025   64.2295    8.4560 N.am      2 SEC2        0.0000 
     48 N          15.4290   64.8180    8.9350 N.am      5 SEP2        0.0000 
     49 N          18.9820   64.6630    8.2460 N.am      2 SEC2        0.0000 
     50 N          19.7880   65.6850    8.5150 N.am      5 SEP2        0.0000 
     51 N          16.3065   62.4655    6.8770 N.am      2 SEC2        0.0000 
     52 N          17.5390   62.5870    6.1680 N.am      8 SEL2        0.0000 
     53 CA         25.2780   61.9040   11.9350 C.3       3 GLC5        0.0000 
     54 CA         23.2820   60.4830   11.9770 C.3       9 GLL5        0.0000 
     55 CA         26.8570   63.1670   12.4210 C.3       6 GLP5        0.0000 
     56 CA         21.7230   58.7627   11.6022 C.3       3 GLC5        0.0000 
     57 CA         20.8420   56.8940   11.2570 C.3       6 GLP5        0.0000 
     58 CA         22.5260   58.8505   14.0005 C.3       3 GLC5        0.0000 
     59 CA         20.7120   58.4490   14.8100 C.3       6 GLP5        0.0000 
@<TRIPOS>BOND
@<TRIPOS>SUBSTRUCTURE
     1 ALC1       12 GROUP        1 X    ALC  0     ROOT ALC X 1
     2 SEC2       18 GROUP        1 X    SEC  0     **** SEC X 2
     3 GLC5        1 GROUP        1 X    GLC  0     **** GLC X 6
     4 ALP1       14 GROUP        1 Y    ALP  0     ROOT ALP Y 8
     5 SEP2       20 GROUP        1 Y    SEP  0     **** SEP Y 9
     6 GLP5        3 GROUP        1 Y    GLP  0     **** GLP Y 13
     7 ALL1       13 GROUP        1 Z    ALL  0     ROOT ALL Z 15
     8 SEL2       19 GROUP        1 Z    SEL  0     **** SEL Z 16
     9 GLL5        2 GROUP        1 Z    GLL  0     **** GLL Z 20
@<TRIPOS>SET

