#    Name: 4kn2_LYA_3_ligand
#    Modification time : Tue Mar 25 08:05:24 2014

@<TRIPOS>MOLECULE
4kn2_LYA_3_ligand
   50    52     1     0     0
SMALL
NO_CHARGES


@<TRIPOS>ATOM
      1 C1         23.2820   60.4830   11.9770 C.ar      1 LYA304      0.0000 
      2 C2         21.9260   60.7800   11.9180 C.ar      1 LYA304      0.0000 
      3 C3         21.3990   61.3860   10.7800 C.ar      1 LYA304      0.0000 
      4 C4         22.2400   61.6890    9.7170 C.ar      1 LYA304      0.0000 
      5 C5         23.5890   61.3950    9.7860 C.ar      1 LYA304      0.0000 
      6 C6         24.1160   60.7990   10.9210 C.ar      1 LYA304      0.0000 
      7 C7         23.8620   59.8330   13.2240 C.3       1 LYA304      0.0000 
      8 C8         24.8180   58.6710   13.1580 C.3       1 LYA304      0.0000 
      9 C9         24.9090   57.9870   14.5210 C.2       1 LYA304      0.0000 
     10 C10        25.3420   58.5870   15.7000 C.2       1 LYA304      0.0000 
     11 N11        25.2580   57.6700   16.6800 N.pl3     1 LYA304      0.0000 
     12 C12        24.7820   56.5150   16.1770 C.2       1 LYA304      0.0000 
     13 C13        24.5480   56.6800   14.8210 C.2       1 LYA304      0.0000 
     14 C14        24.0200   55.5600   14.0140 C.2       1 LYA304      0.0000 
     15 O15        23.8210   55.7300   12.8320 O.2       1 LYA304      0.0000 
     16 N16        23.7420   54.3030   14.6130 N.2       1 LYA304      0.0000 
     17 C17        23.9840   54.1450   16.0180 C.2       1 LYA304      0.0000 
     18 N18        24.5040   55.2430   16.8000 N.pl3     1 LYA304      0.0000 
     19 N19        23.7210   52.8900   16.6710 N.pl3     1 LYA304      0.0000 
     20 C20        21.7070   62.3560    8.4560 C.2       1 LYA304      0.0000 
     21 O21        22.3770   63.2230    7.9380 O.2       1 LYA304      0.0000 
     22 N22        20.4240   61.9650    7.8980 N.am      1 LYA304      0.0000 
     23 C23        19.8880   62.5550    6.6790 C.3       1 LYA304      0.0000 
     24 C24        19.9620   61.5930    5.5160 C.3       1 LYA304      0.0000 
     25 C25        21.3160   61.0710    5.0990 C.3       1 LYA304      0.0000 
     26 C26        21.3950   59.8790    4.1760 C.2       1 LYA304      0.0000 
     27 O27        22.2580   59.8450    3.2460 O.co2     1 LYA304      0.0000 
     28 O28        20.6080   58.8990    4.3230 O.co2     1 LYA304      0.0000 
     29 C29        18.4640   62.9490    6.9520 C.2       1 LYA304      0.0000 
     30 O30        18.1760   63.6410    7.9770 O.co2     1 LYA304      0.0000 
     31 O31        17.5390   62.5870    6.1680 O.co2     1 LYA304      0.0000 
     32 H          21.3130   60.5541   12.7100 H         1 LYA304      0.0000 
     33 H          20.4000   61.6055   10.7292 H         1 LYA304      0.0000 
     34 H          24.2071   61.6194    8.9907 H         1 LYA304      0.0000 
     35 H          25.1217   60.5938   10.9754 H         1 LYA304      0.0000 
     36 H          22.9846   59.5325   13.8949 H         1 LYA304      0.0000 
     37 H          24.3511   60.6596   13.8468 H         1 LYA304      0.0000 
     38 H          25.8073   59.0222   12.8714 H         1 LYA304      0.0000 
     39 H          24.4712   57.9485   12.4218 H         1 LYA304      0.0000 
     40 H          25.6401   59.4903   15.7713 H         1 LYA304      0.0000 
     41 H          25.5036   57.8175   17.6113 H         1 LYA304      0.0000 
     42 H          24.6742   55.1188   17.7909 H         1 LYA304      0.0000 
     43 H          23.3939   52.1489   16.0846 H         1 LYA304      0.0000 
     44 H          23.8873   52.8635   17.6567 H         1 LYA304      0.0000 
     45 H          19.8735   61.2463    8.3796 H         1 LYA304      0.0000 
     46 H          20.4437   63.4510    6.4294 H         1 LYA304      0.0000 
     47 H          19.4762   62.0774    4.6225 H         1 LYA304      0.0000 
     48 H          19.2943   60.7136    5.7391 H         1 LYA304      0.0000 
     49 H          21.9090   60.8371    6.0325 H         1 LYA304      0.0000 
     50 H          21.8954   61.9214    4.6310 H         1 LYA304      0.0000 
@<TRIPOS>BOND
     1    2    1 ar   
     2    6    1 ar   
     3    7    1 1    
     4    3    2 ar   
     5   32    2 1    
     6    4    3 ar   
     7   33    3 1    
     8    5    4 ar   
     9   20    4 1    
    10    6    5 ar   
    11   34    5 1    
    12   35    6 1    
    13    8    7 1    
    14   36    7 1    
    15   37    7 1    
    16    9    8 1    
    17   38    8 1    
    18   39    8 1    
    19   10    9 2    
    20   13    9 1    
    21   11   10 1    
    22   40   10 1    
    23   12   11 1    
    24   41   11 1    
    25   13   12 2    
    26   18   12 1    
    27   14   13 1    
    28   15   14 2    
    29   16   14 1    
    30   17   16 2    
    31   18   17 1    
    32   19   17 1    
    33   42   18 1    
    34   43   19 1    
    35   44   19 1    
    36   21   20 2    
    37   22   20 am   
    38   23   22 1    
    39   45   22 1    
    40   24   23 1    
    41   29   23 1    
    42   46   23 1    
    43   25   24 1    
    44   47   24 1    
    45   48   24 1    
    46   26   25 1    
    47   49   25 1    
    48   50   25 1    
    49   27   26 ar   
    50   28   26 ar   
    51   30   29 ar   
    52   31   29 ar   
@<TRIPOS>SUBSTRUCTURE
     1 LYA304      1 GROUP   
@<TRIPOS>SET

