#    Name: 4dyp_0MS_1_INTS_M
#    Modification time : Tue Mar 25 10:24:46 2014

@<TRIPOS>MOLECULE
4dyp_0MS_1_INTS_M
   63     0     6     0     0
SMALL
NO_CHARGES


@<TRIPOS>ATOM
      1 CA         25.7785  -35.9840   14.3040 C.3       2 GLC5        0.0000 
      2 CA         24.9830  -35.1010   16.0720 C.3       6 GLL5        0.0000 
      3 CA         26.5740  -36.8670   12.5360 C.3       4 GLP5        0.0000 
      4 CA         24.9280  -33.5640   18.2530 C.3       2 GLC5        0.0000 
      5 CA         24.0770  -35.2130   18.3490 C.3       6 GLL5        0.0000 
      6 CA         25.7790  -31.9150   18.1570 C.3       4 GLP5        0.0000 
      7 CA         22.6870  -33.5915   18.9470 C.3       2 GLC5        0.0000 
      8 CA         21.2970  -31.9700   19.5450 C.3       4 GLP5        0.0000 
      9 CA         21.6790  -34.8890   19.9600 C.3       2 GLC5        0.0000 
     10 CA         23.0000  -35.9430   19.1510 C.3       6 GLL5        0.0000 
     11 CA         20.3580  -33.8350   20.7690 C.3       4 GLP5        0.0000 
     12 CA         21.6510  -38.5445   17.7455 C.3       2 GLC5        0.0000 
     13 CA         23.2840  -37.9420   17.7350 C.3       6 GLL5        0.0000 
     14 CA         20.0180  -39.1470   17.7560 C.3       4 GLP5        0.0000 
     15 CA         24.4225  -32.6820   17.0760 C.3       2 GLC5        0.0000 
     16 CA         23.0660  -33.4490   15.9950 C.3       6 GLL5        0.0000 
     17 CA         22.7970  -32.1685   14.1880 C.3       2 GLC5        0.0000 
     18 CA         22.5280  -30.8880   12.3810 C.3       4 GLP5        0.0000 
     19 CA         21.7985  -32.8795   17.2170 C.3       2 GLC5        0.0000 
     20 CA         20.5310  -32.3100   18.4390 C.3       4 GLP5        0.0000 
     21 CA         20.5400  -36.6555   22.2285 C.3       2 GLC5        0.0000 
     22 CA         20.8080  -38.6420   22.4300 C.3       6 GLL5        0.0000 
     23 CA         20.2720  -34.6690   22.0270 C.3       4 GLP5        0.0000 
     24 CA         20.1660  -37.4980   24.2385 C.3       2 GLC5        0.0000 
     25 CA         19.5240  -36.3540   26.0470 C.3       4 GLP5        0.0000 
     26 CA         20.5960  -40.4025   23.3000 C.3       2 GLC5        0.0000 
     27 CA         20.3840  -42.1630   24.1700 C.3       4 GLP5        0.0000 
     28 CA         22.1590  -38.9040   23.8540 C.3       2 GLC5        0.0000 
     29 CA         23.5100  -39.1660   25.2780 C.3       4 GLP5        0.0000 
     30 CA         19.9125  -39.3835   21.0810 C.3       2 GLC5        0.0000 
     31 CA         19.0170  -40.1250   19.7320 C.3       4 GLP5        0.0000 
     32 N          23.7770  -40.3470   20.8360 N.am      1 SEC2        0.0000 
     33 N          23.2230  -39.3840   20.2880 N.am      5 SEL2        0.0000 
     34 N          24.3310  -41.3100   21.3840 N.am      3 SEP2        0.0000 
     35 CA         25.1665  -39.0160   22.7140 C.3       2 GLC5        0.0000 
     36 CA         26.0750  -38.3000   21.1510 C.3       6 GLL5        0.0000 
     37 CA         24.2580  -39.7320   24.2770 C.3       4 GLP5        0.0000 
     38 CA         27.4840  -32.3075   14.7765 C.3       2 GLC5        0.0000 
     39 CA         27.3400  -32.7820   12.9060 C.3       6 GLL5        0.0000 
     40 CA         27.6280  -31.8330   16.6470 C.3       4 GLP5        0.0000 
     41 CA         27.6425  -31.0885   11.8235 C.3       2 GLC5        0.0000 
     42 CA         27.9450  -29.3950   10.7410 C.3       4 GLP5        0.0000 
     43 CA         28.7210  -32.4580   11.5170 C.3       2 GLC5        0.0000 
     44 CA         30.1020  -32.1340   10.1280 C.3       4 GLP5        0.0000 
     45 CA         26.9570  -34.8245   12.7210 C.3       2 GLC5        0.0000 
     46 CA         25.7270  -32.3905   11.8105 C.3       2 GLC5        0.0000 
     47 CA         24.1140  -31.9990   10.7150 C.3       4 GLP5        0.0000 
     48 CA         27.4120  -36.2320   22.1972 C.3       2 GLC5        0.0000 
     49 CA         27.1720  -34.5030   20.6190 C.3       6 GLL5        0.0000 
     50 CA         27.6630  -37.2650   23.7640 C.3       4 GLP5        0.0000 
     51 CA         26.3050  -36.2088   22.6852 C.3       2 GLC5        0.0000 
     52 CA         24.9340  -35.8500   21.6230 C.3       6 GLL5        0.0000 
     53 CA         24.6955  -33.4607   12.6687 C.3       2 GLC5        0.0000 
     54 CA         26.3500  -33.7080   14.2000 C.3       6 GLL5        0.0000 
     55 CA         23.6630  -33.4460   10.9350 C.3       4 GLP5        0.0000 
     56 CA         26.4315  -35.5184   13.5591 C.3       2 GLC5        0.0000 
     57 CA         25.1060  -33.2430   14.6050 C.3       6 GLL5        0.0000 
     58 CA         21.3665  -36.1385   22.0000 C.3       2 GLC5        0.0000 
     59 CA         22.9640  -37.4840   21.5270 C.3       6 GLL5        0.0000 
     60 CA         22.3428  -34.7760   14.8798 C.3       2 GLC5        0.0000 
     61 CA         20.9530  -35.8520   13.9800 C.3       4 GLP5        0.0000 
     62 CA         26.8588  -37.3495   22.4552 C.3       2 GLC5        0.0000 
     63 CA         26.0340  -36.5680   21.1420 C.3       6 GLL5        0.0000 
@<TRIPOS>BOND
@<TRIPOS>SUBSTRUCTURE
     1 SEC2       32 GROUP        1 X    SEC  0     ROOT SEC X 2
     2 GLC5        1 GROUP        1 X    GLC  0     **** GLC X 6
     3 SEP2       34 GROUP        1 Y    SEP  0     ROOT SEP Y 9
     4 GLP5        3 GROUP        1 Y    GLP  0     **** GLP Y 13
     5 SEL2       33 GROUP        1 Z    SEL  0     ROOT SEL Z 16
     6 GLL5        2 GROUP        1 Z    GLL  0     **** GLL Z 20
@<TRIPOS>SET

