#    Name: 4dyp_0MS_1_ligand
#    Modification time : Tue Mar 25 10:24:46 2014

@<TRIPOS>MOLECULE
4dyp_0MS_1_ligand
   49    52     1     0     0
SMALL
NO_CHARGES


@<TRIPOS>ATOM
      1 C1         26.0760  -33.7830   21.0930 C.ar      1 0MS601      0.0000 
      2 C2         27.1720  -34.5030   20.6190 C.ar      1 0MS601      0.0000 
      3 C3         24.9600  -34.4550   21.5900 C.ar      1 0MS601      0.0000 
      4 C4         27.1500  -35.8950   20.6420 C.ar      1 0MS601      0.0000 
      5 C5         25.1060  -33.2430   14.6050 C.ar      1 0MS601      0.0000 
      6 C6         26.8500  -34.8640   14.7620 C.ar      1 0MS601      0.0000 
      7 C7         24.9340  -35.8500   21.6230 C.ar      1 0MS601      0.0000 
      8 C8         22.9640  -37.4840   21.5270 C.2       1 0MS601      0.0000 
      9 C9         24.3990  -33.9510   15.5640 C.ar      1 0MS601      0.0000 
     10 C10        26.0340  -36.5680   21.1420 C.ar      1 0MS601      0.0000 
     11 C11        26.3500  -33.7080   14.2000 C.ar      1 0MS601      0.0000 
     12 C12        23.7470  -36.4880   22.1410 C.2       1 0MS601      0.0000 
     13 C13        21.9580  -37.7320   22.4190 C.2       1 0MS601      0.0000 
     14 C14        24.9830  -35.1010   16.0720 C.ar      1 0MS601      0.0000 
     15 C15        23.1210  -38.1610   20.2420 C.2       1 0MS601      0.0000 
     16 C16        24.0770  -35.2130   18.3490 C.3       1 0MS601      0.0000 
     17 C17        24.4730  -37.2920   17.0400 C.3       1 0MS601      0.0000 
     18 C18        23.0000  -35.9430   19.1510 C.3       1 0MS601      0.0000 
     19 C19        23.2840  -37.9420   17.7350 C.3       1 0MS601      0.0000 
     20 C20        23.0660  -33.4490   15.9950 C.3       1 0MS601      0.0000 
     21 C21        20.8080  -38.6420   22.4300 C.3       1 0MS601      0.0000 
     22 N22        26.1900  -35.5770   15.6940 N.ar      1 0MS601      0.0000 
     23 N23        23.2480  -36.1400   23.3290 N.2       1 0MS601      0.0000 
     24 N24        24.3030  -35.8400   17.0380 N.3       1 0MS601      0.0000 
     25 N25        23.1410  -37.3960   19.0830 N.am      1 0MS601      0.0000 
     26 O26        23.2230  -39.3840   20.2880 O.2       1 0MS601      0.0000 
     27 O27        22.1110  -36.9350   23.5050 O.3       1 0MS601      0.0000 
     28 CL2        26.0750  -38.3000   21.1510 Cl        1 0MS601      0.0000 
     29 BR2        27.3400  -32.7820   12.9060 Br        1 0MS601      0.0000 
     30 H          26.0908  -32.7556   21.0760 H         1 0MS601      0.0000 
     31 H          27.9932  -34.0069   20.2539 H         1 0MS601      0.0000 
     32 H          24.1510  -33.9201   21.9344 H         1 0MS601      0.0000 
     33 H          27.9548  -36.4285   20.2911 H         1 0MS601      0.0000 
     34 H          24.7167  -32.3874   14.1994 H         1 0MS601      0.0000 
     35 H          27.8021  -35.1962   14.4349 H         1 0MS601      0.0000 
     36 H          25.0041  -35.2113   18.9404 H         1 0MS601      0.0000 
     37 H          23.7640  -34.1659   18.2267 H         1 0MS601      0.0000 
     38 H          24.5313  -37.6787   16.0211 H         1 0MS601      0.0000 
     39 H          25.3822  -37.5769   17.5721 H         1 0MS601      0.0000 
     40 H          22.0154  -35.6289   18.7644 H         1 0MS601      0.0000 
     41 H          23.0586  -35.5947   20.1964 H         1 0MS601      0.0000 
     42 H          23.4508  -39.0211   17.7674 H         1 0MS601      0.0000 
     43 H          22.3886  -37.7493   17.1396 H         1 0MS601      0.0000 
     44 H          23.1240  -32.5311   16.3875 H         1 0MS601      0.0000 
     45 H          22.4224  -33.4010   15.2311 H         1 0MS601      0.0000 
     46 H          22.6536  -34.0390   16.6891 H         1 0MS601      0.0000 
     47 H          21.0911  -39.5990   22.3666 H         1 0MS601      0.0000 
     48 H          20.2699  -38.5504   23.2679 H         1 0MS601      0.0000 
     49 H          20.1894  -38.4680   21.6638 H         1 0MS601      0.0000 
@<TRIPOS>BOND
     1    2    1 ar   
     2    3    1 ar   
     3   30    1 1    
     4    4    2 ar   
     5   31    2 1    
     6    7    3 ar   
     7   32    3 1    
     8   10    4 ar   
     9   33    4 1    
    10    9    5 ar   
    11   11    5 ar   
    12   34    5 1    
    13   11    6 ar   
    14   22    6 ar   
    15   35    6 1    
    16   10    7 ar   
    17   12    7 1    
    18   12    8 1    
    19   13    8 2    
    20   15    8 1    
    21   14    9 ar   
    22   20    9 1    
    23   28   10 1    
    24   29   11 1    
    25   23   12 2    
    26   21   13 1    
    27   27   13 1    
    28   22   14 ar   
    29   24   14 1    
    30   25   15 am   
    31   26   15 2    
    32   18   16 1    
    33   24   16 1    
    34   36   16 1    
    35   37   16 1    
    36   19   17 1    
    37   24   17 1    
    38   38   17 1    
    39   39   17 1    
    40   25   18 1    
    41   40   18 1    
    42   41   18 1    
    43   25   19 1    
    44   42   19 1    
    45   43   19 1    
    46   44   20 1    
    47   45   20 1    
    48   46   20 1    
    49   47   21 1    
    50   48   21 1    
    51   49   21 1    
    52   27   23 1    
@<TRIPOS>SUBSTRUCTURE
     1 0MS601      1 GROUP   
@<TRIPOS>SET

