#    Name: 2cgu_3A3_1_INTS_M
#    Modification time : Mon Mar 24 23:46:22 2014

@<TRIPOS>MOLECULE
2cgu_3A3_1_INTS_M
   48     0    12     0     0
SMALL
NO_CHARGES


@<TRIPOS>ATOM
      1 CA         -0.5065   -4.9375   22.3990 C.3       4 GLC5        0.0000 
      2 CA         -2.0060   -3.8760   21.4890 C.3      12 GLL5        0.0000 
      3 CA          0.9930   -5.9990   23.3090 C.3       8 GLP5        0.0000 
      4 N           3.7990   -0.4505   20.5040 N.am      2 SEC2        0.0000 
      5 N           4.2350   -1.8370   19.9770 N.am     10 SEL2        0.0000 
      6 N           3.3630    0.9360   21.0310 N.am      6 SEP2        0.0000 
      7 O           6.3710   -0.6455   20.2340 O.2       1 ALC1        0.0000 
      8 O           5.5570   -1.5710   19.6830 O.2       9 ALL1        0.0000 
      9 O           7.1850    0.2800   20.7850 O.2       5 ALP1        0.0000 
     10 CA          3.7645   -4.4955   20.6960 C.3       4 GLC5        0.0000 
     11 CA          4.2430   -3.8460   18.6050 C.3      12 GLL5        0.0000 
     12 CA          3.2860   -5.1450   22.7870 C.3       8 GLP5        0.0000 
     13 CA          3.3435   -7.8725   17.8250 C.3       4 GLC5        0.0000 
     14 CA          3.5780   -5.8390   17.3750 C.3      12 GLL5        0.0000 
     15 CA          3.1090   -9.9060   18.2750 C.3       8 GLP5        0.0000 
     16 CA          7.4940   -6.8915   17.3655 C.3       4 GLC5        0.0000 
     17 CA          7.3670   -5.9790   15.8070 C.3      12 GLL5        0.0000 
     18 CA          7.6210   -7.8040   18.9240 C.3       8 GLP5        0.0000 
     19 CA          8.2145   -5.4525   13.8605 C.3       4 GLC5        0.0000 
     20 CA          9.0620   -4.9260   11.9140 C.3       8 GLP5        0.0000 
     21 NZ         10.6980   -6.2380   15.3350 N.4       3 LYC4        0.0000 
     22 NZ          9.6300   -5.1360   15.5110 N.4      11 LYL4        0.0000 
     23 NZ         11.7660   -7.3400   15.1590 N.4       7 LYP4        0.0000 
     24 N          10.6980   -6.2380   15.3350 N.am      2 SEC2        0.0000 
     25 N           9.6300   -5.1360   15.5110 N.am     10 SEL2        0.0000 
     26 N          11.7660   -7.3400   15.1590 N.am      6 SEP2        0.0000 
     27 NZ         10.3680   -7.1765   14.7665 N.4       3 LYC4        0.0000 
     28 NZ          8.9700   -7.0130   14.3740 N.4      11 LYL4        0.0000 
     29 N          10.3680   -7.1765   14.7665 N.am      2 SEC2        0.0000 
     30 N           8.9700   -7.0130   14.3740 N.am     10 SEL2        0.0000 
     31 CA          1.0473   -5.0050   21.1510 C.3       4 GLC5        0.0000 
     32 CA         -0.1650   -4.5070   19.5810 C.3      12 GLL5        0.0000 
     33 CA          2.1650   -6.0820   22.3300 C.3       8 GLP5        0.0000 
     34 CA          2.5427   -4.0745   21.4120 C.3       4 GLC5        0.0000 
     35 CA          1.2810   -2.7170   20.4040 C.3      12 GLL5        0.0000 
     36 CA         -0.7441   -2.5330   18.8536 C.3       4 GLC5        0.0000 
     37 CA          0.0240   -3.3490   20.3630 C.3      12 GLL5        0.0000 
     38 CA         -1.7320   -1.2960   17.7250 C.3       8 GLP5        0.0000 
     39 CA          5.6785   -5.1847   19.5247 C.3       4 GLC5        0.0000 
     40 CA          6.4780   -6.4840   20.7150 C.3       8 GLP5        0.0000 
     41 CA          2.2746   -5.4261   20.4466 C.3       4 GLC5        0.0000 
     42 CA          3.2800   -4.7880   18.2540 C.3      12 GLL5        0.0000 
     43 CA          4.9535   -5.8987   19.2647 C.3       4 GLC5        0.0000 
     44 CA          4.2287   -2.9754   17.1501 C.3       4 GLC5        0.0000 
     45 CA          4.3780   -1.6140   16.0060 C.3       8 GLP5        0.0000 
     46 CA          6.4860   -6.6258   17.9720 C.3       4 GLC5        0.0000 
     47 CA          5.8300   -4.9620   17.1920 C.3      12 GLL5        0.0000 
     48 CA          4.8645   -3.5307   16.5130 C.3       4 GLC5        0.0000 
@<TRIPOS>BOND
@<TRIPOS>SUBSTRUCTURE
     1 ALC1        7 GROUP        1 X    ALC  0     ROOT ALC X 1
     2 SEC2        4 GROUP        1 X    SEC  0     **** SEC X 2
     3 LYC4       21 GROUP        1 X    LYC  0     **** LYC X 4
     4 GLC5        1 GROUP        1 X    GLC  0     **** GLC X 6
     5 ALP1        9 GROUP        1 Y    ALP  0     ROOT ALP Y 8
     6 SEP2        6 GROUP        1 Y    SEP  0     **** SEP Y 9
     7 LYP4       23 GROUP        1 Y    LYP  0     **** LYP Y 11
     8 GLP5        3 GROUP        1 Y    GLP  0     **** GLP Y 13
     9 ALL1        8 GROUP        1 Z    ALL  0     ROOT ALL Z 15
    10 SEL2        5 GROUP        1 Z    SEL  0     **** SEL Z 16
    11 LYL4       22 GROUP        1 Z    LYL  0     **** LYL Z 18
    12 GLL5        2 GROUP        1 Z    GLL  0     **** GLL Z 20
@<TRIPOS>SET

