#    Name: 2cgu_3A3_1_ligand
#    Modification time : Mon Mar 24 23:46:22 2014

@<TRIPOS>MOLECULE
2cgu_3A3_1_ligand
   36    38     1     0     0
SMALL
NO_CHARGES


@<TRIPOS>ATOM
      1 O24        -3.3680   -1.9540   21.9200 O.co2     1 3A31272     0.0000 
      2 C11        -3.3780   -3.1910   21.6220 C.2       1 3A31272     0.0000 
      3 O14        -4.4110   -3.9000   21.4150 O.co2     1 3A31272     0.0000 
      4 C19        -2.0060   -3.8760   21.4890 C.3       1 3A31272     0.0000 
      5 O17        -1.0300   -2.8420   21.0860 O.3       1 3A31272     0.0000 
      6 C15         0.0240   -3.3490   20.3630 C.ar      1 3A31272     0.0000 
      7 C10         1.2810   -2.7170   20.4040 C.ar      1 3A31272     0.0000 
      8 C22        -0.1650   -4.5070   19.5810 C.ar      1 3A31272     0.0000 
      9 C8          0.8690   -5.0540   18.8410 C.ar      1 3A31272     0.0000 
     10 C4          2.1080   -4.4510   18.9040 C.ar      1 3A31272     0.0000 
     11 C3          2.3180   -3.2910   19.6700 C.ar      1 3A31272     0.0000 
     12 C1          3.6440   -2.9340   19.4740 C.2       1 3A31272     0.0000 
     13 N6          4.2350   -1.8370   19.9770 N.2       1 3A31272     0.0000 
     14 O23         5.5570   -1.5710   19.6830 O.3       1 3A31272     0.0000 
     15 C2          4.2430   -3.8460   18.6050 C.ar      1 3A31272     0.0000 
     16 C9          5.5150   -3.9250   18.0640 C.ar      1 3A31272     0.0000 
     17 C5          3.2800   -4.7880   18.2540 C.ar      1 3A31272     0.0000 
     18 C7          3.5780   -5.8390   17.3750 C.ar      1 3A31272     0.0000 
     19 C21         4.8720   -5.9330   16.8480 C.ar      1 3A31272     0.0000 
     20 C16         5.8300   -4.9620   17.1920 C.ar      1 3A31272     0.0000 
     21 O18         7.1020   -4.9720   16.7000 O.3       1 3A31272     0.0000 
     22 C20         7.3670   -5.9790   15.8070 C.3       1 3A31272     0.0000 
     23 C12         8.7820   -6.0440   15.1760 C.2       1 3A31272     0.0000 
     24 O25         9.6300   -5.1360   15.5110 O.co2     1 3A31272     0.0000 
     25 O13         8.9700   -7.0130   14.3740 O.co2     1 3A31272     0.0000 
     26 H          -2.0808   -4.6496   20.7397 H         1 3A31272     0.0000 
     27 H          -1.7430   -4.3040   22.4446 H         1 3A31272     0.0000 
     28 H           1.4202   -1.8788   20.9470 H         1 3A31272     0.0000 
     29 H          -1.1017   -4.9495   19.5674 H         1 3A31272     0.0000 
     30 H           0.7166   -5.8811   18.2651 H         1 3A31272     0.0000 
     31 H           6.2250   -3.2225   18.3036 H         1 3A31272     0.0000 
     32 H           2.8663   -6.5207   17.1251 H         1 3A31272     0.0000 
     33 H           5.1205   -6.6973   16.2203 H         1 3A31272     0.0000 
     34 H           6.6461   -5.9736   14.9265 H         1 3A31272     0.0000 
     35 H           7.1917   -7.0096   16.2566 H         1 3A31272     0.0000 
     36 H           5.8048   -0.8048   20.2760 H         1 3A31272     0.0000 
@<TRIPOS>BOND
     1    2    1 ar   
     2    3    2 ar   
     3    4    2 1    
     4    5    4 1    
     5   26    4 1    
     6   27    4 1    
     7    6    5 1    
     8    7    6 ar   
     9    8    6 ar   
    10   11    7 ar   
    11   28    7 1    
    12    9    8 ar   
    13   29    8 1    
    14   10    9 ar   
    15   30    9 1    
    16   11   10 ar   
    17   17   10 1    
    18   12   11 1    
    19   13   12 2    
    20   15   12 1    
    21   14   13 1    
    22   36   14 1    
    23   16   15 ar   
    24   17   15 ar   
    25   20   16 ar   
    26   31   16 1    
    27   18   17 ar   
    28   19   18 ar   
    29   32   18 1    
    30   20   19 ar   
    31   33   19 1    
    32   21   20 1    
    33   22   21 1    
    34   23   22 1    
    35   34   22 1    
    36   35   22 1    
    37   24   23 ar   
    38   25   23 ar   
@<TRIPOS>SUBSTRUCTURE
     1 3A31272     1 GROUP   
@<TRIPOS>SET

