#    Name: 2oxt_SAM_2_INTS_M
#    Modification time : Mon Mar 24 17:59:22 2014

@<TRIPOS>MOLECULE
2oxt_SAM_2_INTS_M
   66     0    12     0     0
SMALL
NO_CHARGES


@<TRIPOS>ATOM
      1 OD1       -28.9820  -22.8540   28.6495 O.co2     3 ASC3        0.0000 
      2 OD1       -29.3540  -21.6030   28.7630 O.co2    11 ASL3        0.0000 
      3 OD1       -28.6100  -24.1050   28.5360 O.co2     7 ASP3        0.0000 
      4 O         -28.9820  -22.8540   28.6495 O.2       1 ALC1        0.0000 
      5 O         -29.3540  -21.6030   28.7630 O.2       9 ALL1        0.0000 
      6 O         -28.6100  -24.1050   28.5360 O.2       5 ALP1        0.0000 
      7 CA        -29.0725  -21.8720   30.7275 C.3       4 GLC5        0.0000 
      8 CA        -28.2260  -20.8280   29.2580 C.3      12 GLL5        0.0000 
      9 CA        -29.9190  -22.9160   32.1970 C.3       8 GLP5        0.0000 
     10 CA        -27.2645  -22.7170   28.9995 C.3       4 GLC5        0.0000 
     11 CA        -26.3030  -24.6060   28.7410 C.3       8 GLP5        0.0000 
     12 N         -28.7640  -19.9230   32.5475 N.am      2 SEC2        0.0000 
     13 N         -28.1110  -19.6430   31.3460 N.am     10 SEL2        0.0000 
     14 N         -29.4170  -20.2030   33.7490 N.am      6 SEP2        0.0000 
     15 N         -30.6665  -18.3320   29.6785 N.am      2 SEC2        0.0000 
     16 N         -29.6310  -19.0330   29.9680 N.am     10 SEL2        0.0000 
     17 N         -31.7020  -17.6310   29.3890 N.am      6 SEP2        0.0000 
     18 N         -29.4645  -18.3185   31.3190 N.am      2 SEC2        0.0000 
     19 N         -29.2980  -17.6040   32.6700 N.am      6 SEP2        0.0000 
     20 CA        -26.3550  -22.8320   28.1440 C.3       4 GLC5        0.0000 
     21 CA        -26.4070  -21.0580   27.5470 C.3      12 GLL5        0.0000 
     22 CA        -23.5545  -23.2255   25.5740 C.3       4 GLC5        0.0000 
     23 CA        -24.3150  -21.3280   25.8150 C.3      12 GLL5        0.0000 
     24 CA        -22.7940  -25.1230   25.3330 C.3       8 GLP5        0.0000 
     25 CA        -22.0765  -20.8205   27.6140 C.3       4 GLC5        0.0000 
     26 CA        -23.2850  -20.2100   25.9530 C.3      12 GLL5        0.0000 
     27 CA        -20.8680  -21.4310   29.2750 C.3       8 GLP5        0.0000 
     28 CA        -22.0940  -22.0625   26.2265 C.3       4 GLC5        0.0000 
     29 CA        -20.9030  -23.9150   26.5000 C.3       8 GLP5        0.0000 
     30 CA        -24.6300  -17.5140   24.4615 C.3       4 GLC5        0.0000 
     31 CA        -23.3340  -19.3140   24.7390 C.3      12 GLL5        0.0000 
     32 CA        -25.9260  -15.7140   24.1840 C.3       8 GLP5        0.0000 
     33 N         -20.9630  -17.4720   22.8710 N.am      2 SEC2        0.0000 
     34 N         -21.5090  -17.9250   24.0110 N.am     10 SEL2        0.0000 
     35 N         -20.4170  -17.0190   21.7310 N.am      6 SEP2        0.0000 
     36 CA        -20.9870  -20.6425   27.3020 C.3       4 GLC5        0.0000 
     37 CA        -21.1060  -19.8540   25.3290 C.3      12 GLL5        0.0000 
     38 CA        -21.0045  -21.8845   25.9145 C.3       4 GLC5        0.0000 
     39 CA        -14.6350  -20.5970   26.2935 C.3       4 GLC5        0.0000 
     40 CA        -16.4580  -21.3200   25.2460 C.3      12 GLL5        0.0000 
     41 CA        -12.8120  -19.8740   27.3410 C.3       8 GLP5        0.0000 
     42 O         -14.2250  -21.9085   24.8955 O.2       1 ALC1        0.0000 
     43 O         -15.5570  -22.0450   24.5870 O.2       9 ALL1        0.0000 
     44 O         -12.8930  -21.7720   25.2040 O.2       5 ALP1        0.0000 
     45 N         -14.9640  -21.2700   27.2440 N.am      2 SEC2        0.0000 
     46 N         -16.0680  -20.6410   26.3840 N.am     10 SEL2        0.0000 
     47 N         -13.8600  -21.8990   28.1040 N.am      6 SEP2        0.0000 
     48 CA        -17.8185  -18.5915   28.1235 C.3       4 GLC5        0.0000 
     49 CA        -16.9850  -19.8830   27.0800 C.3      12 GLL5        0.0000 
     50 CA        -18.6520  -17.3000   29.1670 C.3       8 GLP5        0.0000 
     51 CA        -16.7575  -18.4930   25.7915 C.3       4 GLC5        0.0000 
     52 CA        -16.5300  -17.1030   24.5030 C.3       8 GLP5        0.0000 
     53 CA        -14.8985  -19.8785   27.2105 C.3       4 GLC5        0.0000 
     54 CA        -16.8060  -21.3395   28.0135 C.3       4 GLC5        0.0000 
     55 CA        -16.6270  -22.7960   28.9470 C.3       8 GLP5        0.0000 
     56 CA        -19.7755  -20.9490   27.3935 C.3       4 GLC5        0.0000 
     57 CA        -18.6830  -20.4670   25.5120 C.3      12 GLL5        0.0000 
     58 CA        -19.7785  -18.9575   26.7410 C.3       4 GLC5        0.0000 
     59 CA        -20.8740  -17.4480   27.9700 C.3       8 GLP5        0.0000 
     60 CA        -19.5673  -22.3835   25.8272 C.3       4 GLC5        0.0000 
     61 CA        -17.7800  -21.2370   24.7970 C.3      12 GLL5        0.0000 
     62 CA        -17.5680  -19.3114   24.3034 C.3       4 GLC5        0.0000 
     63 CA        -17.2350  -17.7500   23.3400 C.3       8 GLP5        0.0000 
     64 CA        -17.8990  -22.0584   26.7379 C.3       4 GLC5        0.0000 
     65 CA        -17.8970  -23.2440   28.2090 C.3       8 GLP5        0.0000 
     66 CA        -21.6425  -18.5530   26.5135 C.3       4 GLC5        0.0000 
@<TRIPOS>BOND
@<TRIPOS>SUBSTRUCTURE
     1 ALC1        4 GROUP        1 X    ALC  0     ROOT ALC X 1
     2 SEC2       12 GROUP        1 X    SEC  0     **** SEC X 2
     3 ASC3        1 GROUP        1 X    ASC  0     **** ASC X 3
     4 GLC5        7 GROUP        1 X    GLC  0     **** GLC X 6
     5 ALP1        6 GROUP        1 Y    ALP  0     ROOT ALP Y 8
     6 SEP2       14 GROUP        1 Y    SEP  0     **** SEP Y 9
     7 ASP3        3 GROUP        1 Y    ASP  0     **** ASP Y 10
     8 GLP5        9 GROUP        1 Y    GLP  0     **** GLP Y 13
     9 ALL1        5 GROUP        1 Z    ALL  0     ROOT ALL Z 15
    10 SEL2       13 GROUP        1 Z    SEL  0     **** SEL Z 16
    11 ASL3        2 GROUP        1 Z    ASL  0     **** ASL Z 17
    12 GLL5        8 GROUP        1 Z    GLL  0     **** GLL Z 20
@<TRIPOS>SET

