#    Name: 2oxt_SAM_2_ligand
#    Modification time : Mon Mar 24 17:59:22 2014

@<TRIPOS>MOLECULE
2oxt_SAM_2_ligand
   50    52     1     0     0
SMALL
NO_CHARGES


@<TRIPOS>ATOM
      1 N         -29.3540  -21.6030   28.7630 N.4       1 SAM300      0.0000 
      2 CA        -28.2260  -20.8280   29.2580 C.3       1 SAM300      0.0000 
      3 C         -28.6840  -19.7730   30.2530 C.2       1 SAM300      0.0000 
      4 O         -28.1110  -19.6430   31.3460 O.co2     1 SAM300      0.0000 
      5 OXT       -29.6310  -19.0330   29.9680 O.co2     1 SAM300      0.0000 
      6 CB        -27.5030  -20.1660   28.0960 C.3       1 SAM300      0.0000 
      7 CG        -26.4070  -21.0580   27.5470 C.3       1 SAM300      0.0000 
      8 SD        -26.0000  -20.6610   25.8350 S.3       1 SAM300      0.0000 
      9 CE        -26.9440  -21.9160   24.9210 C.3       1 SAM300      0.0000 
     10 C5'       -24.3150  -21.3280   25.8150 C.3       1 SAM300      0.0000 
     11 C4'       -23.2850  -20.2100   25.9530 C.3       1 SAM300      0.0000 
     12 O4'       -21.9700  -20.7100   26.0300 O.3       1 SAM300      0.0000 
     13 C3'       -23.3340  -19.3140   24.7390 C.3       1 SAM300      0.0000 
     14 O3'       -23.7680  -18.0620   25.1880 O.3       1 SAM300      0.0000 
     15 C2'       -21.9190  -19.2540   24.2070 C.3       1 SAM300      0.0000 
     16 O2'       -21.5090  -17.9250   24.0110 O.3       1 SAM300      0.0000 
     17 C1'       -21.1060  -19.8540   25.3290 C.3       1 SAM300      0.0000 
     18 N9        -19.8920  -20.5430   24.8710 N.pl3     1 SAM300      0.0000 
     19 C8        -19.7340  -21.3460   23.7760 C.2       1 SAM300      0.0000 
     20 N7        -18.4460  -21.7680   23.7330 N.2       1 SAM300      0.0000 
     21 C5        -17.7800  -21.2370   24.7970 C.ar      1 SAM300      0.0000 
     22 C6        -16.4580  -21.3200   25.2460 C.ar      1 SAM300      0.0000 
     23 N6        -15.5570  -22.0450   24.5870 N.pl3     1 SAM300      0.0000 
     24 N1        -16.0680  -20.6410   26.3840 N.ar      1 SAM300      0.0000 
     25 C2        -16.9850  -19.8830   27.0800 C.ar      1 SAM300      0.0000 
     26 N3        -18.2870  -19.8060   26.6270 N.ar      1 SAM300      0.0000 
     27 C4        -18.6830  -20.4670   25.5120 C.ar      1 SAM300      0.0000 
     28 H         -27.5167  -21.4805   29.7617 H         1 SAM300      0.0000 
     29 H         -27.0669  -19.2225   28.4346 H         1 SAM300      0.0000 
     30 H         -28.2227  -19.9462   27.3031 H         1 SAM300      0.0000 
     31 H         -26.6842  -22.0925   27.4840 H         1 SAM300      0.0000 
     32 H         -25.4633  -20.9360   28.0424 H         1 SAM300      0.0000 
     33 H         -24.2783  -21.8297   24.8760 H         1 SAM300      0.0000 
     34 H         -24.3261  -22.0033   26.6388 H         1 SAM300      0.0000 
     35 H         -23.5352  -19.6134   26.8143 H         1 SAM300      0.0000 
     36 H         -23.9674  -19.7551   24.0211 H         1 SAM300      0.0000 
     37 H         -21.8388  -19.8708   23.3628 H         1 SAM300      0.0000 
     38 H         -20.8168  -19.0137   25.9862 H         1 SAM300      0.0000 
     39 H         -20.4247  -21.5703   23.1455 H         1 SAM300      0.0000 
     40 H         -14.6165  -21.7061   24.6113 H         1 SAM300      0.0000 
     41 H         -15.9018  -22.8632   24.1270 H         1 SAM300      0.0000 
     42 H         -16.7026  -19.3782   27.9304 H         1 SAM300      0.0000 
     43 H         -30.2179  -21.3000   29.1654 H         1 SAM300      0.0000 
     44 H         -29.4502  -21.5265   27.7706 H         1 SAM300      0.0000 
     45 H         -29.2574  -22.5757   28.9741 H         1 SAM300      0.0000 
     46 H         -26.7428  -21.8919   23.9418 H         1 SAM300      0.0000 
     47 H         -26.7378  -22.8411   25.2399 H         1 SAM300      0.0000 
     48 H         -27.9303  -21.7846   25.0209 H         1 SAM300      0.0000 
     49 H         -24.4917  -17.7955   24.5514 H         1 SAM300      0.0000 
     50 H         -22.3280  -17.3749   24.1740 H         1 SAM300      0.0000 
@<TRIPOS>BOND
     1    2    1 1    
     2   43    1 1    
     3   44    1 1    
     4   45    1 1    
     5    3    2 1    
     6    6    2 1    
     7   28    2 1    
     8    4    3 ar   
     9    5    3 ar   
    10    7    6 1    
    11   29    6 1    
    12   30    6 1    
    13    8    7 1    
    14   31    7 1    
    15   32    7 1    
    16    9    8 1    
    17   10    8 1    
    18   46    9 1    
    19   47    9 1    
    20   48    9 1    
    21   11   10 1    
    22   33   10 1    
    23   34   10 1    
    24   12   11 1    
    25   13   11 1    
    26   35   11 1    
    27   17   12 1    
    28   14   13 1    
    29   15   13 1    
    30   36   13 1    
    31   49   14 1    
    32   16   15 1    
    33   17   15 1    
    34   37   15 1    
    35   50   16 1    
    36   18   17 1    
    37   38   17 1    
    38   19   18 1    
    39   27   18 1    
    40   20   19 2    
    41   39   19 1    
    42   21   20 1    
    43   22   21 ar   
    44   27   21 ar   
    45   23   22 1    
    46   24   22 ar   
    47   40   23 1    
    48   41   23 1    
    49   25   24 ar   
    50   26   25 ar   
    51   42   25 1    
    52   27   26 ar   
@<TRIPOS>SUBSTRUCTURE
     1 SAM300      1 GROUP   
@<TRIPOS>SET

