#    Name: 3TLB_2_CAVITY_N1_ALL.mol2
#    Modification time : Tue Mar 11 04:15:33 2014

@<TRIPOS>MOLECULE
3TLB_2_CAVITY_N1_ALL.mol2
  124     0     7     0     0
SMALL
NO_CHARGES


@<TRIPOS>ATOM
      1 CA         38.0989   59.2196   44.6760 C.3       6 GLY6        0.0000 
      2 CA         38.0712   58.1917   45.7680 C.3       6 GLY6        0.0000 
      3 CA         36.6198   57.5250   47.1641 C.3       6 GLY6        0.0000 
      4 CZ         38.0435   57.1637   46.8601 C.ar      5 PHE5        0.0000 
      5 N          36.5921   56.4970   48.2561 N.2       2 ALA2        0.0000 
      6 CZ         38.0158   56.1357   47.9521 C.ar      5 PHE5        0.0000 
      7 OD1        36.5644   55.4690   49.3481 O.3       3 ASP3        0.0000 
      8 CZ         37.9881   55.1077   49.0441 C.ar      5 PHE5        0.0000 
      9 OG         37.5998   57.1608   44.7857 O.2       1 SER1        0.0000 
     10 CZ         39.0236   56.7995   44.4817 C.ar      5 PHE5        0.0000 
     11 CZ         40.4473   56.4382   44.1777 C.ar      5 PHE5        0.0000 
     12 O          36.1484   56.4941   46.1817 O.2       2 ALA2        0.0000 
     13 O          37.5721   56.1328   45.8777 O.2       2 ALA2        0.0000 
     14 CZ         38.9959   55.7715   45.5737 C.ar      5 PHE5        0.0000 
     15 NZ         36.1207   55.4661   47.2737 N.2       4 LYS4        0.0000 
     16 CZ         37.5444   55.1048   46.9697 C.ar      5 PHE5        0.0000 
     17 CZ         38.9682   54.7435   46.6657 C.ar      5 PHE5        0.0000 
     18 NZ         36.0930   54.4382   48.3657 N.2       4 LYS4        0.0000 
     19 NZ         37.5167   54.0769   48.0617 N.2       4 LYS4        0.0000 
     20 CZ         38.9405   53.7156   47.7577 C.ar      5 PHE5        0.0000 
     21 N          37.4891   53.0489   49.1537 N.2       2 ALA2        0.0000 
     22 N          38.9128   52.6876   48.8497 N.2       2 ALA2        0.0000 
     23 O          38.5245   54.7406   44.5913 O.2       2 ALA2        0.0000 
     24 CZ         39.9483   54.3793   44.2873 C.ar      5 PHE5        0.0000 
     25 NZ         37.0731   54.0739   45.9873 N.2       4 LYS4        0.0000 
     26 CZ         38.4968   53.7126   45.6833 C.ar      5 PHE5        0.0000 
     27 CZ         39.9206   53.3513   45.3793 C.ar      5 PHE5        0.0000 
     28 NZ         37.0454   53.0460   47.0793 N.2       4 LYS4        0.0000 
     29 CZ         38.4691   52.6847   46.7753 C.ar      5 PHE5        0.0000 
     30 CZ         39.8929   52.3234   46.4713 C.ar      5 PHE5        0.0000 
     31 NZ         37.0177   52.0180   48.1714 N.2       4 LYS4        0.0000 
     32 OG         38.4414   51.6567   47.8674 O.2       1 SER1        0.0000 
     33 O          38.0532   53.7097   43.6089 O.2       2 ALA2        0.0000 
     34 DU         39.4769   53.3484   43.3049 H         7 CUB7        0.0000 
     35 CA         40.9006   52.9871   43.0009 C.3       6 GLY6        0.0000 
     36 CA         42.3244   52.6258   42.6969 C.3       6 GLY6        0.0000 
     37 NZ         36.6017   53.0430   45.0049 N.2       4 LYS4        0.0000 
     38 DU         38.0255   52.6817   44.7009 H         7 CUB7        0.0000 
     39 DU         39.4492   52.3204   44.3969 H         7 CUB7        0.0000 
     40 CA         40.8729   51.9591   44.0929 C.3       6 GLY6        0.0000 
     41 NZ         37.9978   51.6538   45.7930 N.2       4 LYS4        0.0000 
     42 DU         39.4215   51.2925   45.4890 H         7 CUB7        0.0000 
     43 CA         40.8453   50.9312   45.1850 C.3       6 GLY6        0.0000 
     44 CA         37.9701   50.6258   46.8850 C.3       6 GLY6        0.0000 
     45 OG         39.3938   50.2645   46.5810 O.2       1 SER1        0.0000 
     46 OG         40.8176   49.9032   46.2770 O.2       1 SER1        0.0000 
     47 CA         43.3045   52.2616   40.3185 C.3       6 GLY6        0.0000 
     48 O          37.5818   52.6788   42.6265 O.2       2 ALA2        0.0000 
     49 DU         39.0055   52.3175   42.3225 H         7 CUB7        0.0000 
     50 DU         40.4293   51.9562   42.0185 H         7 CUB7        0.0000 
     51 CA         41.8530   51.5949   41.7145 C.3       6 GLY6        0.0000 
     52 CA         43.2768   51.2336   41.4105 C.3       6 GLY6        0.0000 
     53 O          37.5541   51.6508   43.7185 O.2       2 ALA2        0.0000 
     54 DU         38.9778   51.2895   43.4145 H         7 CUB7        0.0000 
     55 DU         40.4016   50.9282   43.1105 H         7 CUB7        0.0000 
     56 CA         41.8253   50.5670   42.8066 C.3       6 GLY6        0.0000 
     57 CA         43.2491   50.2057   42.5026 C.3       6 GLY6        0.0000 
     58 CA         37.5264   50.6229   44.8106 C.3       6 GLY6        0.0000 
     59 CA         38.9501   50.2616   44.5066 C.3       6 GLY6        0.0000 
     60 DU         40.3739   49.9003   44.2026 H         7 CUB7        0.0000 
     61 CA         41.7976   49.5390   43.8986 C.3       6 GLY6        0.0000 
     62 CA         38.9224   49.2336   45.5986 C.3       6 GLY6        0.0000 
     63 OG         40.3462   48.8723   45.2946 O.2       1 SER1        0.0000 
     64 O          41.7699   48.5110   44.9906 O.2       2 ALA2        0.0000 
     65 CA         42.8331   51.2307   39.3361 C.3       6 GLY6        0.0000 
     66 CA         37.1104   51.6479   41.6441 C.3       6 GLY6        0.0000 
     67 DU         38.5342   51.2866   41.3401 H         7 CUB7        0.0000 
     68 CA         41.3817   50.5640   40.7321 C.3       6 GLY6        0.0000 
     69 CA         42.8054   50.2027   40.4281 C.3       6 GLY6        0.0000 
     70 OG         37.0827   50.6200   42.7362 O.2       1 SER1        0.0000 
     71 DU         38.5065   50.2587   42.4322 H         7 CUB7        0.0000 
     72 DU         39.9302   49.8974   42.1282 H         7 CUB7        0.0000 
     73 O          41.3540   49.5361   41.8242 O.2       2 ALA2        0.0000 
     74 CA         38.4788   49.2307   43.5242 C.3       6 GLY6        0.0000 
     75 N          39.9025   48.8694   43.2202 N.2       2 ALA2        0.0000 
     76 O          41.3263   48.5081   42.9162 O.2       2 ALA2        0.0000 
     77 OG         39.8748   47.8414   44.3122 O.2       1 SER1        0.0000 
     78 O          41.2986   47.4801   44.0082 O.2       2 ALA2        0.0000 
     79 CA         36.6391   50.6170   40.6618 C.3       6 GLY6        0.0000 
     80 DU         39.4865   49.8944   40.0538 H         7 CUB7        0.0000 
     81 CA         40.9103   49.5331   39.7498 C.3       6 GLY6        0.0000 
     82 OG         36.6114   49.5891   41.7538 O.2       1 SER1        0.0000 
     83 DU         38.0351   49.2278   41.4498 H         7 CUB7        0.0000 
     84 DU         39.4589   48.8665   41.1458 H         7 CUB7        0.0000 
     85 O          40.8826   48.5052   40.8418 O.2       2 ALA2        0.0000 
     86 N          36.5837   48.5611   42.8458 N.2       2 ALA2        0.0000 
     87 N          38.0074   48.1998   42.5418 N.2       2 ALA2        0.0000 
     88 N          39.4312   47.8385   42.2378 N.2       2 ALA2        0.0000 
     89 O          40.8549   47.4772   41.9338 O.2       2 ALA2        0.0000 
     90 CA         34.7440   49.9474   39.9834 C.3       6 GLY6        0.0000 
     91 DU         36.1677   49.5861   39.6794 H         7 CUB7        0.0000 
     92 DU         37.5914   49.2248   39.3754 H         7 CUB7        0.0000 
     93 N          39.0152   48.8635   39.0714 N.2       2 ALA2        0.0000 
     94 N          34.7163   48.9195   41.0754 N.2       2 ALA2        0.0000 
     95 OG         36.1400   48.5582   40.7714 O.2       1 SER1        0.0000 
     96 DU         37.5637   48.1969   40.4674 H         7 CUB7        0.0000 
     97 N          38.9875   47.8356   40.1634 N.2       2 ALA2        0.0000 
     98 N          36.1123   47.5302   41.8634 N.2       2 ALA2        0.0000 
     99 N          37.5360   47.1689   41.5594 N.2       2 ALA2        0.0000 
    100 N          38.9598   46.8076   41.2554 N.2       2 ALA2        0.0000 
    101 N          34.2726   48.9165   39.0010 N.2       2 ALA2        0.0000 
    102 OD1        35.6963   48.5552   38.6970 O.3       3 ASP3        0.0000 
    103 DU         37.1201   48.1939   38.3930 H         7 CUB7        0.0000 
    104 N          38.5438   47.8326   38.0890 N.2       2 ALA2        0.0000 
    105 OD1        35.6686   47.5273   39.7890 O.3       3 ASP3        0.0000 
    106 OD1        37.0924   47.1660   39.4850 O.3       3 ASP3        0.0000 
    107 N          38.5161   46.8047   39.1810 N.2       2 ALA2        0.0000 
    108 N          35.6409   46.4993   40.8810 N.2       2 ALA2        0.0000 
    109 DU         37.0647   46.1380   40.5770 H         7 CUB7        0.0000 
    110 N          38.4884   45.7767   40.2730 N.2       2 ALA2        0.0000 
    111 O          35.6132   45.4713   41.9731 O.2       2 ALA2        0.0000 
    112 O          37.0370   45.1100   41.6691 O.2       2 ALA2        0.0000 
    113 OD1        36.6487   47.1631   37.4106 O.3       3 ASP3        0.0000 
    114 NZ         38.0725   46.8018   37.1066 N.2       4 LYS4        0.0000 
    115 OD1        36.6210   46.1351   38.5026 O.3       3 ASP3        0.0000 
    116 N          38.0448   45.7738   38.1986 N.2       2 ALA2        0.0000 
    117 OD1        35.1696   45.4684   39.8987 O.3       3 ASP3        0.0000 
    118 OD1        36.5933   45.1071   39.5947 O.3       3 ASP3        0.0000 
    119 N          38.0171   44.7458   39.2907 N.2       2 ALA2        0.0000 
    120 OD1        36.2050   47.1601   35.3362 O.3       3 ASP3        0.0000 
    121 OD1        36.1773   46.1322   36.4282 O.3       3 ASP3        0.0000 
    122 O          37.5734   44.7429   37.2163 O.2       2 ALA2        0.0000 
    123 NZ         38.9971   44.3816   36.9123 N.2       4 LYS4        0.0000 
    124 O          37.5457   43.7149   38.3083 O.2       2 ALA2        0.0000 
@<TRIPOS>BOND
@<TRIPOS>SUBSTRUCTURE
     1 SER1        9 GROUP   
     2 ALA2        5 GROUP   
     3 ASP3        7 GROUP   
     4 LYS4       15 GROUP   
     5 PHE5        4 GROUP   
     6 GLY6        1 GROUP   
     7 CUB7       34 GROUP   
@<TRIPOS>SET

