#    Name: 3tlb_DSZ_2_INTS_M
#    Modification time : Mon Mar 24 20:18:18 2014

@<TRIPOS>MOLECULE
3tlb_DSZ_2_INTS_M
   57     0    12     0     0
SMALL
NO_CHARGES


@<TRIPOS>ATOM
      1 O          36.9905   47.0200   43.2275 O.2       1 ALC1        0.0000 
      2 O          37.0480   47.2720   41.6160 O.2       9 ALL1        0.0000 
      3 O          36.9330   46.7680   44.8390 O.2       5 ALP1        0.0000 
      4 N          41.7220   46.5230   41.2580 N.am      2 SEC2        0.0000 
      5 N          40.4520   46.2220   41.7100 N.am     10 SEL2        0.0000 
      6 N          42.9920   46.8240   40.8060 N.am      6 SEP2        0.0000 
      7 N          40.6015   44.7275   42.1860 N.am      2 SEC2        0.0000 
      8 N          40.7510   43.2330   42.6620 N.am      6 SEP2        0.0000 
      9 CA         35.7890   57.9935   45.1470 C.3       4 GLC5        0.0000 
     10 CA         37.9810   57.7250   45.0850 C.3      12 GLL5        0.0000 
     11 CA         33.5970   58.2620   45.2090 C.3       8 GLP5        0.0000 
     12 CA         39.2005   58.6860   46.0245 C.3       4 GLC5        0.0000 
     13 CA         40.4200   59.6470   46.9640 C.3       8 GLP5        0.0000 
     14 CA         40.0110   58.6895   45.1750 C.3       4 GLC5        0.0000 
     15 CA         39.6020   57.7320   43.3860 C.3      12 GLL5        0.0000 
     16 CA         38.9355   45.5665   43.0120 C.3       4 GLC5        0.0000 
     17 CA         38.1020   46.2810   41.5110 C.3      12 GLL5        0.0000 
     18 CA         39.7690   44.8520   44.5130 C.3       8 GLP5        0.0000 
     19 CA         40.1060   54.2360   46.5440 C.3       4 GLC5        0.0000 
     20 CA         38.9380   53.4010   45.4690 C.3      12 GLL5        0.0000 
     21 CA         41.2740   55.0710   47.6190 C.3       8 GLP5        0.0000 
     22 N          35.5505   53.3975   43.9445 N.am      2 SEC2        0.0000 
     23 N          36.5580   53.2550   45.0370 N.am     10 SEL2        0.0000 
     24 N          34.5430   53.5400   42.8520 N.am      6 SEP2        0.0000 
     25 N          35.7980   54.3670   44.5090 N.am      2 SEC2        0.0000 
     26 N          35.0380   55.4790   43.9810 N.am      6 SEP2        0.0000 
     27 N          35.5200   53.0025   45.9175 N.am      2 SEC2        0.0000 
     28 N          34.4820   52.7500   46.7980 N.am      6 SEP2        0.0000 
     29 N          35.6895   51.8715   46.5430 N.am      2 SEC2        0.0000 
     30 N          36.8970   50.9930   46.2880 N.am     10 SEL2        0.0000 
     31 O          35.6085   50.9540   45.9540 O.2       1 ALC1        0.0000 
     32 O          36.8970   50.9930   46.2880 O.2       9 ALL1        0.0000 
     33 O          34.3200   50.9150   45.6200 O.2       5 ALP1        0.0000 
     34 CA         42.2270   50.1075   45.2070 C.3       4 GLC5        0.0000 
     35 CA         40.1390   50.0180   45.5220 C.3      12 GLL5        0.0000 
     36 CA         44.3150   50.1970   44.8920 C.3       8 GLP5        0.0000 
     37 CA         39.9880   48.6755   47.2130 C.3       4 GLC5        0.0000 
     38 CA         39.8370   47.3330   48.9040 C.3       8 GLP5        0.0000 
     39 N          42.8230   47.4925   44.1145 N.am      2 SEC2        0.0000 
     40 N          41.3800   47.8270   44.1500 N.am     10 SEL2        0.0000 
     41 N          44.2660   47.1580   44.0790 N.am      6 SEP2        0.0000 
     42 NZ         34.7935   45.6875   38.7910 N.4       3 LYC4        0.0000 
     43 NZ         35.8800   45.1860   39.8970 N.4      11 LYL4        0.0000 
     44 NZ         33.7070   46.1890   37.6850 N.4       7 LYP4        0.0000 
     45 N          34.7935   45.6875   38.7910 N.am      2 SEC2        0.0000 
     46 N          35.8800   45.1860   39.8970 N.am     10 SEL2        0.0000 
     47 N          33.7070   46.1890   37.6850 N.am      6 SEP2        0.0000 
     48 N          34.7895   44.8015   40.6550 N.am      2 SEC2        0.0000 
     49 N          33.6990   44.4170   41.4130 N.am      6 SEP2        0.0000 
     50 N          36.2275   43.5155   37.9085 N.am      2 SEC2        0.0000 
     51 N          37.3520   43.8010   39.0490 N.am     10 SEL2        0.0000 
     52 N          35.1030   43.2300   36.7680 N.am      6 SEP2        0.0000 
     53 CA         40.7922   50.8825   47.3820 C.3       4 GLC5        0.0000 
     54 CA         39.2780   51.1720   46.0220 C.3      12 GLL5        0.0000 
     55 CA         41.8760   51.1700   48.9920 C.3       8 GLP5        0.0000 
     56 CA         37.9835   49.2499   45.5791 C.3       4 GLC5        0.0000 
     57 CA         36.5970   47.8880   45.5600 C.3       8 GLP5        0.0000 
@<TRIPOS>BOND
@<TRIPOS>SUBSTRUCTURE
     1 ALC1        1 GROUP        1 X    ALC  0     ROOT ALC X 1
     2 SEC2        4 GROUP        1 X    SEC  0     **** SEC X 2
     3 LYC4       42 GROUP        1 X    LYC  0     **** LYC X 4
     4 GLC5        9 GROUP        1 X    GLC  0     **** GLC X 6
     5 ALP1        3 GROUP        1 Y    ALP  0     ROOT ALP Y 8
     6 SEP2        6 GROUP        1 Y    SEP  0     **** SEP Y 9
     7 LYP4       44 GROUP        1 Y    LYP  0     **** LYP Y 11
     8 GLP5       11 GROUP        1 Y    GLP  0     **** GLP Y 13
     9 ALL1        2 GROUP        1 Z    ALL  0     ROOT ALL Z 15
    10 SEL2        5 GROUP        1 Z    SEL  0     **** SEL Z 16
    11 LYL4       43 GROUP        1 Z    LYL  0     **** LYL Z 18
    12 GLL5       10 GROUP        1 Z    GLL  0     **** GLL Z 20
@<TRIPOS>SET

