#    Name: 3tlb_DSZ_2_ligand
#    Modification time : Mon Mar 24 20:18:18 2014

@<TRIPOS>MOLECULE
3tlb_DSZ_2_ligand
   50    52     1     0     0
SMALL
NO_CHARGES


@<TRIPOS>ATOM
      1 C          39.4290   46.8360   41.9830 C.2       1 DSZ400      0.0000 
      2 N          37.0480   47.2720   41.6160 N.4       1 DSZ400      0.0000 
      3 O          40.4520   46.2220   41.7100 O.2       1 DSZ400      0.0000 
      4 N1         38.6820   58.3770   44.1420 N.ar      1 DSZ400      0.0000 
      5 C2         37.9810   57.7250   45.0850 C.ar      1 DSZ400      0.0000 
      6 N3         38.1780   56.4150   45.3030 N.ar      1 DSZ400      0.0000 
      7 C4         39.0910   55.7240   44.5690 C.ar      1 DSZ400      0.0000 
      8 C5         39.8230   56.3750   43.5890 C.ar      1 DSZ400      0.0000 
      9 C6         39.6020   57.7320   43.3860 C.ar      1 DSZ400      0.0000 
     10 N6         40.2990   58.4040   42.4390 N.pl3     1 DSZ400      0.0000 
     11 N7         40.6430   55.4670   43.0230 N.2       1 DSZ400      0.0000 
     12 C8         40.4230   54.2810   43.6330 C.2       1 DSZ400      0.0000 
     13 N9         39.4790   54.4460   44.5720 N.pl3     1 DSZ400      0.0000 
     14 CA         38.1020   46.2810   41.5110 C.3       1 DSZ400      0.0000 
     15 CB         38.1980   45.7890   40.0610 C.3       1 DSZ400      0.0000 
     16 CG         37.0650   44.8640   39.6500 C.2       1 DSZ400      0.0000 
     17 C1'        38.9380   53.4010   45.4690 C.3       1 DSZ400      0.0000 
     18 C2'        37.8240   52.6460   44.7680 C.3       1 DSZ400      0.0000 
     19 O2'        36.5580   53.2550   45.0370 O.3       1 DSZ400      0.0000 
     20 C3'        37.9240   51.2390   45.3270 C.3       1 DSZ400      0.0000 
     21 O3'        36.8970   50.9930   46.2880 O.3       1 DSZ400      0.0000 
     22 C4'        39.2780   51.1720   46.0220 C.3       1 DSZ400      0.0000 
     23 O4'        39.9280   52.4230   45.7890 O.3       1 DSZ400      0.0000 
     24 C5'        40.1390   50.0180   45.5220 C.3       1 DSZ400      0.0000 
     25 O5'        40.1880   50.0250   44.0970 O.3       1 DSZ400      0.0000 
     26 NAT        39.4060   47.9750   42.7040 N.am      1 DSZ400      0.0000 
     27 OAX        41.4860   49.1150   42.1880 O.2       1 DSZ400      0.0000 
     28 OAY        41.3800   47.8270   44.1500 O.2       1 DSZ400      0.0000 
     29 SBE        40.6400   48.6900   43.2720 S.o2      1 DSZ400      0.0000 
     30 OD1        35.8800   45.1860   39.8970 O.co2     1 DSZ400      0.0000 
     31 OD2        37.3520   43.8010   39.0490 O.co2     1 DSZ400      0.0000 
     32 H          37.2723   58.2457   45.6567 H         1 DSZ400      0.0000 
     33 H          40.9862   57.8756   41.9406 H         1 DSZ400      0.0000 
     34 H          40.0647   59.3691   42.3221 H         1 DSZ400      0.0000 
     35 H          40.8761   53.4505   43.4223 H         1 DSZ400      0.0000 
     36 H          37.8561   45.4135   42.1286 H         1 DSZ400      0.0000 
     37 H          39.1593   45.2664   39.9291 H         1 DSZ400      0.0000 
     38 H          38.2126   46.6647   39.3920 H         1 DSZ400      0.0000 
     39 H          38.5288   53.8409   46.3553 H         1 DSZ400      0.0000 
     40 H          38.0597   52.6104   43.7256 H         1 DSZ400      0.0000 
     41 H          37.9237   50.5457   44.5270 H         1 DSZ400      0.0000 
     42 H          39.0982   51.0368   47.0838 H         1 DSZ400      0.0000 
     43 H          39.7075   49.0854   45.9094 H         1 DSZ400      0.0000 
     44 H          41.1383   50.1294   45.9638 H         1 DSZ400      0.0000 
     45 H          38.5055   48.4699   42.9350 H         1 DSZ400      0.0000 
     46 H          36.9236   47.5834   42.5581 H         1 DSZ400      0.0000 
     47 H          37.2433   48.0819   41.0629 H         1 DSZ400      0.0000 
     48 H          36.1675   46.9118   41.3076 H         1 DSZ400      0.0000 
     49 H          36.7460   53.9446   45.7364 H         1 DSZ400      0.0000 
     50 H          36.1074   50.6939   45.7521 H         1 DSZ400      0.0000 
@<TRIPOS>BOND
     1    3    1 2    
     2   14    1 1    
     3   26    1 am   
     4   14    2 1    
     5   46    2 1    
     6   47    2 1    
     7   48    2 1    
     8    5    4 ar   
     9    9    4 ar   
    10    6    5 ar   
    11   32    5 1    
    12    7    6 ar   
    13    8    7 ar   
    14   13    7 1    
    15    9    8 ar   
    16   11    8 1    
    17   10    9 1    
    18   33   10 1    
    19   34   10 1    
    20   12   11 2    
    21   13   12 1    
    22   35   12 1    
    23   17   13 1    
    24   15   14 1    
    25   36   14 1    
    26   16   15 1    
    27   37   15 1    
    28   38   15 1    
    29   30   16 ar   
    30   31   16 ar   
    31   18   17 1    
    32   23   17 1    
    33   39   17 1    
    34   19   18 1    
    35   20   18 1    
    36   40   18 1    
    37   49   19 1    
    38   21   20 1    
    39   22   20 1    
    40   41   20 1    
    41   50   21 1    
    42   23   22 1    
    43   24   22 1    
    44   42   22 1    
    45   25   24 1    
    46   43   24 1    
    47   44   24 1    
    48   29   25 1    
    49   29   26 1    
    50   45   26 1    
    51   29   27 2    
    52   29   28 2    
@<TRIPOS>SUBSTRUCTURE
     1 DSZ400      1 GROUP   
@<TRIPOS>SET

