#    Name: 2jav_5Z5_1_INTS_M
#    Modification time : Tue Mar 25 19:51:08 2014

@<TRIPOS>MOLECULE
2jav_5Z5_1_INTS_M
   54     0     9     0     0
SMALL
NO_CHARGES


@<TRIPOS>ATOM
      1 CA         -6.1215   11.5350   18.7065 C.3       3 GLC5        0.0000 
      2 CA         -4.3340   12.6440   18.9990 C.3       9 GLL5        0.0000 
      3 CA         -7.9090   10.4260   18.4140 C.3       6 GLP5        0.0000 
      4 CA         -2.2910   12.1580   18.6845 C.3       3 GLC5        0.0000 
      5 CA         -0.2480   11.6720   18.3700 C.3       6 GLP5        0.0000 
      6 CA         -6.5425    7.4045   22.2050 C.3       3 GLC5        0.0000 
      7 CA         -6.3210    9.2860   22.3870 C.3       9 GLL5        0.0000 
      8 CA         -6.7640    5.5230   22.0230 C.3       6 GLP5        0.0000 
      9 CA         -5.3615    8.0565   23.8645 C.3       3 GLC5        0.0000 
     10 CA         -4.4020    6.8270   25.3420 C.3       6 GLP5        0.0000 
     11 CA          0.4450   10.7045   15.6475 C.3       3 GLC5        0.0000 
     12 CA          0.2570    9.6930   13.9970 C.3       9 GLL5        0.0000 
     13 CA          0.6330   11.7160   17.2980 C.3       6 GLP5        0.0000 
     14 CA         -0.6410   10.2915   12.1115 C.3       3 GLC5        0.0000 
     15 CA         -1.5390   10.8900   10.2260 C.3       6 GLP5        0.0000 
     16 CA         -0.3635    5.5160   14.1715 C.3       3 GLC5        0.0000 
     17 CA         -0.1450    7.2880   15.1620 C.3       9 GLL5        0.0000 
     18 CA         -0.5820    3.7440   13.1810 C.3       6 GLP5        0.0000 
     19 CA          0.6220    6.9040   13.2155 C.3       3 GLC5        0.0000 
     20 CA          1.3890    6.5200   11.2690 C.3       6 GLP5        0.0000 
     21 CA         -0.8140    4.8225   15.3435 C.3       3 GLC5        0.0000 
     22 CA         -0.7260    6.4570   16.1210 C.3       9 GLL5        0.0000 
     23 CA         -0.9020    3.1880   14.5660 C.3       6 GLP5        0.0000 
     24 CA         -0.5735    6.6025   19.0290 C.3       3 GLC5        0.0000 
     25 CA         -1.5950    6.9690   17.0700 C.3       9 GLL5        0.0000 
     26 CA          0.4480    6.2360   20.9880 C.3       6 GLP5        0.0000 
     27 O          -1.9070    5.0505   18.1625 O.2       1 ALC1        0.0000 
     28 O          -2.2610    6.3800   18.0620 O.2       7 ALL1        0.0000 
     29 O          -1.5530    3.7210   18.2630 O.2       4 ALP1        0.0000 
     30 N          -3.0905    6.1615   20.6490 N.am      2 SEC2        0.0000 
     31 N          -3.6930    7.0020   19.6710 N.am      8 SEL2        0.0000 
     32 N          -2.4880    5.3210   21.6270 N.am      5 SEP2        0.0000 
     33 CA         -6.9198   10.0143   20.1145 C.3       3 GLC5        0.0000 
     34 CA         -5.5400    9.9190   21.2430 C.3       9 GLL5        0.0000 
     35 CA         -4.4008   10.6348   22.5000 C.3       3 GLC5        0.0000 
     36 CA         -2.8710   11.6670   23.1850 C.3       6 GLP5        0.0000 
     37 CA         -6.2804   10.5520   19.1716 C.3       3 GLC5        0.0000 
     38 CA         -4.6760   11.3460   19.7890 C.3       9 GLL5        0.0000 
     39 CA         -3.7614   11.1725   21.5571 C.3       3 GLC5        0.0000 
     40 CA         -5.5290   11.2540   20.8880 C.3       9 GLL5        0.0000 
     41 CA         -1.6528   10.4200   18.3320 C.3       3 GLC5        0.0000 
     42 CA         -3.3250    9.7960   18.4630 C.3       9 GLL5        0.0000 
     43 CA         -2.4565    8.4880   14.8062 C.3       3 GLC5        0.0000 
     44 CA         -1.9060    8.3320   17.0720 C.3       9 GLL5        0.0000 
     45 CA         -3.2950    8.2250   13.0170 C.3       6 GLP5        0.0000 
     46 CA         -1.6957    8.6975   13.8010 C.3       3 GLC5        0.0000 
     47 CA         -0.4500    8.6470   15.1730 C.3       9 GLL5        0.0000 
     48 CA          0.5543    9.0730   12.8345 C.3       3 GLC5        0.0000 
     49 CA          1.2050    8.9760   11.0840 C.3       6 GLP5        0.0000 
     50 CA         -1.8653    7.5488   14.3293 C.3       3 GLC5        0.0000 
     51 CA         -2.6732    5.6000   16.2252 C.3       3 GLC5        0.0000 
     52 CA         -4.1860    4.4870   15.8550 C.3       6 GLP5        0.0000 
     53 CA          0.6369    5.8934   16.6839 C.3       3 GLC5        0.0000 
     54 CA          2.2890    4.8660   17.0120 C.3       6 GLP5        0.0000 
@<TRIPOS>BOND
@<TRIPOS>SUBSTRUCTURE
     1 ALC1       27 GROUP        1 X    ALC  0     ROOT ALC X 1
     2 SEC2       30 GROUP        1 X    SEC  0     **** SEC X 2
     3 GLC5        1 GROUP        1 X    GLC  0     **** GLC X 6
     4 ALP1       29 GROUP        1 Y    ALP  0     ROOT ALP Y 8
     5 SEP2       32 GROUP        1 Y    SEP  0     **** SEP Y 9
     6 GLP5        3 GROUP        1 Y    GLP  0     **** GLP Y 13
     7 ALL1       28 GROUP        1 Z    ALL  0     ROOT ALL Z 15
     8 SEL2       31 GROUP        1 Z    SEL  0     **** SEL Z 16
     9 GLL5        2 GROUP        1 Z    GLL  0     **** GLL Z 20
@<TRIPOS>SET

