#    Name: 2jav_5Z5_1_ligand
#    Modification time : Tue Mar 25 19:51:08 2014

@<TRIPOS>MOLECULE
2jav_5Z5_1_ligand
   39    41     1     0     0
SMALL
NO_CHARGES


@<TRIPOS>ATOM
      1 C17        -6.9010   14.7630   21.6830 C.3       1 5Z51280     0.0000 
      2 N3         -6.1930   13.5910   21.1130 N.am      1 5Z51280     0.0000 
      3 C16        -6.3350   12.3690   21.5950 C.2       1 5Z51280     0.0000 
      4 O2         -7.0540   12.1170   22.5630 O.2       1 5Z51280     0.0000 
      5 C12        -5.5290   11.2540   20.8880 C.2       1 5Z51280     0.0000 
      6 C11        -4.6760   11.3460   19.7890 C.2       1 5Z51280     0.0000 
      7 C14        -4.3340   12.6440   18.9990 C.3       1 5Z51280     0.0000 
      8 C13        -5.5400    9.9190   21.2430 C.2       1 5Z51280     0.0000 
      9 C15        -6.3210    9.2860   22.3870 C.3       1 5Z51280     0.0000 
     10 N2         -4.7530    9.2340   20.4200 N.pl3     1 5Z51280     0.0000 
     11 C10        -4.2010   10.0560   19.5200 C.2       1 5Z51280     0.0000 
     12 C9         -3.3250    9.7960   18.4630 C.2       1 5Z51280     0.0000 
     13 C7         -2.7900    8.5400   18.1250 C.2       1 5Z51280     0.0000 
     14 C5         -1.9060    8.3320   17.0720 C.ar      1 5Z51280     0.0000 
     15 C4         -1.3300    9.1700   16.1190 C.ar      1 5Z51280     0.0000 
     16 C1         -0.4500    8.6470   15.1730 C.ar      1 5Z51280     0.0000 
     17 CL1         0.2570    9.6930   13.9970 Cl        1 5Z51280     0.0000 
     18 C2         -0.1450    7.2880   15.1620 C.ar      1 5Z51280     0.0000 
     19 C3         -0.7260    6.4570   16.1210 C.ar      1 5Z51280     0.0000 
     20 C6         -1.5950    6.9690   17.0700 C.ar      1 5Z51280     0.0000 
     21 N1         -2.2610    6.3800   18.0620 N.am      1 5Z51280     0.0000 
     22 C8         -2.9840    7.2850   18.7080 C.2       1 5Z51280     0.0000 
     23 O1         -3.6930    7.0020   19.6710 O.2       1 5Z51280     0.0000 
     24 H          -5.5734   13.8106   20.2999 H         1 5Z51280     0.0000 
     25 H          -4.5958    8.2648   20.4620 H         1 5Z51280     0.0000 
     26 H          -3.0334   10.6228   17.8551 H         1 5Z51280     0.0000 
     27 H          -1.5537   10.1723   16.1136 H         1 5Z51280     0.0000 
     28 H           0.4928    6.9049   14.4645 H         1 5Z51280     0.0000 
     29 H          -0.5019    5.4476   16.1190 H         1 5Z51280     0.0000 
     30 H          -2.2207    5.4248   18.2784 H         1 5Z51280     0.0000 
     31 H          -6.6658   14.9076   22.6441 H         1 5Z51280     0.0000 
     32 H          -6.6749   15.6065   21.1958 H         1 5Z51280     0.0000 
     33 H          -7.8941   14.6553   21.6372 H         1 5Z51280     0.0000 
     34 H          -3.9081   13.3338   19.5845 H         1 5Z51280     0.0000 
     35 H          -3.6991   12.4649   18.2475 H         1 5Z51280     0.0000 
     36 H          -5.1502   13.0618   18.5999 H         1 5Z51280     0.0000 
     37 H          -6.1647    8.2998   22.4424 H         1 5Z51280     0.0000 
     38 H          -6.0632    9.6738   23.2720 H         1 5Z51280     0.0000 
     39 H          -7.3064    9.4213   22.2835 H         1 5Z51280     0.0000 
@<TRIPOS>BOND
     1    2    1 1    
     2   31    1 1    
     3   32    1 1    
     4   33    1 1    
     5    3    2 am   
     6   24    2 1    
     7    4    3 2    
     8    5    3 1    
     9    6    5 1    
    10    8    5 2    
    11    7    6 1    
    12   11    6 2    
    13   34    7 1    
    14   35    7 1    
    15   36    7 1    
    16    9    8 1    
    17   10    8 1    
    18   37    9 1    
    19   38    9 1    
    20   39    9 1    
    21   11   10 1    
    22   25   10 1    
    23   12   11 1    
    24   13   12 2    
    25   26   12 1    
    26   14   13 1    
    27   22   13 1    
    28   15   14 ar   
    29   20   14 ar   
    30   16   15 ar   
    31   27   15 1    
    32   17   16 1    
    33   18   16 ar   
    34   19   18 ar   
    35   28   18 1    
    36   20   19 ar   
    37   29   19 1    
    38   21   20 1    
    39   22   21 am   
    40   30   21 1    
    41   23   22 2    
@<TRIPOS>SUBSTRUCTURE
     1 5Z51280     1 GROUP   
@<TRIPOS>SET

