#    Name: 1pxn_CK6_1_INTS_M
#    Modification time : Mon Mar 24 22:24:00 2014

@<TRIPOS>MOLECULE
1pxn_CK6_1_INTS_M
   63     0     9     0     0
SMALL
NO_CHARGES


@<TRIPOS>ATOM
      1 CA         -3.7760    3.6580   26.0565 C.3       3 GLC5        0.0000 
      2 CA         -2.4600    4.7530   25.0770 C.3       9 GLL5        0.0000 
      3 CA         -5.0920    2.5630   27.0360 C.3       6 GLP5        0.0000 
      4 CA         -0.6540   11.4485   25.1710 C.3       3 GLC5        0.0000 
      5 CA         -0.5270   10.3440   23.7120 C.3       9 GLL5        0.0000 
      6 CA         -0.7810   12.5530   26.6300 C.3       6 GLP5        0.0000 
      7 CA         -2.1275    9.8735   25.0380 C.3       3 GLC5        0.0000 
      8 CA         -3.7280    9.4030   26.3640 C.3       6 GLP5        0.0000 
      9 CA          0.6180    8.4880   27.2365 C.3       3 GLC5        0.0000 
     10 CA          0.3640    7.7080   25.4720 C.3       9 GLL5        0.0000 
     11 CA          0.8720    9.2680   29.0010 C.3       6 GLP5        0.0000 
     12 CA         -1.0265    8.0615   26.8580 C.3       3 GLC5        0.0000 
     13 CA         -2.4170    8.4150   28.2440 C.3       6 GLP5        0.0000 
     14 CA          2.1060    6.5185   25.1920 C.3       3 GLC5        0.0000 
     15 CA          3.8480    5.3290   24.9120 C.3       6 GLP5        0.0000 
     16 CA          3.7865    3.3995   28.5800 C.3       3 GLC5        0.0000 
     17 CA          2.4550    5.1190   28.0750 C.3       9 GLL5        0.0000 
     18 CA          5.1180    1.6800   29.0850 C.3       6 GLP5        0.0000 
     19 CA          3.1515    5.2240   26.4935 C.3       3 GLC5        0.0000 
     20 N           2.9655    2.7855   29.0300 N.am      2 SEC2        0.0000 
     21 N           2.1790    3.8330   28.4650 N.am      8 SEL2        0.0000 
     22 N           3.7520    1.7380   29.5950 N.am      5 SEP2        0.0000 
     23 CA          1.4425    2.1660   29.4355 C.3       3 GLC5        0.0000 
     24 CA          1.0330    3.2900   27.9350 C.3       9 GLL5        0.0000 
     25 CA          1.8520    1.0420   30.9360 C.3       6 GLP5        0.0000 
     26 CA          3.0880    2.3985   27.7595 C.3       3 GLC5        0.0000 
     27 CA          5.1430    1.5070   27.5840 C.3       6 GLP5        0.0000 
     28 O           4.3460    4.8390   29.1485 O.2       1 ALC1        0.0000 
     29 O           3.5610    5.6870   28.5730 O.2       7 ALL1        0.0000 
     30 O           5.1310    3.9910   29.7240 O.2       4 ALP1        0.0000 
     31 CA          6.5305    5.7855   29.5795 C.3       3 GLC5        0.0000 
     32 CA          5.2890    7.3980   28.9900 C.3       9 GLL5        0.0000 
     33 CA          7.7720    4.1730   30.1690 C.3       6 GLP5        0.0000 
     34 N           6.6365   11.7225   27.9370 N.am      2 SEC2        0.0000 
     35 N           5.6020   10.8530   27.5600 N.am      8 SEL2        0.0000 
     36 N           7.6710   12.5920   28.3140 N.am      5 SEP2        0.0000 
     37 CA         -1.1958    4.1165   23.7518 C.3       3 GLC5        0.0000 
     38 CA         -1.4870    5.8930   25.1480 C.3       9 GLL5        0.0000 
     39 CA         -0.4180    2.9100   22.3910 C.3       6 GLP5        0.0000 
     40 CA         -1.6560    7.1980   26.8595 C.3       3 GLC5        0.0000 
     41 CA          1.1778    4.5798   25.2960 C.3       3 GLC5        0.0000 
     42 CA         -0.3030    6.0690   25.8020 C.3       9 GLL5        0.0000 
     43 CA          2.2470    3.5080   24.3320 C.3       6 GLP5        0.0000 
     44 CA          1.4195    3.5577   25.9142 C.3       3 GLC5        0.0000 
     45 CA          0.1510    3.9250   27.0580 C.3       9 GLL5        0.0000 
     46 CA         -0.4949    4.1129   28.7323 C.3       3 GLC5        0.0000 
     47 CA          0.5200    5.2340   26.7180 C.3       9 GLL5        0.0000 
     48 CA         -1.6740    4.2910   30.0530 C.3       6 GLP5        0.0000 
     49 CA          6.4672    6.8438   27.9532 C.3       3 GLC5        0.0000 
     50 CA          4.0940    6.9570   28.3490 C.3       9 GLL5        0.0000 
     51 CA          8.2430    6.5100   27.2370 C.3       6 GLP5        0.0000 
     52 CA          2.3833    8.7755   28.2859 C.3       3 GLC5        0.0000 
     53 CA          3.9930    9.1440   27.2280 C.3       9 GLL5        0.0000 
     54 CA          3.8712    6.8060   26.2414 C.3       3 GLC5        0.0000 
     55 CA          6.8640    7.8197   27.7705 C.3       3 GLC5        0.0000 
     56 CA          5.8130    8.6910   28.7490 C.3       9 GLL5        0.0000 
     57 CA          7.0880   10.3242   28.2085 C.3       3 GLC5        0.0000 
     58 CA          8.6910   11.5190   28.1130 C.3       6 GLP5        0.0000 
     59 CA          4.2120    9.5011   29.7726 C.3       3 GLC5        0.0000 
     60 CA          5.1570    9.5680   27.8590 C.3       9 GLL5        0.0000 
     61 CA          3.0700   10.1960   31.1810 C.3       6 GLP5        0.0000 
     62 CA          5.0171    8.7819   25.6395 C.3       3 GLC5        0.0000 
     63 CA          5.5830    8.5220   23.6730 C.3       6 GLP5        0.0000 
@<TRIPOS>BOND
@<TRIPOS>SUBSTRUCTURE
     1 ALC1       28 GROUP        1 X    ALC  0     ROOT ALC X 1
     2 SEC2       20 GROUP        1 X    SEC  0     **** SEC X 2
     3 GLC5        1 GROUP        1 X    GLC  0     **** GLC X 6
     4 ALP1       30 GROUP        1 Y    ALP  0     ROOT ALP Y 8
     5 SEP2       22 GROUP        1 Y    SEP  0     **** SEP Y 9
     6 GLP5        3 GROUP        1 Y    GLP  0     **** GLP Y 13
     7 ALL1       29 GROUP        1 Z    ALL  0     ROOT ALL Z 15
     8 SEL2       21 GROUP        1 Z    SEL  0     **** SEL Z 16
     9 GLL5        2 GROUP        1 Z    GLL  0     **** GLL Z 20
@<TRIPOS>SET

