#    Name: 1pxn_CK6_1_ligand
#    Modification time : Mon Mar 24 22:24:00 2014

@<TRIPOS>MOLECULE
1pxn_CK6_1_ligand
   37    39     1     0     0
SMALL
NO_CHARGES


@<TRIPOS>ATOM
      1 C6A        -2.4600    4.7530   25.0770 C.3       1 CK6500      0.0000 
      2 C1A        -1.4870    5.8930   25.1480 C.2       1 CK6500      0.0000 
      3 N2A        -1.8230    6.9900   24.4360 N.2       1 CK6500      0.0000 
      4 C3A        -1.0310    8.0170   24.4600 C.2       1 CK6500      0.0000 
      5 N7A        -1.3230    9.1160   23.7770 N.pl3     1 CK6500      0.0000 
      6 C8A        -0.5270   10.3440   23.7120 C.3       1 CK6500      0.0000 
      7 C5A        -0.3030    6.0690   25.8020 C.2       1 CK6500      0.0000 
      8 S4A         0.3640    7.7080   25.4720 S.3       1 CK6500      0.0000 
      9 C4          0.5200    5.2340   26.7180 C.ar      1 CK6500      0.0000 
     10 C5          0.1510    3.9250   27.0580 C.ar      1 CK6500      0.0000 
     11 N3          1.6430    5.8030   27.2150 N.ar      1 CK6500      0.0000 
     12 C2          2.4550    5.1190   28.0750 C.ar      1 CK6500      0.0000 
     13 N1          2.1790    3.8330   28.4650 N.ar      1 CK6500      0.0000 
     14 C6          1.0330    3.2900   27.9350 C.ar      1 CK6500      0.0000 
     15 N7          3.5610    5.6870   28.5730 N.pl3     1 CK6500      0.0000 
     16 C1B         4.0940    6.9570   28.3490 C.ar      1 CK6500      0.0000 
     17 C2B         3.4980    7.8870   27.4780 C.ar      1 CK6500      0.0000 
     18 C3B         3.9930    9.1440   27.2280 C.ar      1 CK6500      0.0000 
     19 C6B         5.2890    7.3980   28.9900 C.ar      1 CK6500      0.0000 
     20 C5B         5.8130    8.6910   28.7490 C.ar      1 CK6500      0.0000 
     21 C4B         5.1570    9.5680   27.8590 C.ar      1 CK6500      0.0000 
     22 O7B         5.6020   10.8530   27.5600 O.3       1 CK6500      0.0000 
     23 H          -2.2264    9.1622   23.1939 H         1 CK6500      0.0000 
     24 H          -0.6617    3.4924   26.7068 H         1 CK6500      0.0000 
     25 H           0.7854    2.2844   28.2163 H         1 CK6500      0.0000 
     26 H           4.1573    5.0702   29.2714 H         1 CK6500      0.0000 
     27 H           2.6081    7.5854   26.9882 H         1 CK6500      0.0000 
     28 H           3.5080    9.7767   26.5754 H         1 CK6500      0.0000 
     29 H           5.7737    6.7649   29.6355 H         1 CK6500      0.0000 
     30 H           6.6689    8.9882   29.2219 H         1 CK6500      0.0000 
     31 H          -2.5813    4.4260   24.1398 H         1 CK6500      0.0000 
     32 H          -2.1573    3.9719   25.6231 H         1 CK6500      0.0000 
     33 H          -3.3639    5.0146   25.4154 H         1 CK6500      0.0000 
     34 H           0.3868   10.1752   23.3425 H         1 CK6500      0.0000 
     35 H          -0.9559   11.0342   23.1292 H         1 CK6500      0.0000 
     36 H          -0.4064   10.7566   24.6149 H         1 CK6500      0.0000 
     37 H           5.4039   11.3709   26.7277 H         1 CK6500      0.0000 
@<TRIPOS>BOND
     1    2    1 1    
     2   31    1 1    
     3   32    1 1    
     4   33    1 1    
     5    3    2 1    
     6    7    2 2    
     7    4    3 2    
     8    5    4 1    
     9    8    4 1    
    10    6    5 1    
    11   23    5 1    
    12   34    6 1    
    13   35    6 1    
    14   36    6 1    
    15    8    7 1    
    16    9    7 1    
    17   10    9 ar   
    18   11    9 ar   
    19   14   10 ar   
    20   24   10 1    
    21   12   11 ar   
    22   13   12 ar   
    23   15   12 1    
    24   14   13 ar   
    25   25   14 1    
    26   16   15 1    
    27   26   15 1    
    28   17   16 ar   
    29   19   16 ar   
    30   18   17 ar   
    31   27   17 1    
    32   21   18 ar   
    33   28   18 1    
    34   20   19 ar   
    35   29   19 1    
    36   21   20 ar   
    37   30   20 1    
    38   22   21 1    
    39   37   22 1    
@<TRIPOS>SUBSTRUCTURE
     1 CK6500      1 GROUP   
@<TRIPOS>SET

