#    Name: 1akb_PPD_1_INTS_M
#    Modification time : Mon Mar 24 18:29:11 2014

@<TRIPOS>MOLECULE
1akb_PPD_1_INTS_M
   76     0    12     0     0
SMALL
NO_CHARGES


@<TRIPOS>ATOM
      1 N          43.1895   16.9950   46.1280 N.am      2 SEC2        0.0000 
      2 N          43.8280   15.9090   45.4180 N.am     10 SEL2        0.0000 
      3 N          42.5510   18.0810   46.8380 N.am      6 SEP2        0.0000 
      4 CA         46.8425   17.6505   46.1095 C.3       4 GLC5        0.0000 
      5 CA         45.5950   16.2320   47.0440 C.3      12 GLL5        0.0000 
      6 CA         48.0900   19.0690   45.1750 C.3       8 GLP5        0.0000 
      7 CA         47.4510   16.0595   47.7450 C.3       4 GLC5        0.0000 
      8 CA         49.3070   15.8870   48.4460 C.3       8 GLP5        0.0000 
      9 CA         46.0775   14.3205   47.6160 C.3       4 GLC5        0.0000 
     10 CA         46.5600   12.4090   48.1880 C.3       8 GLP5        0.0000 
     11 N          48.2155   14.9040   45.7380 N.am      2 SEC2        0.0000 
     12 N          47.0390   14.4350   45.4010 N.am     10 SEL2        0.0000 
     13 N          49.3920   15.3730   46.0750 N.am      6 SEP2        0.0000 
     14 O          47.3660   13.2580   45.7740 O.2       1 ALC1        0.0000 
     15 O          47.0390   14.4350   45.4010 O.2       9 ALL1        0.0000 
     16 O          47.6930   12.0810   46.1470 O.2       5 ALP1        0.0000 
     17 CA         46.1445   14.9205   42.0855 C.3       4 GLC5        0.0000 
     18 CA         46.0630   13.2070   42.9400 C.3      12 GLL5        0.0000 
     19 CA         46.2260   16.6340   41.2310 C.3       8 GLP5        0.0000 
     20 CA         41.9170   16.9785   43.9820 C.3       4 GLC5        0.0000 
     21 CA         43.2530   15.4320   44.3080 C.3      12 GLL5        0.0000 
     22 CA         40.5810   18.5250   43.6560 C.3       8 GLP5        0.0000 
     23 CA         41.1245   14.0130   42.3035 C.3       4 GLC5        0.0000 
     24 CA         43.1840   14.0900   42.2320 C.3      12 GLL5        0.0000 
     25 CA         39.0650   13.9360   42.3750 C.3       8 GLP5        0.0000 
     26 CA         44.0470   15.5720   41.8170 C.3       4 GLC5        0.0000 
     27 CA         44.9100   17.0540   41.4020 C.3       8 GLP5        0.0000 
     28 NZ         41.7200   12.6900   38.3440 N.4       3 LYC4        0.0000 
     29 NZ         42.0320   13.1940   39.6870 N.4      11 LYL4        0.0000 
     30 NZ         41.2970   10.8660   36.7950 N.4       7 LYP4        0.0000 
     31 N          41.0285   14.2115   40.1260 N.am      2 SEC2        0.0000 
     32 N          42.0320   13.1940   39.6870 N.am     10 SEL2        0.0000 
     33 N          40.0250   15.2290   40.5650 N.am      6 SEP2        0.0000 
     34 N          42.2280   14.4965   39.4410 N.am      2 SEC2        0.0000 
     35 N          42.4240   15.7990   39.1950 N.am      6 SEP2        0.0000 
     36 N          41.7200   12.6900   38.3440 N.am      2 SEC2        0.0000 
     37 N          41.4080   12.1860   37.0010 N.am      6 SEP2        0.0000 
     38 N          40.4780   10.6890   40.6685 N.am      2 SEC2        0.0000 
     39 N          41.3680   11.4220   41.2730 N.am     10 SEL2        0.0000 
     40 N          39.5880    9.9560   40.0640 N.am      6 SEP2        0.0000 
     41 N          40.1085   12.1100   41.3735 N.am      2 SEC2        0.0000 
     42 N          38.8490   12.7980   41.4740 N.am      6 SEP2        0.0000 
     43 N          41.0435   10.6495   42.4665 N.am      2 SEC2        0.0000 
     44 N          40.7190    9.8770   43.6600 N.am      6 SEP2        0.0000 
     45 NZ         42.6740   10.6285   38.7565 N.4       3 LYC4        0.0000 
     46 NZ         43.4860   11.2510   39.8550 N.4      11 LYL4        0.0000 
     47 N          42.6740   10.6285   38.7565 N.am      2 SEC2        0.0000 
     48 N          43.4860   11.2510   39.8550 N.am     10 SEL2        0.0000 
     49 N          41.8620   10.0060   37.6580 N.am      6 SEP2        0.0000 
     50 CA         49.3685   11.2285   40.2680 C.3       4 GLC5        0.0000 
     51 CA         48.0700   12.4620   41.0300 C.3      12 GLL5        0.0000 
     52 CA         50.6670    9.9950   39.5060 C.3       8 GLP5        0.0000 
     53 N          48.6370   15.7495   41.2465 N.am      2 SEC2        0.0000 
     54 N          48.7680   14.6440   40.2570 N.am     10 SEL2        0.0000 
     55 N          48.5060   16.8550   42.2360 N.am      6 SEP2        0.0000 
     56 NZ         51.7025   14.0590   43.3430 N.4       3 LYC4        0.0000 
     57 NZ         50.8720   12.7320   42.0730 N.4      11 LYL4        0.0000 
     58 NZ         53.4750   14.5260   44.3600 N.4       7 LYP4        0.0000 
     59 N          51.2935   11.2495   42.2075 N.am      2 SEC2        0.0000 
     60 N          50.8720   12.7320   42.0730 N.am     10 SEL2        0.0000 
     61 N          51.7150    9.7670   42.3420 N.am      6 SEP2        0.0000 
     62 N          52.1110   13.3100   42.6385 N.am      2 SEC2        0.0000 
     63 N          53.3500   13.8880   43.2040 N.am      6 SEP2        0.0000 
     64 NZ         50.0550   14.2300   43.4820 N.4      11 LYL4        0.0000 
     65 N          49.7235   14.8015   44.7785 N.am      2 SEC2        0.0000 
     66 N          50.0550   14.2300   43.4820 N.am     10 SEL2        0.0000 
     67 N          51.2180   14.6700   44.1645 N.am      2 SEC2        0.0000 
     68 N          52.3810   15.1100   44.8470 N.am      6 SEP2        0.0000 
     69 N          51.7025   14.0590   43.3430 N.am      2 SEC2        0.0000 
     70 CA         44.1193   14.4460   46.7575 C.3       4 GLC5        0.0000 
     71 CA         45.0960   15.5900   45.7740 C.3      12 GLL5        0.0000 
     72 CA         42.8930   12.9810   47.1060 C.3       8 GLP5        0.0000 
     73 CA         44.2087   13.7000   45.7288 C.3       4 GLC5        0.0000 
     74 CA         45.8080   14.6810   44.9200 C.3      12 GLL5        0.0000 
     75 CA         43.2362   13.9922   45.5023 C.3       4 GLC5        0.0000 
     76 CA         43.9060   14.5750   43.4890 C.3      12 GLL5        0.0000 
@<TRIPOS>BOND
@<TRIPOS>SUBSTRUCTURE
     1 ALC1       14 GROUP        1 X    ALC  0     ROOT ALC X 1
     2 SEC2        1 GROUP        1 X    SEC  0     **** SEC X 2
     3 LYC4       28 GROUP        1 X    LYC  0     **** LYC X 4
     4 GLC5        4 GROUP        1 X    GLC  0     **** GLC X 6
     5 ALP1       16 GROUP        1 Y    ALP  0     ROOT ALP Y 8
     6 SEP2        3 GROUP        1 Y    SEP  0     **** SEP Y 9
     7 LYP4       30 GROUP        1 Y    LYP  0     **** LYP Y 11
     8 GLP5        6 GROUP        1 Y    GLP  0     **** GLP Y 13
     9 ALL1       15 GROUP        1 Z    ALL  0     ROOT ALL Z 15
    10 SEL2        2 GROUP        1 Z    SEL  0     **** SEL Z 16
    11 LYL4       29 GROUP        1 Z    LYL  0     **** LYL Z 18
    12 GLL5        5 GROUP        1 Z    GLL  0     **** GLL Z 20
@<TRIPOS>SET

