#    Name: 1akb_PPD_1_ligand
#    Modification time : Mon Mar 24 18:29:11 2014

@<TRIPOS>MOLECULE
1akb_PPD_1_ligand
   36    36     1     0     0
SMALL
NO_CHARGES


@<TRIPOS>ATOM
      1 N1         43.8280   15.9090   45.4180 N.ar      1 PPD411      0.0000 
      2 C2         45.0960   15.5900   45.7740 C.ar      1 PPD411      0.0000 
      3 C2A        45.5950   16.2320   47.0440 C.3       1 PPD411      0.0000 
      4 C3         45.8080   14.6810   44.9200 C.ar      1 PPD411      0.0000 
      5 O3         47.0390   14.4350   45.4010 O.3       1 PPD411      0.0000 
      6 C4         45.2410   14.1570   43.7830 C.ar      1 PPD411      0.0000 
      7 C4A        46.0630   13.2070   42.9400 C.3       1 PPD411      0.0000 
      8 C5         43.9060   14.5750   43.4890 C.ar      1 PPD411      0.0000 
      9 C6         43.2530   15.4320   44.3080 C.ar      1 PPD411      0.0000 
     10 C5A        43.1840   14.0900   42.2320 C.3       1 PPD411      0.0000 
     11 O4P        43.3250   12.7690   41.8080 O.3       1 PPD411      0.0000 
     12 P          42.5030   12.1300   40.5930 P.3       1 PPD411      0.0000 
     13 O1P        42.0320   13.1940   39.6870 O.co2     1 PPD411      0.0000 
     14 O2P        41.3680   11.4220   41.2730 O.co2     1 PPD411      0.0000 
     15 O3P        43.4860   11.2510   39.8550 O.co2     1 PPD411      0.0000 
     16 N          47.4730   13.7130   43.0480 N.4       1 PPD411      0.0000 
     17 CA         48.4290   12.7260   42.4880 C.3       1 PPD411      0.0000 
     18 CB         48.0700   12.4620   41.0300 C.3       1 PPD411      0.0000 
     19 CG         48.1890   13.5550   40.0190 C.2       1 PPD411      0.0000 
     20 OD1        48.7680   14.6440   40.2570 O.co2     1 PPD411      0.0000 
     21 OD2        47.6240   13.2490   38.9210 O.co2     1 PPD411      0.0000 
     22 C          49.8520   13.2470   42.6840 C.2       1 PPD411      0.0000 
     23 O          50.8720   12.7320   42.0730 O.co2     1 PPD411      0.0000 
     24 OXT        50.0550   14.2300   43.4820 O.co2     1 PPD411      0.0000 
     25 H          45.7331   13.2489   41.9235 H         1 PPD411      0.0000 
     26 H          45.9946   12.2177   43.3406 H         1 PPD411      0.0000 
     27 H          42.2729   15.7252   44.0608 H         1 PPD411      0.0000 
     28 H          43.4787   14.8214   41.4002 H         1 PPD411      0.0000 
     29 H          42.0795   14.3566   42.3832 H         1 PPD411      0.0000 
     30 H          48.3258   11.7949   43.0421 H         1 PPD411      0.0000 
     31 H          47.0105   12.0566   41.0060 H         1 PPD411      0.0000 
     32 H          48.6843   11.5740   40.6813 H         1 PPD411      0.0000 
     33 H          46.5345   15.9607   47.2530 H         1 PPD411      0.0000 
     34 H          45.5845   17.2302   46.9845 H         1 PPD411      0.0000 
     35 H          45.0346   15.9795   47.8328 H         1 PPD411      0.0000 
     36 H          47.1352   13.4402   45.3690 H         1 PPD411      0.0000 
@<TRIPOS>BOND
     1    2    1 ar   
     2    9    1 ar   
     3    3    2 1    
     4    4    2 ar   
     5   33    3 1    
     6   34    3 1    
     7   35    3 1    
     8    5    4 1    
     9    6    4 ar   
    10   36    5 1    
    11    7    6 1    
    12    8    6 ar   
    13   16    7 1    
    14   25    7 1    
    15   26    7 1    
    16    9    8 ar   
    17   10    8 1    
    18   27    9 1    
    19   11   10 1    
    20   28   10 1    
    21   29   10 1    
    22   12   11 1    
    23   13   12 ar   
    24   14   12 ar   
    25   15   12 ar   
    26   17   16 1    
    27   18   17 1    
    28   22   17 1    
    29   30   17 1    
    30   19   18 1    
    31   31   18 1    
    32   32   18 1    
    33   20   19 ar   
    34   21   19 ar   
    35   23   22 ar   
    36   24   22 ar   
@<TRIPOS>SUBSTRUCTURE
     1 PPD411      1 GROUP   
@<TRIPOS>SET

