#    Name: 4j06_1JG_1_INTS_M
#    Modification time : Tue Mar 25 04:57:43 2014

@<TRIPOS>MOLECULE
4j06_1JG_1_INTS_M
   44     0     6     0     0
SMALL
NO_CHARGES


@<TRIPOS>ATOM
      1 CA        -29.9200   51.0935   49.9690 C.3       2 GLC5        0.0000 
      2 CA        -29.1220   50.8100   51.6650 C.3       6 GLL5        0.0000 
      3 CA        -30.7180   51.3770   48.2730 C.3       4 GLP5        0.0000 
      4 CA        -28.6955   52.6110   51.4940 C.3       2 GLC5        0.0000 
      5 CA        -28.2690   54.4120   51.3230 C.3       4 GLP5        0.0000 
      6 CA        -27.6630   49.2370   51.7515 C.3       2 GLC5        0.0000 
      7 CA        -26.2040   47.6640   51.8380 C.3       4 GLP5        0.0000 
      8 CA        -30.8915   51.3105   52.2680 C.3       2 GLC5        0.0000 
      9 CA        -32.6610   51.8110   52.8710 C.3       4 GLP5        0.0000 
     10 CA        -26.8300   51.4765   53.0955 C.3       2 GLC5        0.0000 
     11 CA        -28.3560   51.5150   54.6230 C.3       6 GLL5        0.0000 
     12 CA        -25.3040   51.4380   51.5680 C.3       4 GLP5        0.0000 
     13 CA        -27.6205   53.0310   53.5515 C.3       2 GLC5        0.0000 
     14 CA        -26.8850   54.5470   52.4800 C.3       4 GLP5        0.0000 
     15 CA        -28.2600   47.2490   54.5975 C.3       2 GLC5        0.0000 
     16 CA        -29.0870   49.1260   53.9560 C.3       6 GLL5        0.0000 
     17 CA        -27.4330   45.3720   55.2390 C.3       4 GLP5        0.0000 
     18 CA        -28.4920   47.2835   55.9600 C.3       2 GLC5        0.0000 
     19 CA        -28.8160   49.0680   55.3400 C.3       6 GLL5        0.0000 
     20 CA        -28.1680   45.4990   56.5800 C.3       4 GLP5        0.0000 
     21 CA        -21.8220   49.9560   54.8335 C.3       2 GLC5        0.0000 
     22 CA        -23.5820   50.7820   55.0370 C.3       6 GLL5        0.0000 
     23 CA        -20.0620   49.1300   54.6300 C.3       4 GLP5        0.0000 
     24 CA        -23.1330   53.7545   53.4845 C.3       2 GLC5        0.0000 
     25 CA        -23.5340   52.2000   54.8930 C.3       6 GLL5        0.0000 
     26 CA        -22.7320   55.3090   52.0760 C.3       4 GLP5        0.0000 
     27 CA        -25.6285   53.7820   54.0865 C.3       2 GLC5        0.0000 
     28 CA        -24.3720   53.0170   55.6930 C.3       6 GLL5        0.0000 
     29 N         -25.2745   46.7415   56.4760 N.am      1 SEC2        0.0000 
     30 N         -25.3390   48.0480   56.7640 N.am      5 SEL2        0.0000 
     31 N         -25.2100   45.4350   56.1880 N.am      3 SEP2        0.0000 
     32 N         -23.2565   46.8230   54.8845 N.am      1 SEC2        0.0000 
     33 N         -23.5000   48.0540   55.4800 N.am      5 SEL2        0.0000 
     34 N         -23.0130   45.5920   54.2890 N.am      3 SEP2        0.0000 
     35 CA        -25.8000   55.3980   54.4310 C.3       2 GLC5        0.0000 
     36 CA        -24.3210   54.7260   55.5370 C.3       6 GLL5        0.0000 
     37 CA        -27.2790   56.0700   53.3250 C.3       4 GLP5        0.0000 
     38 CA        -24.0585   56.0580   54.2465 C.3       2 GLC5        0.0000 
     39 CA        -23.7960   57.3900   52.9560 C.3       4 GLP5        0.0000 
     40 CA        -27.1508   51.0155   52.0682 C.3       2 GLC5        0.0000 
     41 CA        -28.8730   50.3760   53.4720 C.3       6 GLL5        0.0000 
     42 CA        -24.4310   51.4645   53.2665 C.3       2 GLC5        0.0000 
     43 CA        -30.6490   50.3771   54.1354 C.3       2 GLC5        0.0000 
     44 CA        -32.5150   50.7330   53.9230 C.3       4 GLP5        0.0000 
@<TRIPOS>BOND
@<TRIPOS>SUBSTRUCTURE
     1 SEC2       29 GROUP        1 X    SEC  0     ROOT SEC X 2
     2 GLC5        1 GROUP        1 X    GLC  0     **** GLC X 6
     3 SEP2       31 GROUP        1 Y    SEP  0     ROOT SEP Y 9
     4 GLP5        3 GROUP        1 Y    GLP  0     **** GLP Y 13
     5 SEL2       30 GROUP        1 Z    SEL  0     ROOT SEL Z 16
     6 GLL5        2 GROUP        1 Z    GLL  0     **** GLL Z 20
@<TRIPOS>SET

