#    Name: 4j06_1JG_1_ligand
#    Modification time : Tue Mar 25 04:57:44 2014

@<TRIPOS>MOLECULE
4j06_1JG_1_ligand
   26    27     1     0     0
SMALL
NO_CHARGES


@<TRIPOS>ATOM
      1 BR1       -29.1220   50.8100   51.6650 Br        1 1JG601      0.0000 
      2 S2        -28.3560   51.5150   54.6230 S.3       1 1JG601      0.0000 
      3 C3        -28.8730   50.3760   53.4720 C.2       1 1JG601      0.0000 
      4 C4        -29.0870   49.1260   53.9560 C.2       1 1JG601      0.0000 
      5 C5        -28.8160   49.0680   55.3400 C.2       1 1JG601      0.0000 
      6 C6        -28.4060   50.2890   55.8490 C.2       1 1JG601      0.0000 
      7 S7        -27.9300   50.7730   57.4920 S.o2      1 1JG601      0.0000 
      8 O8        -28.6450   49.8510   58.3690 O.2       1 1JG601      0.0000 
      9 O9        -28.2780   52.1970   57.5750 O.2       1 1JG601      0.0000 
     10 N10       -26.2620   50.5450   57.7720 N.pl3     1 1JG601      0.0000 
     11 C11       -25.3230   51.0250   56.7890 C.ar      1 1JG601      0.0000 
     12 C12       -24.4740   50.1630   55.9870 C.ar      1 1JG601      0.0000 
     13 C13       -23.5820   50.7820   55.0370 C.ar      1 1JG601      0.0000 
     14 C14       -23.5340   52.2000   54.8930 C.ar      1 1JG601      0.0000 
     15 C15       -24.3720   53.0170   55.6930 C.ar      1 1JG601      0.0000 
     16 C16       -25.2540   52.4400   56.6260 C.ar      1 1JG601      0.0000 
     17 C17       -24.5080   48.6790   56.1270 C.2       1 1JG601      0.0000 
     18 O18       -25.3390   48.0480   56.7640 O.co2     1 1JG601      0.0000 
     19 O19       -23.5000   48.0540   55.4800 O.co2     1 1JG601      0.0000 
     20 CL1       -24.3210   54.7260   55.5370 Cl        1 1JG601      0.0000 
     21 H         -29.3851   48.3584   53.4454 H         1 1JG601      0.0000 
     22 H         -28.9109   48.2542   55.8654 H         1 1JG601      0.0000 
     23 H         -26.0708   50.0935   58.6017 H         1 1JG601      0.0000 
     24 H         -22.9798   50.1907   54.4634 H         1 1JG601      0.0000 
     25 H         -22.9004   52.6195   54.2186 H         1 1JG601      0.0000 
     26 H         -25.8581   53.0382   57.1998 H         1 1JG601      0.0000 
@<TRIPOS>BOND
     1    3    1 1    
     2    3    2 1    
     3    6    2 1    
     4    4    3 2    
     5    5    4 1    
     6   21    4 1    
     7    6    5 2    
     8   22    5 1    
     9    7    6 1    
    10    8    7 2    
    11    9    7 2    
    12   10    7 1    
    13   11   10 1    
    14   23   10 1    
    15   12   11 ar   
    16   16   11 ar   
    17   13   12 ar   
    18   17   12 1    
    19   14   13 ar   
    20   24   13 1    
    21   15   14 ar   
    22   25   14 1    
    23   16   15 ar   
    24   20   15 1    
    25   26   16 1    
    26   18   17 ar   
    27   19   17 ar   
@<TRIPOS>SUBSTRUCTURE
     1 1JG601      1 GROUP   
@<TRIPOS>SET

