#    Name: 2ii4_COA_2_INTS_M
#    Modification time : Tue Mar 25 18:13:48 2014

@<TRIPOS>MOLECULE
2ii4_COA_2_INTS_M
  101     0    12     0     0
SMALL
NO_CHARGES


@<TRIPOS>ATOM
      1 N          56.7830  -41.0555  -17.0445 N.am      2 SEC2        0.0000 
      2 N          55.7830  -41.8410  -17.5550 N.am     10 SEL2        0.0000 
      3 N          57.7830  -40.2700  -16.5340 N.am      6 SEP2        0.0000 
      4 CA         57.5445  -41.7710  -18.8685 C.3       4 GLC5        0.0000 
      5 CA         56.3510  -43.0130  -18.0070 C.3      12 GLL5        0.0000 
      6 CA         58.7380  -40.5290  -19.7300 C.3       8 GLP5        0.0000 
      7 CA         57.1140  -42.5255  -16.4315 C.3       4 GLC5        0.0000 
      8 CA         57.8770  -42.0380  -14.8560 C.3       8 GLP5        0.0000 
      9 CA         54.1745  -39.9155  -18.9460 C.3       4 GLC5        0.0000 
     10 CA         54.4090  -41.6370  -17.6400 C.3      12 GLL5        0.0000 
     11 CA         53.9400  -38.1940  -20.2520 C.3       8 GLP5        0.0000 
     12 CA         55.8740  -40.2320  -18.0270 C.3       4 GLC5        0.0000 
     13 CA         57.3390  -38.8270  -18.4140 C.3       8 GLP5        0.0000 
     14 CA         55.0100  -42.1810  -15.8050 C.3       4 GLC5        0.0000 
     15 CA         55.6110  -42.7250  -13.9700 C.3       8 GLP5        0.0000 
     16 O          52.4735  -39.9070  -17.6765 O.2       1 ALC1        0.0000 
     17 O          53.9120  -40.4290  -17.3310 O.2       9 ALL1        0.0000 
     18 O          51.0350  -39.3850  -18.0220 O.2       5 ALP1        0.0000 
     19 O          54.5850  -39.1205  -17.1035 O.2       1 ALC1        0.0000 
     20 O          55.2580  -37.8120  -16.8760 O.2       5 ALP1        0.0000 
     21 N          51.0345  -41.9505  -18.4715 N.am      2 SEC2        0.0000 
     22 N          52.2830  -42.7810  -18.4140 N.am     10 SEL2        0.0000 
     23 N          49.7860  -41.1200  -18.5290 N.am      6 SEP2        0.0000 
     24 CA         53.4160  -46.5415  -16.4680 C.3       4 GLC5        0.0000 
     25 CA         52.8290  -46.9380  -18.5130 C.3      12 GLL5        0.0000 
     26 CA         54.0030  -46.1450  -14.4230 C.3       8 GLP5        0.0000 
     27 NZ         53.6950  -50.3145  -16.5110 N.4       3 LYC4        0.0000 
     28 NZ         53.6630  -50.8230  -18.0950 N.4      11 LYL4        0.0000 
     29 NZ         52.3880  -49.9100  -15.0010 N.4       7 LYP4        0.0000 
     30 N          53.6950  -50.3145  -16.5110 N.am      2 SEC2        0.0000 
     31 N          53.6630  -50.8230  -18.0950 N.am     10 SEL2        0.0000 
     32 N          53.7270  -49.8060  -14.9270 N.am      6 SEP2        0.0000 
     33 N          52.7310  -50.6005  -17.1085 N.am      2 SEC2        0.0000 
     34 N          51.7990  -50.3780  -16.1220 N.am      6 SEP2        0.0000 
     35 CA         49.4250  -47.2645  -18.4770 C.3       4 GLC5        0.0000 
     36 CA         50.4050  -47.4880  -20.4070 C.3      12 GLL5        0.0000 
     37 CA         48.4450  -47.0410  -16.5470 C.3       8 GLP5        0.0000 
     38 N          46.2700  -46.9565  -22.0515 N.am      2 SEC2        0.0000 
     39 N          47.8800  -47.2720  -22.0750 N.am     10 SEL2        0.0000 
     40 N          44.6600  -46.6410  -22.0280 N.am      6 SEP2        0.0000 
     41 N          47.0060  -45.4390  -17.1600 N.am      2 SEC2        0.0000 
     42 N          46.5630  -44.7890  -18.1100 N.am     10 SEL2        0.0000 
     43 N          47.4490  -46.0890  -16.2100 N.am      6 SEP2        0.0000 
     44 CA         44.1270  -44.5565  -21.3695 C.3       4 GLC5        0.0000 
     45 CA         45.9090  -43.2920  -20.8870 C.3      12 GLL5        0.0000 
     46 CA         42.3450  -45.8210  -21.8520 C.3       8 GLP5        0.0000 
     47 CA         44.1230  -40.4350  -19.8650 C.3       4 GLC5        0.0000 
     48 CA         45.9270  -40.8300  -20.5420 C.3      12 GLL5        0.0000 
     49 CA         42.3190  -40.0400  -19.1880 C.3       8 GLP5        0.0000 
     50 CA         47.3395  -39.8990  -19.5475 C.3       4 GLC5        0.0000 
     51 CA         48.7520  -38.9680  -18.5530 C.3       8 GLP5        0.0000 
     52 CA         43.3760  -40.9630  -20.7305 C.3       4 GLC5        0.0000 
     53 CA         44.4330  -41.8860  -22.2730 C.3      12 GLL5        0.0000 
     54 CA         43.4130  -40.8540  -23.1425 C.3       4 GLC5        0.0000 
     55 CA         42.3930  -39.8220  -24.0120 C.3       8 GLP5        0.0000 
     56 CA         43.3890  -43.8535  -22.0625 C.3       4 GLC5        0.0000 
     57 CA         49.1180  -41.8930  -22.2475 C.3       4 GLC5        0.0000 
     58 CA         46.9770  -41.8690  -22.5720 C.3      12 GLL5        0.0000 
     59 CA         51.2590  -41.9170  -21.9230 C.3       8 GLP5        0.0000 
     60 N          45.2620  -39.5925  -25.2540 N.am      2 SEC2        0.0000 
     61 N          46.0190  -40.2980  -24.2770 N.am     10 SEL2        0.0000 
     62 N          44.5050  -38.8870  -26.2310 N.am      6 SEP2        0.0000 
     63 O          48.8980  -39.0555  -22.0660 O.2       1 ALC1        0.0000 
     64 O          47.9600  -39.6740  -23.0990 O.2       9 ALL1        0.0000 
     65 O          49.8360  -38.4370  -21.0330 O.2       5 ALP1        0.0000 
     66 O          49.1925  -40.3840  -22.9215 O.2       1 ALC1        0.0000 
     67 O          50.4250  -41.0940  -22.7440 O.2       5 ALP1        0.0000 
     68 CA         47.2005  -38.6965  -25.6965 C.3       4 GLC5        0.0000 
     69 CA         47.9430  -38.3750  -23.7970 C.3      12 GLL5        0.0000 
     70 CA         46.4580  -39.0180  -27.5960 C.3       8 GLP5        0.0000 
     71 CA         49.3540  -38.5150  -25.2950 C.3       4 GLC5        0.0000 
     72 CA         50.7650  -38.6550  -26.7930 C.3       8 GLP5        0.0000 
     73 CA         45.1700  -37.8790  -23.7275 C.3       4 GLC5        0.0000 
     74 CA         47.1940  -37.2130  -23.0840 C.3      12 GLL5        0.0000 
     75 CA         43.1460  -38.5450  -24.3710 C.3       8 GLP5        0.0000 
     76 O          47.3595  -34.1740  -22.0815 O.2       1 ALC1        0.0000 
     77 O          47.5320  -34.8230  -23.2980 O.2       9 ALL1        0.0000 
     78 O          47.1870  -33.5250  -20.8650 O.2       5 ALP1        0.0000 
     79 CA         49.3870  -34.2890  -24.2095 C.3       4 GLC5        0.0000 
     80 CA         47.6040  -33.4930  -23.8720 C.3      12 GLL5        0.0000 
     81 CA         51.1700  -35.0850  -24.5470 C.3       8 GLP5        0.0000 
     82 CA         48.5235  -32.6850  -25.4280 C.3       4 GLC5        0.0000 
     83 CA         49.4430  -31.8770  -26.9840 C.3       8 GLP5        0.0000 
     84 CA         44.9130  -33.7600  -22.7855 C.3       4 GLC5        0.0000 
     85 CA         46.2750  -32.7510  -23.7660 C.3      12 GLL5        0.0000 
     86 CA         43.5510  -34.7690  -21.8050 C.3       8 GLP5        0.0000 
     87 CA         44.6550  -33.4950  -24.7600 C.3       4 GLC5        0.0000 
     88 CA         43.0350  -34.2390  -25.7540 C.3       8 GLP5        0.0000 
     89 CA         44.5905  -31.5375  -25.6295 C.3       4 GLC5        0.0000 
     90 CA         46.2500  -31.2990  -24.8570 C.3      12 GLL5        0.0000 
     91 CA         42.9310  -31.7760  -26.4020 C.3       8 GLP5        0.0000 
     92 CA         48.0155  -30.1310  -24.3290 C.3       4 GLC5        0.0000 
     93 CA         49.7810  -28.9630  -23.8010 C.3       8 GLP5        0.0000 
     94 CA         47.8465  -31.5880  -25.9205 C.3       4 GLC5        0.0000 
     95 CA         53.3090  -42.3118  -20.1363 C.3       4 GLC5        0.0000 
     96 CA         53.6050  -42.6560  -18.1980 C.3      12 GLL5        0.0000 
     97 CA         52.7160  -41.3830  -21.8620 C.3       8 GLP5        0.0000 
     98 CA         49.3302  -36.9715  -22.6167 C.3       4 GLC5        0.0000 
     99 CA         51.0920  -36.1490  -21.7930 C.3       8 GLP5        0.0000 
    100 CA         46.7652  -33.2790  -21.7070 C.3       4 GLC5        0.0000 
    101 CA         46.5910  -33.4360  -19.5950 C.3       8 GLP5        0.0000 
@<TRIPOS>BOND
@<TRIPOS>SUBSTRUCTURE
     1 ALC1       16 GROUP        1 X    ALC  0     ROOT ALC X 1
     2 SEC2        1 GROUP        1 X    SEC  0     **** SEC X 2
     3 LYC4       27 GROUP        1 X    LYC  0     **** LYC X 4
     4 GLC5        4 GROUP        1 X    GLC  0     **** GLC X 6
     5 ALP1       18 GROUP        1 Y    ALP  0     ROOT ALP Y 8
     6 SEP2        3 GROUP        1 Y    SEP  0     **** SEP Y 9
     7 LYP4       29 GROUP        1 Y    LYP  0     **** LYP Y 11
     8 GLP5        6 GROUP        1 Y    GLP  0     **** GLP Y 13
     9 ALL1       17 GROUP        1 Z    ALL  0     ROOT ALL Z 15
    10 SEL2        2 GROUP        1 Z    SEL  0     **** SEL Z 16
    11 LYL4       28 GROUP        1 Z    LYL  0     **** LYL Z 18
    12 GLL5        5 GROUP        1 Z    GLL  0     **** GLL Z 20
@<TRIPOS>SET

