#    Name: 2ii4_COA_2_ligand
#    Modification time : Tue Mar 25 18:13:48 2014

@<TRIPOS>MOLECULE
2ii4_COA_2_ligand
   79    81     1     0     0
SMALL
NO_CHARGES


@<TRIPOS>ATOM
      1 N1A        55.7830  -41.8410  -17.5550 N.ar      1 COA500      0.0000 
      2 C2A        56.3510  -43.0130  -18.0070 C.ar      1 COA500      0.0000 
      3 N3A        55.5360  -43.9790  -18.5490 N.ar      1 COA500      0.0000 
      4 C4A        54.1990  -43.8250  -18.6230 C.ar      1 COA500      0.0000 
      5 C5A        53.6050  -42.6560  -18.1980 C.ar      1 COA500      0.0000 
      6 C6A        54.4090  -41.6370  -17.6400 C.ar      1 COA500      0.0000 
      7 N6A        53.9120  -40.4290  -17.3310 N.pl3     1 COA500      0.0000 
      8 N7A        52.2830  -42.7810  -18.4140 N.2       1 COA500      0.0000 
      9 C8A        52.0370  -43.9810  -18.9730 C.2       1 COA500      0.0000 
     10 N9A        53.2200  -44.6410  -19.1260 N.pl3     1 COA500      0.0000 
     11 C1B        53.4160  -46.0280  -19.6000 C.3       1 COA500      0.0000 
     12 C2B        52.8290  -46.9380  -18.5130 C.3       1 COA500      0.0000 
     13 O2B        53.7390  -47.2460  -17.4790 O.3       1 COA500      0.0000 
     14 C3B        52.4480  -48.1440  -19.3220 C.3       1 COA500      0.0000 
     15 O3B        53.6350  -48.8100  -19.6820 O.3       1 COA500      0.0000 
     16 P3B        53.7140  -50.4170  -19.5530 P.3       1 COA500      0.0000 
     17 O7A        52.4240  -50.8690  -20.2050 O.co2     1 COA500      0.0000 
     18 O8A        53.6630  -50.8230  -18.0950 O.co2     1 COA500      0.0000 
     19 O9A        54.9220  -50.8960  -20.3520 O.co2     1 COA500      0.0000 
     20 C4B        51.9340  -47.5300  -20.5940 C.3       1 COA500      0.0000 
     21 O4B        52.6620  -46.2940  -20.7720 O.3       1 COA500      0.0000 
     22 C5B        50.4050  -47.4880  -20.4070 C.3       1 COA500      0.0000 
     23 O5B        49.9040  -46.2610  -20.8500 O.3       1 COA500      0.0000 
     24 P1A        48.4430  -46.0210  -21.4900 P.3       1 COA500      0.0000 
     25 O1A        47.8800  -47.2720  -22.0750 O.co2     1 COA500      0.0000 
     26 O2A        48.5160  -44.8980  -22.5250 O.co2     1 COA500      0.0000 
     27 O3A        47.5080  -45.7410  -20.2200 O.3       1 COA500      0.0000 
     28 P2A        47.5590  -44.4860  -19.2030 P.3       1 COA500      0.0000 
     29 O4A        48.9720  -44.2050  -18.8000 O.co2     1 COA500      0.0000 
     30 O5A        46.5630  -44.7890  -18.1100 O.co2     1 COA500      0.0000 
     31 O6A        47.0760  -43.2340  -20.0720 O.3       1 COA500      0.0000 
     32 CBP        45.7970  -41.9460  -21.5900 C.3       1 COA500      0.0000 
     33 CCP        45.9090  -43.2920  -20.8870 C.3       1 COA500      0.0000 
     34 CDP        45.9270  -40.8300  -20.5420 C.3       1 COA500      0.0000 
     35 CEP        44.4330  -41.8860  -22.2730 C.3       1 COA500      0.0000 
     36 CAP        46.9770  -41.8690  -22.5720 C.3       1 COA500      0.0000 
     37 OAP        46.8620  -42.9170  -23.5100 O.3       1 COA500      0.0000 
     38 C9P        47.0070  -40.5650  -23.3320 C.2       1 COA500      0.0000 
     39 O9P        46.0190  -40.2980  -24.2770 O.2       1 COA500      0.0000 
     40 N8P        47.9600  -39.6740  -23.0990 N.am      1 COA500      0.0000 
     41 C7P        47.9430  -38.3750  -23.7970 C.3       1 COA500      0.0000 
     42 C6P        47.1940  -37.2130  -23.0840 C.3       1 COA500      0.0000 
     43 C5P        47.2850  -35.9630  -23.9390 C.2       1 COA500      0.0000 
     44 O5P        47.1560  -36.0060  -25.1640 O.2       1 COA500      0.0000 
     45 N4P        47.5320  -34.8230  -23.2980 N.am      1 COA500      0.0000 
     46 C3P        47.6040  -33.4930  -23.8720 C.3       1 COA500      0.0000 
     47 C2P        46.2750  -32.7510  -23.7660 C.3       1 COA500      0.0000 
     48 S1P        46.2500  -31.2990  -24.8570 S.3       1 COA500      0.0000 
     49 H          57.3629  -43.1603  -17.9396 H         1 COA500      0.0000 
     50 H          52.9170  -40.3386  -17.3734 H         1 COA500      0.0000 
     51 H          54.5812  -39.7274  -17.0860 H         1 COA500      0.0000 
     52 H          51.1719  -44.3252  -19.2264 H         1 COA500      0.0000 
     53 H          54.4365  -46.2586  -19.6987 H         1 COA500      0.0000 
     54 H          51.9205  -46.4742  -18.1772 H         1 COA500      0.0000 
     55 H          51.7379  -48.6969  -18.8674 H         1 COA500      0.0000 
     56 H          52.1570  -48.2463  -21.3813 H         1 COA500      0.0000 
     57 H          50.2081  -47.6664  -19.3397 H         1 COA500      0.0000 
     58 H          49.9910  -48.3414  -20.9637 H         1 COA500      0.0000 
     59 H          45.0085  -43.4420  -20.3005 H         1 COA500      0.0000 
     60 H          45.9792  -44.0640  -21.6462 H         1 COA500      0.0000 
     61 H          47.8919  -41.9592  -22.0039 H         1 COA500      0.0000 
     62 H          48.7384  -39.8245  -22.4452 H         1 COA500      0.0000 
     63 H          47.4867  -38.4868  -24.8105 H         1 COA500      0.0000 
     64 H          48.9866  -38.0249  -23.9876 H         1 COA500      0.0000 
     65 H          47.6590  -37.0414  -22.1245 H         1 COA500      0.0000 
     66 H          46.1608  -37.4989  -22.9528 H         1 COA500      0.0000 
     67 H          47.7039  -34.8434  -22.2315 H         1 COA500      0.0000 
     68 H          47.8834  -33.5384  -24.9382 H         1 COA500      0.0000 
     69 H          48.3731  -32.8860  -23.3651 H         1 COA500      0.0000 
     70 H          46.1006  -32.3182  -22.8078 H         1 COA500      0.0000 
     71 H          45.4406  -33.3133  -24.1171 H         1 COA500      0.0000 
     72 H          46.8029  -40.8721  -20.0613 H         1 COA500      0.0000 
     73 H          45.8635  -39.9221  -20.9564 H         1 COA500      0.0000 
     74 H          45.2089  -40.8864  -19.8483 H         1 COA500      0.0000 
     75 H          44.2974  -41.0212  -22.7564 H         1 COA500      0.0000 
     76 H          44.3217  -42.6180  -22.9451 H         1 COA500      0.0000 
     77 H          43.6844  -41.9750  -21.6160 H         1 COA500      0.0000 
     78 H          53.8444  -48.2398  -17.5147 H         1 COA500      0.0000 
     79 H          47.4912  -43.6238  -23.1867 H         1 COA500      0.0000 
@<TRIPOS>BOND
     1    2    1 ar   
     2    6    1 ar   
     3    3    2 ar   
     4   49    2 1    
     5    4    3 ar   
     6    5    4 ar   
     7   10    4 1    
     8    6    5 ar   
     9    8    5 1    
    10    7    6 1    
    11   50    7 1    
    12   51    7 1    
    13    9    8 2    
    14   10    9 1    
    15   52    9 1    
    16   11   10 1    
    17   12   11 1    
    18   21   11 1    
    19   53   11 1    
    20   13   12 1    
    21   14   12 1    
    22   54   12 1    
    23   78   13 1    
    24   15   14 1    
    25   20   14 1    
    26   55   14 1    
    27   16   15 1    
    28   17   16 ar   
    29   18   16 ar   
    30   19   16 ar   
    31   21   20 1    
    32   22   20 1    
    33   56   20 1    
    34   23   22 1    
    35   57   22 1    
    36   58   22 1    
    37   24   23 1    
    38   25   24 ar   
    39   26   24 ar   
    40   27   24 1    
    41   28   27 1    
    42   29   28 ar   
    43   30   28 ar   
    44   31   28 1    
    45   33   31 1    
    46   33   32 1    
    47   34   32 1    
    48   35   32 1    
    49   36   32 1    
    50   59   33 1    
    51   60   33 1    
    52   72   34 1    
    53   73   34 1    
    54   74   34 1    
    55   75   35 1    
    56   76   35 1    
    57   77   35 1    
    58   37   36 1    
    59   38   36 1    
    60   61   36 1    
    61   79   37 1    
    62   39   38 2    
    63   40   38 am   
    64   41   40 1    
    65   62   40 1    
    66   42   41 1    
    67   63   41 1    
    68   64   41 1    
    69   43   42 1    
    70   65   42 1    
    71   66   42 1    
    72   44   43 2    
    73   45   43 am   
    74   46   45 1    
    75   67   45 1    
    76   47   46 1    
    77   68   46 1    
    78   69   46 1    
    79   48   47 1    
    80   70   47 1    
    81   71   47 1    
@<TRIPOS>SUBSTRUCTURE
     1 COA500      1 GROUP   
@<TRIPOS>SET

