#    Name: 1s3w_TQT_1_INTS_M
#    Modification time : Tue Mar 25 01:56:35 2014

@<TRIPOS>MOLECULE
1s3w_TQT_1_INTS_M
   65     0     6     0     0
SMALL
NO_CHARGES


@<TRIPOS>ATOM
      1 CA         25.4090   13.2900   -4.9845 C.3       2 GLC5        0.0000 
      2 CA         27.4700   12.9100   -4.6640 C.3       6 GLL5        0.0000 
      3 CA         23.3480   13.6700   -5.3050 C.3       4 GLP5        0.0000 
      4 CA         26.3090   11.3025   -4.1675 C.3       2 GLC5        0.0000 
      5 CA         25.1480    9.6950   -3.6710 C.3       4 GLP5        0.0000 
      6 CA         28.5170   11.3250   -5.2730 C.3       2 GLC5        0.0000 
      7 CA         29.5640    9.7400   -5.8820 C.3       4 GLP5        0.0000 
      8 CA         26.8770   14.5970   -3.9500 C.3       2 GLC5        0.0000 
      9 CA         26.2840   16.2840   -3.2360 C.3       4 GLP5        0.0000 
     10 CA         25.0385   13.7775   -2.6815 C.3       2 GLC5        0.0000 
     11 CA         27.0740   13.0260   -2.4920 C.3       6 GLL5        0.0000 
     12 CA         23.0030   14.5290   -2.8710 C.3       4 GLP5        0.0000 
     13 CA         26.1110   11.3605   -3.0815 C.3       2 GLC5        0.0000 
     14 CA         28.8205   16.4575   -1.2460 C.3       2 GLC5        0.0000 
     15 CA         29.9520   14.8490   -0.9050 C.3       6 GLL5        0.0000 
     16 CA         27.6890   18.0660   -1.5870 C.3       4 GLP5        0.0000 
     17 CA         32.7950   13.2410   -1.8275 C.3       2 GLC5        0.0000 
     18 CA         31.0890   14.3530   -1.8280 C.3       6 GLL5        0.0000 
     19 CA         34.5010   12.1290   -1.8270 C.3       4 GLP5        0.0000 
     20 CA         30.8400   15.9365    2.5470 C.3       2 GLC5        0.0000 
     21 CA         30.4630   15.0310    0.5740 C.3       6 GLL5        0.0000 
     22 CA         31.2170   16.8420    4.5200 C.3       4 GLP5        0.0000 
     23 CA         31.9890   15.5920    2.8665 C.3       2 GLC5        0.0000 
     24 CA         32.7610   14.3420    1.2130 C.3       6 GLL5        0.0000 
     25 CA         33.8480   15.8935    2.9700 C.3       2 GLC5        0.0000 
     26 CA         34.0080   14.7760    1.0310 C.3       6 GLL5        0.0000 
     27 CA         33.6880   17.0110    4.9090 C.3       4 GLP5        0.0000 
     28 OD1        28.5820   13.1195   -6.3160 O.co2     1 ASC3        0.0000 
     29 OD1        28.6210   13.3670   -4.5130 O.co2     5 ASL3        0.0000 
     30 OD1        28.5430   12.8720   -8.1190 O.co2     3 ASP3        0.0000 
     31 OD1        29.5055   13.2925   -5.7190 O.co2     1 ASC3        0.0000 
     32 OD1        30.3900   13.2180   -6.9250 O.co2     3 ASP3        0.0000 
     33 CA         27.3460   15.1685   -1.3875 C.3       2 GLC5        0.0000 
     34 CA         28.7650   13.8790   -0.8880 C.3       6 GLL5        0.0000 
     35 CA         25.9270   16.4580   -1.8870 C.3       4 GLP5        0.0000 
     36 CA         31.2050   15.9615   -3.5095 C.3       2 GLC5        0.0000 
     37 CA         30.5340   14.1830   -3.2990 C.3       6 GLL5        0.0000 
     38 CA         31.8760   17.7400   -3.7200 C.3       4 GLP5        0.0000 
     39 CA         26.9925   14.7695   -2.8083 C.3       2 GLC5        0.0000 
     40 CA         28.3280   13.4840   -2.2690 C.3       6 GLL5        0.0000 
     41 CA         28.5890   15.4743   -3.5245 C.3       2 GLC5        0.0000 
     42 CA         27.3450   17.0350   -3.7390 C.3       4 GLP5        0.0000 
     43 CA         30.9949   16.4660   -1.4141 C.3       2 GLC5        0.0000 
     44 CA         31.4980   18.1160   -2.4320 C.3       4 GLP5        0.0000 
     45 CA         32.4285   17.1923   -1.1167 C.3       2 GLC5        0.0000 
     46 CA         32.6080   16.4340    0.0560 C.3       6 GLL5        0.0000 
     47 CA         32.9153   12.2157    0.5563 C.3       2 GLC5        0.0000 
     48 CA         33.1870   10.6740   -0.4140 C.3       4 GLP5        0.0000 
     49 CA         32.4663   11.1653    3.1182 C.3       2 GLC5        0.0000 
     50 CA         32.5260   13.1730    1.8400 C.3       6 GLL5        0.0000 
     51 CA         31.8780    9.5180    4.1710 C.3       4 GLP5        0.0000 
     52 CA         35.4225   11.1717    2.6757 C.3       2 GLC5        0.0000 
     53 CA         33.5830   12.4520    2.2910 C.3       6 GLL5        0.0000 
     54 CA         36.6370    9.6530    3.1420 C.3       4 GLP5        0.0000 
     55 CA         33.6975   11.6822    0.8978 C.3       2 GLC5        0.0000 
     56 CA         34.8330   12.9290    2.1280 C.3       6 GLL5        0.0000 
     57 CA         33.9620   12.5332    4.2443 C.3       2 GLC5        0.0000 
     58 CA         33.7160   12.3760    6.2790 C.3       4 GLP5        0.0000 
     59 CA         34.5162   13.2815   -0.2752 C.3       2 GLC5        0.0000 
     60 CA         35.0550   14.0920    1.5220 C.3       6 GLL5        0.0000 
     61 CA         35.0159   16.6313    1.9679 C.3       2 GLC5        0.0000 
     62 CA         34.1100   16.1030    0.3410 C.3       6 GLL5        0.0000 
     63 CA         35.7110   17.9940    3.1270 C.3       4 GLP5        0.0000 
     64 CA         28.1285   11.9835   -0.5026 C.3       2 GLC5        0.0000 
     65 CA         28.0240   10.4000    0.6290 C.3       4 GLP5        0.0000 
@<TRIPOS>BOND
@<TRIPOS>SUBSTRUCTURE
     1 ASC3       28 GROUP        1 X    ASC  0     ROOT ASC X 3
     2 GLC5        1 GROUP        1 X    GLC  0     **** GLC X 6
     3 ASP3       30 GROUP        1 Y    ASP  0     ROOT ASP Y 10
     4 GLP5        3 GROUP        1 Y    GLP  0     **** GLP Y 13
     5 ASL3       29 GROUP        1 Z    ASL  0     ROOT ASL Z 17
     6 GLL5        2 GROUP        1 Z    GLL  0     **** GLL Z 20
@<TRIPOS>SET

