#    Name: 1s3w_TQT_1_ligand
#    Modification time : Tue Mar 25 01:56:35 2014

@<TRIPOS>MOLECULE
1s3w_TQT_1_ligand
   50    53     1     0     0
SMALL
NO_CHARGES


@<TRIPOS>ATOM
      1 C2'        27.4700   12.9100   -4.6640 C.3       1 TQT188      0.0000 
      2 C4'        27.0740   13.0260   -2.4920 C.3       1 TQT188      0.0000 
      3 C4B        28.3280   13.4840   -2.2690 C.3       1 TQT188      0.0000 
      4 C6'        29.9520   14.8490   -0.9050 C.3       1 TQT188      0.0000 
      5 C7'        31.0890   14.3530   -1.8280 C.3       1 TQT188      0.0000 
      6 C8B        29.1320   13.6440   -3.3210 C.3       1 TQT188      0.0000 
      7 C9'        30.4630   15.0310    0.5740 C.3       1 TQT188      0.0000 
      8 C'0        32.6080   16.4340    0.0560 C.3       1 TQT188      0.0000 
      9 C'1        32.7610   14.3420    1.2130 C.3       1 TQT188      0.0000 
     10 C'2        32.5260   13.1730    1.8400 C.3       1 TQT188      0.0000 
     11 C'3        33.5830   12.4520    2.2910 C.3       1 TQT188      0.0000 
     12 C'4        34.8330   12.9290    2.1280 C.3       1 TQT188      0.0000 
     13 C'5        35.0550   14.0920    1.5220 C.3       1 TQT188      0.0000 
     14 C'6        34.0080   14.7760    1.0310 C.3       1 TQT188      0.0000 
     15 C'7        34.1100   16.1030    0.3410 C.3       1 TQT188      0.0000 
     16 N1'        28.6210   13.3670   -4.5130 N.4       1 TQT188      0.0000 
     17 N2'        26.9660   12.5880   -6.0070 N.3       1 TQT188      0.0000 
     18 N3'        26.7760   12.5860   -3.6300 N.3       1 TQT188      0.0000 
     19 N4'        26.1720   12.8860   -1.3880 N.3       1 TQT188      0.0000 
     20 C5'        28.7650   13.8790   -0.8880 C.3       1 TQT188      0.0000 
     21 C8'        30.5340   14.1830   -3.2990 C.3       1 TQT188      0.0000 
     22 N'0        31.8750   15.3210    0.6140 N.4       1 TQT188      0.0000 
     23 H          26.8824   14.1891   -4.7402 H         1 TQT188      0.0000 
     24 H          26.5936   14.3170   -2.7636 H         1 TQT188      0.0000 
     25 H          28.8105   12.1602   -2.0452 H         1 TQT188      0.0000 
     26 H          29.6106   15.8116   -1.2475 H         1 TQT188      0.0000 
     27 H          31.4442   13.3976   -1.4870 H         1 TQT188      0.0000 
     28 H          31.8841   15.0759   -1.8470 H         1 TQT188      0.0000 
     29 H          29.6398   12.3145   -3.2094 H         1 TQT188      0.0000 
     30 H          30.2187   14.1039    1.1078 H         1 TQT188      0.0000 
     31 H          29.8652   15.8378    1.0166 H         1 TQT188      0.0000 
     32 H          32.4901   16.5094   -1.0051 H         1 TQT188      0.0000 
     33 H          32.3827   17.3582    0.5467 H         1 TQT188      0.0000 
     34 H          32.7165   15.0902    2.4450 H         1 TQT188      0.0000 
     35 H          31.8665   12.4971    1.1635 H         1 TQT188      0.0000 
     36 H          31.7834   13.3467    2.7163 H         1 TQT188      0.0000 
     37 H          33.5219   11.3752    1.8487 H         1 TQT188      0.0000 
     38 H          33.4131   12.1957    3.4155 H         1 TQT188      0.0000 
     39 H          35.4856   12.0960    1.6150 H         1 TQT188      0.0000 
     40 H          35.3706   12.9303    3.1740 H         1 TQT188      0.0000 
     41 H          35.8450   13.9478    0.6774 H         1 TQT188      0.0000 
     42 H          35.6679   14.7890    2.2269 H         1 TQT188      0.0000 
     43 H          34.0826   14.1220   -0.2316 H         1 TQT188      0.0000 
     44 H          34.4980   16.8386    0.9861 H         1 TQT188      0.0000 
     45 H          34.6137   16.0159   -0.5791 H         1 TQT188      0.0000 
     46 H          29.0527   12.9851   -0.3189 H         1 TQT188      0.0000 
     47 H          27.9313   14.3566   -0.3564 H         1 TQT188      0.0000 
     48 H          31.2123   13.5101   -3.8290 H         1 TQT188      0.0000 
     49 H          30.5760   15.1632   -3.7799 H         1 TQT188      0.0000 
     50 H          31.7713   15.9768    1.8733 H         1 TQT188      0.0000 
@<TRIPOS>BOND
     1   16    1 1    
     2   17    1 1    
     3   18    1 1    
     4   23    1 1    
     5    3    2 1    
     6   18    2 1    
     7   19    2 1    
     8   24    2 1    
     9    6    3 1    
    10   20    3 1    
    11   25    3 1    
    12    5    4 1    
    13    7    4 1    
    14   20    4 1    
    15   26    4 1    
    16   21    5 1    
    17   27    5 1    
    18   28    5 1    
    19   16    6 1    
    20   21    6 1    
    21   29    6 1    
    22   22    7 1    
    23   30    7 1    
    24   31    7 1    
    25   15    8 1    
    26   22    8 1    
    27   32    8 1    
    28   33    8 1    
    29   10    9 1    
    30   14    9 1    
    31   22    9 1    
    32   34    9 1    
    33   11   10 1    
    34   35   10 1    
    35   36   10 1    
    36   12   11 1    
    37   37   11 1    
    38   38   11 1    
    39   13   12 1    
    40   39   12 1    
    41   40   12 1    
    42   14   13 1    
    43   41   13 1    
    44   42   13 1    
    45   15   14 1    
    46   43   14 1    
    47   44   15 1    
    48   45   15 1    
    49   46   20 1    
    50   47   20 1    
    51   48   21 1    
    52   49   21 1    
    53   50   22 1    
@<TRIPOS>SUBSTRUCTURE
     1 TQT188      1 GROUP   
@<TRIPOS>SET

