#    Name: 4cdq_7VR_1_INTS_M
#    Modification time : Tue Mar 25 09:13:17 2014

@<TRIPOS>MOLECULE
4cdq_7VR_1_INTS_M
   72     0     6     0     0
SMALL
NO_CHARGES


@<TRIPOS>ATOM
      1 CA         94.8580  259.0430  104.1410 C.3       2 GLC5        0.0000 
      2 CA         95.1010  261.0500  105.0910 C.3       6 GLL5        0.0000 
      3 CA         94.6150  257.0360  103.1910 C.3       4 GLP5        0.0000 
      4 CA         93.3835  260.7950  104.7655 C.3       2 GLC5        0.0000 
      5 CA         91.6660  260.5400  104.4400 C.3       4 GLP5        0.0000 
      6 CA         94.7080  262.4815  102.9905 C.3       2 GLC5        0.0000 
      7 CA         96.2630  261.6110  104.2700 C.3       6 GLL5        0.0000 
      8 CA         93.1530  263.3520  101.7110 C.3       4 GLP5        0.0000 
      9 CA         96.6155  261.1165  102.4795 C.3       2 GLC5        0.0000 
     10 CA         96.9680  260.6220  100.6890 C.3       4 GLP5        0.0000 
     11 CA         96.9550  263.5210  104.1105 C.3       2 GLC5        0.0000 
     12 CA         97.6470  265.4310  103.9510 C.3       4 GLP5        0.0000 
     13 CA        102.5955  262.9540  105.5660 C.3       2 GLC5        0.0000 
     14 CA        101.8960  262.5360  103.6660 C.3       6 GLL5        0.0000 
     15 CA        103.2950  263.3720  107.4660 C.3       4 GLP5        0.0000 
     16 CA         98.7610  260.8355  101.5060 C.3       2 GLC5        0.0000 
     17 CA        100.5540  261.0490  102.3230 C.3       6 GLL5        0.0000 
     18 CA        103.5555  259.7455  102.5370 C.3       2 GLC5        0.0000 
     19 CA        102.8680  261.4320  101.7660 C.3       6 GLL5        0.0000 
     20 CA        104.2430  258.0590  103.3080 C.3       4 GLP5        0.0000 
     21 CA        104.6775  259.9580  102.3500 C.3       2 GLC5        0.0000 
     22 CA        105.1120  261.8570  101.3920 C.3       6 GLL5        0.0000 
     23 CA        106.1645  260.5930   98.5485 C.3       2 GLC5        0.0000 
     24 CA        106.2600  261.3870  100.4980 C.3       6 GLL5        0.0000 
     25 CA        106.0690  259.7990   96.5990 C.3       4 GLP5        0.0000 
     26 CA        109.0890  260.1090   99.1585 C.3       2 GLC5        0.0000 
     27 CA        108.4610  262.0470   99.5820 C.3       6 GLL5        0.0000 
     28 CA        109.7170  258.1710   98.7350 C.3       4 GLP5        0.0000 
     29 CA        107.2650  260.9230   98.0905 C.3       2 GLC5        0.0000 
     30 CA        109.1955  265.0350  100.4565 C.3       2 GLC5        0.0000 
     31 CA        109.2320  263.3480   99.3660 C.3       6 GLL5        0.0000 
     32 CA        109.1590  266.7220  101.5470 C.3       4 GLP5        0.0000 
     33 N         109.5395  266.7750   98.3350 N.am      1 SEC2        0.0000 
     34 N         110.0280  265.4280   97.6060 N.am      5 SEL2        0.0000 
     35 N         109.0510  268.1220   99.0640 N.am      3 SEP2        0.0000 
     36 CA        111.4065  260.4445   97.5550 C.3       2 GLC5        0.0000 
     37 CA        110.6850  262.0300   97.6000 C.3       6 GLL5        0.0000 
     38 CA        112.1280  258.8590   97.5100 C.3       4 GLP5        0.0000 
     39 CA        112.1885  263.1050   98.5035 C.3       2 GLC5        0.0000 
     40 CA        113.6920  264.1800   99.4070 C.3       4 GLP5        0.0000 
     41 CA        112.6220  260.9395   96.8085 C.3       2 GLC5        0.0000 
     42 CA        111.8260  262.5940   96.7540 C.3       6 GLL5        0.0000 
     43 CA        113.4180  259.2850   96.8630 C.3       4 GLP5        0.0000 
     44 CA        112.7925  263.8055   97.5165 C.3       2 GLC5        0.0000 
     45 CA        113.7590  265.0170   98.2790 C.3       4 GLP5        0.0000 
     46 CA        111.3980  262.4075   94.8110 C.3       2 GLC5        0.0000 
     47 CA        110.9700  262.2210   92.8680 C.3       4 GLP5        0.0000 
     48 CA         95.0200  261.3207  106.4843 C.3       2 GLC5        0.0000 
     49 CA         94.3580  261.3110  108.2880 C.3       4 GLP5        0.0000 
     50 CA        102.5062  260.6734  104.1436 C.3       2 GLC5        0.0000 
     51 CA        100.6840  261.9030  103.4110 C.3       6 GLL5        0.0000 
     52 CA        102.8710  259.0880  105.0950 C.3       4 GLP5        0.0000 
     53 CA        101.9862  260.0110  103.5025 C.3       2 GLC5        0.0000 
     54 CA        100.4597  259.1670  102.6820 C.3       2 GLC5        0.0000 
     55 CA         99.8180  257.4000  103.4540 C.3       4 GLP5        0.0000 
     56 CA        101.9387  262.3673  100.1863 C.3       2 GLC5        0.0000 
     57 CA        101.6490  260.8190  101.4970 C.3       6 GLL5        0.0000 
     58 CA        101.6190  263.6090   98.7410 C.3       4 GLP5        0.0000 
     59 CA        103.1667  259.5872  100.7933 C.3       2 GLC5        0.0000 
     60 CA        104.0750  258.0490   99.9550 C.3       4 GLP5        0.0000 
     61 CA        104.8805  259.8355  100.4500 C.3       2 GLC5        0.0000 
     62 CA        105.5630  263.2138   99.9387 C.3       2 GLC5        0.0000 
     63 CA        104.5460  264.4730   99.0430 C.3       4 GLP5        0.0000 
     64 CA        106.3640  262.8763  102.5517 C.3       2 GLC5        0.0000 
     65 CA        106.1480  263.7980  104.2690 C.3       4 GLP5        0.0000 
     66 CA        112.4778  267.8553   95.9378 C.3       2 GLC5        0.0000 
     67 CA        111.4500  266.0910   95.4330 C.3       6 GLL5        0.0000 
     68 CA        113.2400  269.2060   96.9340 C.3       4 GLP5        0.0000 
     69 CA        115.1567  264.4580   94.5392 C.3       2 GLC5        0.0000 
     70 CA        113.4010  265.1020   93.7110 C.3       6 GLL5        0.0000 
     71 CA        117.1960  264.2270   94.8860 C.3       4 GLP5        0.0000 
     72 CA        111.9252  263.5176   93.6411 C.3       2 GLC5        0.0000 
@<TRIPOS>BOND
@<TRIPOS>SUBSTRUCTURE
     1 SEC2       33 GROUP        1 X    SEC  0     ROOT SEC X 2
     2 GLC5        1 GROUP        1 X    GLC  0     **** GLC X 6
     3 SEP2       35 GROUP        1 Y    SEP  0     ROOT SEP Y 9
     4 GLP5        3 GROUP        1 Y    GLP  0     **** GLP Y 13
     5 SEL2       34 GROUP        1 Z    SEL  0     ROOT SEL Z 16
     6 GLL5        2 GROUP        1 Z    GLL  0     **** GLL Z 20
@<TRIPOS>SET

