#    Name: 4cdq_7VR_1_ligand
#    Modification time : Tue Mar 25 09:13:17 2014

@<TRIPOS>MOLECULE
4cdq_7VR_1_ligand
   57    59     1     0     0
SMALL
NO_CHARGES


@<TRIPOS>ATOM
      1 CAA        95.1010  261.0500  105.0910 C.3       1 7VR1298     0.0000 
      2 CAL        96.2630  261.6110  104.2700 C.3       1 7VR1298     0.0000 
      3 OAV        97.4630  261.4400  105.0260 O.3       1 7VR1298     0.0000 
      4 NAT        98.5930  261.2520  104.1250 N.2       1 7VR1298     0.0000 
      5 CAC        99.6120  262.1090  104.2710 C.2       1 7VR1298     0.0000 
      6 CAY       100.6840  261.9030  103.4110 C.ar      1 7VR1298     0.0000 
      7 CAI       101.8960  262.5360  103.6660 C.ar      1 7VR1298     0.0000 
      8 CAK       102.9930  262.2980  102.8460 C.ar      1 7VR1298     0.0000 
      9 CAH       100.5540  261.0490  102.3230 C.ar      1 7VR1298     0.0000 
     10 CAJ       101.6490  260.8190  101.4970 C.ar      1 7VR1298     0.0000 
     11 CAZ       102.8680  261.4320  101.7660 C.ar      1 7VR1298     0.0000 
     12 OAW       103.9370  261.1620  100.9700 O.3       1 7VR1298     0.0000 
     13 CAP       105.1120  261.8570  101.3920 C.3       1 7VR1298     0.0000 
     14 CAN       106.2600  261.3870  100.4980 C.3       1 7VR1298     0.0000 
     15 CAM       107.4740  262.2870  100.7240 C.3       1 7VR1298     0.0000 
     16 CAO       108.4610  262.0470   99.5820 C.3       1 7VR1298     0.0000 
     17 CAQ       109.2320  263.3480   99.3660 C.3       1 7VR1298     0.0000 
     18 NBB       110.1420  263.2660   98.2030 N.am      1 7VR1298     0.0000 
     19 CAX       110.4820  264.2980   97.4340 C.2       1 7VR1298     0.0000 
     20 OAB       110.0280  265.4280   97.6060 O.2       1 7VR1298     0.0000 
     21 CAR       110.6850  262.0300   97.6000 C.3       1 7VR1298     0.0000 
     22 CAS       111.8260  262.5940   96.7540 C.3       1 7VR1298     0.0000 
     23 NBC       111.3670  263.9770   96.4910 N.am      1 7VR1298     0.0000 
     24 CBA       111.8860  264.7770   95.5610 C.ar      1 7VR1298     0.0000 
     25 CAF       111.4500  266.0910   95.4330 C.ar      1 7VR1298     0.0000 
     26 CAD       111.9810  266.9180   94.4500 C.ar      1 7VR1298     0.0000 
     27 NAU       112.9730  266.4300   93.5920 N.ar      1 7VR1298     0.0000 
     28 CAE       113.4010  265.1020   93.7110 C.ar      1 7VR1298     0.0000 
     29 CAG       112.8340  264.2760   94.6740 C.ar      1 7VR1298     0.0000 
     30 H          96.0542  262.6608  104.0688 H         1 7VR1298     0.0000 
     31 H          96.2963  261.0708  103.3249 H         1 7VR1298     0.0000 
     32 H          99.6247  262.8536  104.9445 H         1 7VR1298     0.0000 
     33 H         101.9804  263.1814  104.4630 H         1 7VR1298     0.0000 
     34 H         103.8893  262.7587  103.0368 H         1 7VR1298     0.0000 
     35 H          99.6572  260.5911  102.1297 H         1 7VR1298     0.0000 
     36 H         101.5570  260.1936  100.6847 H         1 7VR1298     0.0000 
     37 H         105.3733  261.6287  102.4205 H         1 7VR1298     0.0000 
     38 H         105.0142  262.9316  101.2745 H         1 7VR1298     0.0000 
     39 H         105.9557  261.4467   99.4616 H         1 7VR1298     0.0000 
     40 H         106.5166  260.3667  100.7496 H         1 7VR1298     0.0000 
     41 H         107.9402  262.0338  101.6614 H         1 7VR1298     0.0000 
     42 H         107.1632  263.3183  100.7199 H         1 7VR1298     0.0000 
     43 H         107.9219  261.7952   98.6877 H         1 7VR1298     0.0000 
     44 H         109.1443  261.2647   99.8557 H         1 7VR1298     0.0000 
     45 H         109.8008  263.5692  100.2803 H         1 7VR1298     0.0000 
     46 H         108.5060  264.1614   99.2255 H         1 7VR1298     0.0000 
     47 H         109.9769  261.5709   96.9657 H         1 7VR1298     0.0000 
     48 H         111.0841  261.3882   98.3371 H         1 7VR1298     0.0000 
     49 H         111.8996  262.0385   95.8545 H         1 7VR1298     0.0000 
     50 H         112.7181  262.5900   97.3261 H         1 7VR1298     0.0000 
     51 H         110.7267  266.4550   96.0727 H         1 7VR1298     0.0000 
     52 H         111.6497  267.8833   94.3504 H         1 7VR1298     0.0000 
     53 H         114.1318  264.7442   93.0864 H         1 7VR1298     0.0000 
     54 H         113.1167  263.2863   94.7323 H         1 7VR1298     0.0000 
     55 H          95.2259  260.0793  105.2963 H         1 7VR1298     0.0000 
     56 H          95.0014  261.5241  105.9658 H         1 7VR1298     0.0000 
     57 H          94.2292  261.1379  104.6090 H         1 7VR1298     0.0000 
@<TRIPOS>BOND
     1    2    1 1    
     2   55    1 1    
     3   56    1 1    
     4   57    1 1    
     5    3    2 1    
     6   30    2 1    
     7   31    2 1    
     8    4    3 1    
     9    5    4 2    
    10    6    5 1    
    11   32    5 1    
    12    7    6 ar   
    13    9    6 ar   
    14    8    7 ar   
    15   33    7 1    
    16   11    8 ar   
    17   34    8 1    
    18   10    9 ar   
    19   35    9 1    
    20   11   10 ar   
    21   36   10 1    
    22   12   11 1    
    23   13   12 1    
    24   14   13 1    
    25   37   13 1    
    26   38   13 1    
    27   15   14 1    
    28   39   14 1    
    29   40   14 1    
    30   16   15 1    
    31   41   15 1    
    32   42   15 1    
    33   17   16 1    
    34   43   16 1    
    35   44   16 1    
    36   18   17 1    
    37   45   17 1    
    38   46   17 1    
    39   19   18 am   
    40   21   18 1    
    41   20   19 2    
    42   23   19 am   
    43   22   21 1    
    44   47   21 1    
    45   48   21 1    
    46   23   22 1    
    47   49   22 1    
    48   50   22 1    
    49   24   23 1    
    50   25   24 ar   
    51   29   24 ar   
    52   26   25 ar   
    53   51   25 1    
    54   27   26 ar   
    55   52   26 1    
    56   28   27 ar   
    57   29   28 ar   
    58   53   28 1    
    59   54   29 1    
@<TRIPOS>SUBSTRUCTURE
     1 7VR1298     1 GROUP   
@<TRIPOS>SET

