#    Name: 2bej_ADP_1_INTS_M
#    Modification time : Mon Mar 24 20:47:35 2014

@<TRIPOS>MOLECULE
2bej_ADP_1_INTS_M
   58     0    15     0     0
SMALL
NO_CHARGES


@<TRIPOS>ATOM
      1 Zn          5.6845   24.9930   35.8285 Zn        4 ZIC7        0.0000 
      2 Zn          6.1840   25.8900   36.1860 Zn       14 ZIL7        0.0000 
      3 Zn          5.1850   24.0960   35.4710 Zn        9 ZIP7        0.0000 
      4 N           7.0505   25.8845   34.9910 N.am      2 SEC2        0.0000 
      5 N           6.1840   25.8900   36.1860 N.am     12 SEL2        0.0000 
      6 N           7.9170   25.8790   33.7960 N.am      7 SEP2        0.0000 
      7 NZ          8.0415   25.0085   38.7520 N.4       3 LYC4        0.0000 
      8 NZ          7.8260   26.3150   38.0670 N.4      13 LYL4        0.0000 
      9 NZ          8.2570   23.7020   39.4370 N.4       8 LYP4        0.0000 
     10 N           7.9365   27.4940   39.1420 N.am      2 SEC2        0.0000 
     11 N           7.8260   26.3150   38.0670 N.am     12 SEL2        0.0000 
     12 N           8.0470   28.6730   40.2170 N.am      7 SEP2        0.0000 
     13 N           8.5245   27.6250   37.9070 N.am      2 SEC2        0.0000 
     14 N           9.2230   28.9350   37.7470 N.am      7 SEP2        0.0000 
     15 N           8.7505   26.5875   36.9865 N.am      2 SEC2        0.0000 
     16 N           9.6750   26.8600   35.9060 N.am      7 SEP2        0.0000 
     17 N           8.0415   25.0085   38.7520 N.am      2 SEC2        0.0000 
     18 N           8.2570   23.7020   39.4370 N.am      7 SEP2        0.0000 
     19 N           5.5060   26.8660   39.6820 N.am      2 SEC2        0.0000 
     20 N           5.3480   26.3060   38.5130 N.am     12 SEL2        0.0000 
     21 N           5.6640   27.4260   40.8510 N.am      7 SEP2        0.0000 
     22 N           6.8980   29.9305   33.9705 N.am      2 SEC2        0.0000 
     23 N           6.8310   28.9810   34.8670 N.am     12 SEL2        0.0000 
     24 N           6.9650   30.8800   33.0740 N.am      7 SEP2        0.0000 
     25 N           7.2570   28.6245   33.5495 N.am      2 SEC2        0.0000 
     26 N           7.6830   28.2680   32.2320 N.am      7 SEP2        0.0000 
     27 N           7.7990   28.5395   37.4920 N.am      2 SEC2        0.0000 
     28 N           6.3750   28.1440   37.2370 N.am     12 SEL2        0.0000 
     29 CA          5.0630   29.7175   39.0740 C.3       5 GLC5        0.0000 
     30 CA          4.4460   30.5510   37.4660 C.3      15 GLL5        0.0000 
     31 CA          5.6800   28.8840   40.6820 C.3      10 GLP5        0.0000 
     32 CA          8.1515   35.7830   33.1980 C.3       5 GLC5        0.0000 
     33 CA          8.3750   34.8490   35.1600 C.3      15 GLL5        0.0000 
     34 CA          7.9280   36.7170   31.2360 C.3      10 GLP5        0.0000 
     35 CA          9.9875   37.7720   35.6900 C.3       5 GLC5        0.0000 
     36 CA          9.2150   36.0610   34.9830 C.3      15 GLL5        0.0000 
     37 CA         10.7600   39.4830   36.3970 C.3      10 GLP5        0.0000 
     38 CA          9.8215   36.3730   33.2165 C.3       5 GLC5        0.0000 
     39 CA         10.4280   36.6850   31.4500 C.3      10 GLP5        0.0000 
     40 O          11.2780   37.1470   34.4375 O.2       1 ALC1        0.0000 
     41 O          10.5280   35.9670   34.6630 O.2      11 ALL1        0.0000 
     42 O          12.0280   38.3270   34.2120 O.2       6 ALP1        0.0000 
     43 N           8.9815   38.7440   34.8670 N.am      2 SEC2        0.0000 
     44 N           8.6280   37.2680   35.1460 N.am     12 SEL2        0.0000 
     45 N           9.3350   40.2200   34.5880 N.am      7 SEP2        0.0000 
     46 CA          8.1065   38.6215   36.8070 C.3       5 GLC5        0.0000 
     47 CA          7.3240   37.3920   35.4720 C.3      15 GLL5        0.0000 
     48 CA          8.8890   39.8510   38.1420 C.3      10 GLP5        0.0000 
     49 CA          8.0775   39.2545   34.5190 C.3       5 GLC5        0.0000 
     50 CA          8.8310   41.1170   33.5660 C.3      10 GLP5        0.0000 
     51 CA          7.6260   37.0545   33.3540 C.3       5 GLC5        0.0000 
     52 CA          5.3895   37.5060   34.7690 C.3       5 GLC5        0.0000 
     53 CA          3.4550   37.6200   34.0660 C.3      10 GLP5        0.0000 
     54 CA          5.3415   35.8875   34.1980 C.3       5 GLC5        0.0000 
     55 CA          6.9620   35.0640   35.5190 C.3      15 GLL5        0.0000 
     56 CA          3.7210   36.7110   32.8770 C.3      10 GLP5        0.0000 
     57 CA          8.9282   34.9793   36.7291 C.3       5 GLC5        0.0000 
     58 CA          9.9780   34.6990   38.1630 C.3      10 GLP5        0.0000 
@<TRIPOS>BOND
@<TRIPOS>SUBSTRUCTURE
     1 ALC1       40 GROUP        1 X    ALC  0     ROOT ALC X 1
     2 SEC2        4 GROUP        1 X    SEC  0     **** SEC X 2
     3 LYC4        7 GROUP        1 X    LYC  0     **** LYC X 4
     4 ZIC7        1 GROUP        1 X    ZIC  0     **** ZIC X 5
     5 GLC5       29 GROUP        1 X    GLC  0     **** GLC X 6
     6 ALP1       42 GROUP        1 Y    ALP  0     ROOT ALP Y 8
     7 SEP2        6 GROUP        1 Y    SEP  0     **** SEP Y 9
     8 LYP4        9 GROUP        1 Y    LYP  0     **** LYP Y 11
     9 ZIP7        3 GROUP        1 Y    ZIP  0     **** ZIP Y 12
    10 GLP5       31 GROUP        1 Y    GLP  0     **** GLP Y 13
    11 ALL1       41 GROUP        1 Z    ALL  0     ROOT ALL Z 15
    12 SEL2        5 GROUP        1 Z    SEL  0     **** SEL Z 16
    13 LYL4        8 GROUP        1 Z    LYL  0     **** LYL Z 18
    14 ZIL7        2 GROUP        1 Z    ZIL  0     **** ZIL Z 19
    15 GLL5       30 GROUP        1 Z    GLL  0     **** GLL Z 20
@<TRIPOS>SET

