#    Name: 2bej_ADP_1_ligand
#    Modification time : Mon Mar 24 20:47:35 2014

@<TRIPOS>MOLECULE
2bej_ADP_1_ligand
   39    41     1     0     0
SMALL
NO_CHARGES


@<TRIPOS>ATOM
      1 PB          6.4450   26.5550   37.5070 P.3       1 ADP500      0.0000 
      2 O1B         6.1840   25.8900   36.1860 O.co2     1 ADP500      0.0000 
      3 O2B         7.8260   26.3150   38.0670 O.co2     1 ADP500      0.0000 
      4 O3B         5.3480   26.3060   38.5130 O.co2     1 ADP500      0.0000 
      5 PA          5.7570   28.8540   35.9160 P.3       1 ADP500      0.0000 
      6 O1A         4.4860   28.1580   35.4890 O.co2     1 ADP500      0.0000 
      7 O2A         6.8310   28.9810   34.8670 O.co2     1 ADP500      0.0000 
      8 O3A         6.3750   28.1440   37.2370 O.3       1 ADP500      0.0000 
      9 O5'         5.4470   30.3060   36.4780 O.3       1 ADP500      0.0000 
     10 C5'         4.4460   30.5510   37.4660 C.3       1 ADP500      0.0000 
     11 C4'         3.8340   31.9140   37.1590 C.3       1 ADP500      0.0000 
     12 O4'         4.8440   32.9330   37.2380 O.3       1 ADP500      0.0000 
     13 C3'         3.2930   31.9420   35.7390 C.3       1 ADP500      0.0000 
     14 O3'         2.0990   32.7330   35.6970 O.3       1 ADP500      0.0000 
     15 C2'         4.3570   32.6650   34.9470 C.3       1 ADP500      0.0000 
     16 O2'         3.7880   33.3510   33.8310 O.3       1 ADP500      0.0000 
     17 C1'         4.9890   33.5970   35.9710 C.3       1 ADP500      0.0000 
     18 N9          6.4150   33.8560   35.6300 N.pl3     1 ADP500      0.0000 
     19 C8          7.3690   32.9320   35.3810 C.2       1 ADP500      0.0000 
     20 N7          8.5580   33.5190   35.0930 N.2       1 ADP500      0.0000 
     21 C5          8.3750   34.8490   35.1600 C.ar      1 ADP500      0.0000 
     22 C6          9.2150   36.0610   34.9830 C.ar      1 ADP500      0.0000 
     23 N6         10.5280   35.9670   34.6630 N.pl3     1 ADP500      0.0000 
     24 N1          8.6280   37.2680   35.1460 N.ar      1 ADP500      0.0000 
     25 C2          7.3240   37.3920   35.4720 C.ar      1 ADP500      0.0000 
     26 N3          6.5050   36.3380   35.6530 N.ar      1 ADP500      0.0000 
     27 C4          6.9620   35.0640   35.5190 C.ar      1 ADP500      0.0000 
     28 H           4.8631   30.5874   38.4681 H         1 ADP500      0.0000 
     29 H           3.6520   29.8107   37.4337 H         1 ADP500      0.0000 
     30 H           3.0343   32.1052   37.8355 H         1 ADP500      0.0000 
     31 H           3.1789   30.9755   35.3808 H         1 ADP500      0.0000 
     32 H           5.0973   31.9399   34.6630 H         1 ADP500      0.0000 
     33 H           4.4296   34.5162   35.9594 H         1 ADP500      0.0000 
     34 H           7.2238   31.9612   35.4046 H         1 ADP500      0.0000 
     35 H          10.8948   36.6997   34.0897 H         1 ADP500      0.0000 
     36 H          11.0142   35.1732   35.0284 H         1 ADP500      0.0000 
     37 H           6.9244   38.3713   35.5917 H         1 ADP500      0.0000 
     38 H           2.2644   33.4133   34.9830 H         1 ADP500      0.0000 
     39 H           4.2753   34.2231   33.7876 H         1 ADP500      0.0000 
@<TRIPOS>BOND
     1    2    1 ar   
     2    3    1 ar   
     3    4    1 ar   
     4    8    1 1    
     5    6    5 ar   
     6    7    5 ar   
     7    8    5 1    
     8    9    5 1    
     9   10    9 1    
    10   11   10 1    
    11   28   10 1    
    12   29   10 1    
    13   12   11 1    
    14   13   11 1    
    15   30   11 1    
    16   17   12 1    
    17   14   13 1    
    18   15   13 1    
    19   31   13 1    
    20   38   14 1    
    21   16   15 1    
    22   17   15 1    
    23   32   15 1    
    24   39   16 1    
    25   18   17 1    
    26   33   17 1    
    27   19   18 1    
    28   27   18 1    
    29   20   19 2    
    30   34   19 1    
    31   21   20 1    
    32   22   21 ar   
    33   27   21 ar   
    34   23   22 1    
    35   24   22 ar   
    36   35   23 1    
    37   36   23 1    
    38   25   24 ar   
    39   26   25 ar   
    40   37   25 1    
    41   27   26 ar   
@<TRIPOS>SUBSTRUCTURE
     1 ADP500      1 GROUP   
@<TRIPOS>SET

