#    Name: 3zl6_NVU_1_INTS_M
#    Modification time : Tue Mar 25 03:38:20 2014

@<TRIPOS>MOLECULE
3zl6_NVU_1_INTS_M
   27     0     9     0     0
SMALL
NO_CHARGES


@<TRIPOS>ATOM
      1 CA          5.2785   21.5340   -4.0685 C.3       3 GLC5        0.0000 
      2 CA          5.0540   22.3720   -5.5230 C.3       9 GLL5        0.0000 
      3 CA          5.5030   20.6960   -2.6140 C.3       6 GLP5        0.0000 
      4 NZ          6.4265   25.2860   -6.7030 N.4       2 LYC4        0.0000 
      5 NZ          5.7720   23.8150   -7.2120 N.4       8 LYL4        0.0000 
      6 NZ          6.2850   27.3150   -7.0850 N.4       5 LYP4        0.0000 
      7 N           5.6270   25.1865   -7.5170 N.am      1 SEC2        0.0000 
      8 N           5.7720   23.8150   -7.2120 N.am      7 SEL2        0.0000 
      9 N           5.4820   26.5580   -7.8220 N.am      4 SEP2        0.0000 
     10 N           6.4265   25.2860   -6.7030 N.am      1 SEC2        0.0000 
     11 N           7.0810   26.7570   -6.1940 N.am      4 SEP2        0.0000 
     12 CA          2.2690   23.8525   -5.2065 C.3       3 GLC5        0.0000 
     13 CA          3.6800   23.5200   -3.7540 C.3       9 GLL5        0.0000 
     14 CA          0.8580   24.1850   -6.6590 C.3       6 GLP5        0.0000 
     15 CA          2.5722   25.5715   -4.0895 C.3       3 GLC5        0.0000 
     16 CA          4.2060   25.4390   -2.4870 C.3       9 GLL5        0.0000 
     17 CA          0.7810   26.1730   -5.2060 C.3       6 GLP5        0.0000 
     18 CA          4.5928   24.1555   -1.1365 C.3       3 GLC5        0.0000 
     19 CA          4.8220   23.3410    0.7000 C.3       6 GLP5        0.0000 
     20 CA          4.8421   26.7510   -2.3160 C.3       3 GLC5        0.0000 
     21 CA          3.0090   25.3400   -1.8030 C.3       9 GLL5        0.0000 
     22 CA          5.9980   28.3470   -2.2440 C.3       6 GLP5        0.0000 
     23 CA          1.3102   24.7815   -0.5272 C.3       3 GLC5        0.0000 
     24 CA          0.0180   24.7510    0.9200 C.3       6 GLP5        0.0000 
     25 CA          1.6709   25.1440   -3.8671 C.3       3 GLC5        0.0000 
     26 CA          3.6914   23.7280   -0.9141 C.3       3 GLC5        0.0000 
     27 CA          2.5190   23.4180   -3.0820 C.3       9 GLL5        0.0000 
@<TRIPOS>BOND
@<TRIPOS>SUBSTRUCTURE
     1 SEC2        7 GROUP        1 X    SEC  0     ROOT SEC X 2
     2 LYC4        4 GROUP        1 X    LYC  0     **** LYC X 4
     3 GLC5        1 GROUP        1 X    GLC  0     **** GLC X 6
     4 SEP2        9 GROUP        1 Y    SEP  0     ROOT SEP Y 9
     5 LYP4        6 GROUP        1 Y    LYP  0     **** LYP Y 11
     6 GLP5        3 GROUP        1 Y    GLP  0     **** GLP Y 13
     7 SEL2        8 GROUP        1 Z    SEL  0     ROOT SEL Z 16
     8 LYL4        5 GROUP        1 Z    LYL  0     **** LYL Z 18
     9 GLL5        2 GROUP        1 Z    GLL  0     **** GLL Z 20
@<TRIPOS>SET

