#    Name: 3zl6_NVU_1_ligand
#    Modification time : Tue Mar 25 03:38:20 2014

@<TRIPOS>MOLECULE
3zl6_NVU_1_ligand
   19    20     1     0     0
SMALL
NO_CHARGES


@<TRIPOS>ATOM
      1 CA          5.0540   22.3720   -5.5230 C.3       1 NVU1297     0.0000 
      2 C           4.8840   22.9960   -6.8680 C.2       1 NVU1297     0.0000 
      3 O           5.7720   23.8150   -7.2120 O.co2     1 NVU1297     0.0000 
      4 OXT         3.9900   22.5280   -7.5880 O.co2     1 NVU1297     0.0000 
      5 CB          3.7900   22.5130   -4.6660 C.2       1 NVU1297     0.0000 
      6 CG          3.6800   23.5200   -3.7540 C.ar      1 NVU1297     0.0000 
      7 CD1         4.5210   24.5010   -3.4590 C.ar      1 NVU1297     0.0000 
      8 CE1         4.2060   25.4390   -2.4870 C.ar      1 NVU1297     0.0000 
      9 CZ          3.0090   25.3400   -1.8030 C.ar      1 NVU1297     0.0000 
     10 CE2         2.1960   24.2840   -2.1460 C.ar      1 NVU1297     0.0000 
     11 CD2         2.5190   23.4180   -3.0820 C.ar      1 NVU1297     0.0000 
     12 OH          1.8010   22.2500   -3.5500 O.3       1 NVU1297     0.0000 
     13 NAL         2.7400   21.6600   -4.6650 N.2       1 NVU1297     0.0000 
     14 H           5.8882   22.8444   -4.9913 H         1 NVU1297     0.0000 
     15 H           5.2842   21.3054   -5.6290 H         1 NVU1297     0.0000 
     16 H           5.4400   24.5925   -3.9496 H         1 NVU1297     0.0000 
     17 H           4.8610   26.2032   -2.2779 H         1 NVU1297     0.0000 
     18 H           2.7490   26.0052   -1.0935 H         1 NVU1297     0.0000 
     19 H           1.2796   24.1870   -1.6207 H         1 NVU1297     0.0000 
@<TRIPOS>BOND
     1    2    1 1    
     2    5    1 1    
     3   14    1 1    
     4   15    1 1    
     5    3    2 ar   
     6    4    2 ar   
     7    6    5 1    
     8   13    5 2    
     9    7    6 ar   
    10   11    6 ar   
    11    8    7 ar   
    12   16    7 1    
    13    9    8 ar   
    14   17    8 1    
    15   10    9 ar   
    16   18    9 1    
    17   11   10 ar   
    18   19   10 1    
    19   12   11 1    
    20   13   12 1    
@<TRIPOS>SUBSTRUCTURE
     1 NVU1297     1 GROUP   
@<TRIPOS>SET

