#    Name: 2f12_HTM_1_INTS_M
#    Modification time : Mon Apr  7 18:02:35 2014

@<TRIPOS>MOLECULE
2f12_HTM_1_INTS_M
   43     0    12     0     0
SMALL
NO_CHARGES


@<TRIPOS>ATOM
      1 NZ          8.7815   16.1945   23.4675 N.4       3 LYC4        0.0000 
      2 NZ          8.8730   14.5520   24.0090 N.4      11 LYL4        0.0000 
      3 NZ          9.8760   18.2910   23.3100 N.4       7 LYP4        0.0000 
      4 NZ          9.1360   14.8500   22.6570 N.4       3 LYC4        0.0000 
      5 NZ          9.8320   14.1580   20.5320 N.4       7 LYP4        0.0000 
      6 N           8.7815   16.1945   23.4675 N.am      2 SEC2        0.0000 
      7 N           8.8730   14.5520   24.0090 N.am     10 SEL2        0.0000 
      8 N           8.6900   17.8370   22.9260 N.am      6 SEP2        0.0000 
      9 N           9.7495   16.0560   24.0670 N.am      2 SEC2        0.0000 
     10 N          10.6260   17.5600   24.1250 N.am      6 SEP2        0.0000 
     11 N           9.1360   14.8500   22.6570 N.am      2 SEC2        0.0000 
     12 N           9.3990   15.1480   21.3050 N.am      6 SEP2        0.0000 
     13 CA          4.8565   18.3440   28.8105 C.3       4 GLC5        0.0000 
     14 CA          6.4690   18.3180   27.5960 C.3      12 GLL5        0.0000 
     15 CA          3.2440   18.3700   30.0250 C.3       8 GLP5        0.0000 
     16 CA         10.9625   13.2325   33.8535 C.3       4 GLC5        0.0000 
     17 CA         10.7460   14.7010   32.5800 C.3      12 GLL5        0.0000 
     18 CA         11.1790   11.7640   35.1270 C.3       8 GLP5        0.0000 
     19 NZ         10.1580   11.1685   24.3475 N.4       3 LYC4        0.0000 
     20 NZ          9.8920   12.5180   24.0220 N.4      11 LYL4        0.0000 
     21 NZ         11.7120    9.8630   24.3700 N.4       7 LYP4        0.0000 
     22 NZ         10.0130   12.7510   22.5435 N.4       3 LYC4        0.0000 
     23 N          10.1580   11.1685   24.3475 N.am      2 SEC2        0.0000 
     24 N           9.8920   12.5180   24.0220 N.am     10 SEL2        0.0000 
     25 N          10.4240    9.8190   24.6730 N.am      6 SEP2        0.0000 
     26 N          11.0710   11.7565   23.9730 N.am      2 SEC2        0.0000 
     27 N          12.2500   10.9950   23.9240 N.am      6 SEP2        0.0000 
     28 N          10.0130   12.7510   22.5435 N.am      2 SEC2        0.0000 
     29 N          10.1340   12.9840   21.0650 N.am      6 SEP2        0.0000 
     30 O           6.0095   20.2235   28.4245 O.2       1 ALC1        0.0000 
     31 O           5.4330   19.1220   27.9860 O.2       9 ALL1        0.0000 
     32 O           6.5860   21.3250   28.8630 O.2       5 ALP1        0.0000 
     33 CA         12.5823   11.9932   27.3450 C.3       4 GLC5        0.0000 
     34 CA         10.8210   12.7010   26.7370 C.3      12 GLL5        0.0000 
     35 CA         14.1500   11.0650   27.2250 C.3       8 GLP5        0.0000 
     36 CA         12.0383   13.9367   26.0040 C.3       4 GLC5        0.0000 
     37 CA         11.2080   13.1420   28.1930 C.3      12 GLL5        0.0000 
     38 CA         13.2660   14.6830   24.7250 C.3       8 GLP5        0.0000 
     39 CA          6.7988   20.1653   28.9483 C.3       4 GLC5        0.0000 
     40 CA          7.7960   18.5950   27.9650 C.3      12 GLL5        0.0000 
     41 CA          6.4650   21.8740   30.1160 C.3       8 GLP5        0.0000 
     42 CA          8.2666   19.7645   26.9808 C.3       4 GLC5        0.0000 
     43 CA          9.1310   21.3170   26.3060 C.3       8 GLP5        0.0000 
@<TRIPOS>BOND
@<TRIPOS>SUBSTRUCTURE
     1 ALC1       30 GROUP        1 X    ALC  0     ROOT ALC X 1
     2 SEC2        6 GROUP        1 X    SEC  0     **** SEC X 2
     3 LYC4        1 GROUP        1 X    LYC  0     **** LYC X 4
     4 GLC5       13 GROUP        1 X    GLC  0     **** GLC X 6
     5 ALP1       32 GROUP        1 Y    ALP  0     ROOT ALP Y 8
     6 SEP2        8 GROUP        1 Y    SEP  0     **** SEP Y 9
     7 LYP4        3 GROUP        1 Y    LYP  0     **** LYP Y 11
     8 GLP5       15 GROUP        1 Y    GLP  0     **** GLP Y 13
     9 ALL1       31 GROUP        1 Z    ALL  0     ROOT ALL Z 15
    10 SEL2        7 GROUP        1 Z    SEL  0     **** SEL Z 16
    11 LYL4        2 GROUP        1 Z    LYL  0     **** LYL Z 18
    12 GLL5       14 GROUP        1 Z    GLL  0     **** GLL Z 20
@<TRIPOS>SET

