#    Name: 2f12_HTM_1_ligand
#    Modification time : Mon Apr  7 18:02:35 2014

@<TRIPOS>MOLECULE
2f12_HTM_1_ligand
   35    35     1     0     0
SMALL
NO_CHARGES


@<TRIPOS>ATOM
      1 O1A         8.8730   14.5520   24.0090 O.co2     1 HTM1001     0.0000 
      2 C1          9.5910   13.5930   24.6640 C.2       1 HTM1001     0.0000 
      3 C2         10.0050   13.7770   26.0090 C.2       1 HTM1001     0.0000 
      4 C3         10.8210   12.7010   26.7370 C.2       1 HTM1001     0.0000 
      5 C4         11.2080   13.1420   28.1930 C.3       1 HTM1001     0.0000 
      6 C5         10.1740   14.1010   28.7980 C.3       1 HTM1001     0.0000 
      7 C6         10.0670   15.3450   27.8720 C.3       1 HTM1001     0.0000 
      8 C7          8.8750   17.6170   27.4650 C.3       1 HTM1001     0.0000 
      9 C8          7.7960   18.5950   27.9650 C.3       1 HTM1001     0.0000 
     10 C9          6.4690   18.3180   27.5960 C.3       1 HTM1001     0.0000 
     11 C10        10.0450   14.2400   31.3240 C.2       1 HTM1001     0.0000 
     12 C11        10.7460   14.7010   32.5800 C.3       1 HTM1001     0.0000 
     13 N5         10.6480   14.4540   30.1530 N.am      1 HTM1001     0.0000 
     14 O1B         9.8920   12.5180   24.0220 O.co2     1 HTM1001     0.0000 
     15 O4         11.3410   11.9360   28.9950 O.3       1 HTM1001     0.0000 
     16 O6          9.6280   14.9190   26.5480 O.3       1 HTM1001     0.0000 
     17 O7          9.0220   16.3650   28.3620 O.3       1 HTM1001     0.0000 
     18 O9          5.4330   19.1220   27.9860 O.3       1 HTM1001     0.0000 
     19 O10         8.8170   13.6220   31.4550 O.2       1 HTM1001     0.0000 
     20 H          11.0620   11.8949   26.3818 H         1 HTM1001     0.0000 
     21 H          12.1607   13.6512   28.1237 H         1 HTM1001     0.0000 
     22 H           9.2359   13.6076   28.8306 H         1 HTM1001     0.0000 
     23 H          11.0167   15.8238   27.8144 H         1 HTM1001     0.0000 
     24 H           9.8381   18.1369   27.4254 H         1 HTM1001     0.0000 
     25 H           8.6224   17.2948   26.4492 H         1 HTM1001     0.0000 
     26 H           8.1157   19.6211   27.6207 H         1 HTM1001     0.0000 
     27 H           7.9115   18.6465   29.0865 H         1 HTM1001     0.0000 
     28 H           6.2360   17.2156   27.9018 H         1 HTM1001     0.0000 
     29 H           6.4402   18.1899   26.4359 H         1 HTM1001     0.0000 
     30 H          11.6144   14.9482   30.1384 H         1 HTM1001     0.0000 
     31 H          11.6358   14.2587   32.6923 H         1 HTM1001     0.0000 
     32 H          10.9078   15.6878   32.5741 H         1 HTM1001     0.0000 
     33 H          10.2114   14.4965   33.4000 H         1 HTM1001     0.0000 
     34 H          10.5403   11.9342   29.5942 H         1 HTM1001     0.0000 
     35 H           5.7925   19.6533   28.7532 H         1 HTM1001     0.0000 
@<TRIPOS>BOND
     1    2    1 ar   
     2    3    2 1    
     3   14    2 ar   
     4    4    3 2    
     5   16    3 1    
     6    5    4 1    
     7   20    4 1    
     8    6    5 1    
     9   15    5 1    
    10   21    5 1    
    11    7    6 1    
    12   13    6 1    
    13   22    6 1    
    14   16    7 1    
    15   17    7 1    
    16   23    7 1    
    17    9    8 1    
    18   17    8 1    
    19   24    8 1    
    20   25    8 1    
    21   10    9 1    
    22   26    9 1    
    23   27    9 1    
    24   18   10 1    
    25   28   10 1    
    26   29   10 1    
    27   12   11 1    
    28   13   11 am   
    29   19   11 2    
    30   31   12 1    
    31   32   12 1    
    32   33   12 1    
    33   30   13 1    
    34   34   15 1    
    35   35   18 1    
@<TRIPOS>SUBSTRUCTURE
     1 HTM1001     1 GROUP   
@<TRIPOS>SET

