#    Name: 2p8h_MY9_1_INTS_M
#    Modification time : Mon Mar 24 18:27:35 2014

@<TRIPOS>MOLECULE
2p8h_MY9_1_INTS_M
  105     0    12     0     0
SMALL
NO_CHARGES


@<TRIPOS>ATOM
      1 CA         31.9370   42.1585    6.1230 C.3       4 GLC5        0.0000 
      2 CA         32.1850   44.2740    6.0810 C.3      12 GLL5        0.0000 
      3 CA         31.6890   40.0430    6.1650 C.3       8 GLP5        0.0000 
      4 CA         30.1690   47.5540    5.8685 C.3       4 GLC5        0.0000 
      5 CA         32.1190   47.1660    6.6770 C.3      12 GLL5        0.0000 
      6 CA         28.2190   47.9420    5.0600 C.3       8 GLP5        0.0000 
      7 O          31.7295   42.7450    3.5570 O.2       1 ALC1        0.0000 
      8 O          32.2070   44.1910    2.9440 O.2       9 ALL1        0.0000 
      9 O          31.2520   41.2990    4.1700 O.2       5 ALP1        0.0000 
     10 CA         27.9320   40.2690   -0.7855 C.3       4 GLC5        0.0000 
     11 CA         28.4720   41.8070    0.4710 C.3      12 GLL5        0.0000 
     12 CA         27.3920   38.7310   -2.0420 C.3       8 GLP5        0.0000 
     13 CA         28.7335   45.3570    2.6705 C.3       4 GLC5        0.0000 
     14 CA         29.1160   44.1440    0.9340 C.3      12 GLL5        0.0000 
     15 CA         28.3510   46.5700    4.4070 C.3       8 GLP5        0.0000 
     16 CA         26.1895   41.2080   -1.8945 C.3       4 GLC5        0.0000 
     17 CA         26.2440   43.0030   -1.1970 C.3      12 GLL5        0.0000 
     18 CA         26.1350   39.4130   -2.5920 C.3       8 GLP5        0.0000 
     19 CA         24.7690   42.2800    0.2150 C.3       4 GLC5        0.0000 
     20 CA         23.2940   41.5570    1.6270 C.3       8 GLP5        0.0000 
     21 N          31.9800   45.2650    0.0305 N.am      2 SEC2        0.0000 
     22 N          31.5470   45.8410    1.5330 N.am     10 SEL2        0.0000 
     23 N          32.4130   44.6890   -1.4720 N.am      6 SEP2        0.0000 
     24 N          26.0400   45.1865    3.5375 N.am      2 SEC2        0.0000 
     25 N          26.4540   44.9280    2.1180 N.am     10 SEL2        0.0000 
     26 N          25.6260   45.4450    4.9570 N.am      6 SEP2        0.0000 
     27 N          29.6180   38.3110   -1.4790 N.am      2 SEC2        0.0000 
     28 N          29.9030   39.2940   -0.2560 N.am     10 SEL2        0.0000 
     29 N          29.3330   37.3280   -2.7020 N.am      6 SEP2        0.0000 
     30 N          29.9015   39.5540   -1.7770 N.am      2 SEC2        0.0000 
     31 N          29.9000   39.8140   -3.2980 N.am      6 SEP2        0.0000 
     32 CA         35.4290   42.6480    4.4130 C.3       4 GLC5        0.0000 
     33 CA         34.4420   44.1630    3.9240 C.3      12 GLL5        0.0000 
     34 CA         36.4160   41.1330    4.9020 C.3       8 GLP5        0.0000 
     35 CA         36.2980   43.9050    3.0865 C.3       4 GLC5        0.0000 
     36 CA         38.1540   43.6470    2.2490 C.3       8 GLP5        0.0000 
     37 O          30.9840   40.3545    3.0210 O.2       1 ALC1        0.0000 
     38 O          30.7160   39.4100    1.8720 O.2       9 ALL1        0.0000 
     39 CA         32.2855   39.1950    4.1930 C.3       4 GLC5        0.0000 
     40 CA         32.8820   38.3470    2.2210 C.3      12 GLL5        0.0000 
     41 CA         32.8475   38.3010   -1.0390 C.3       4 GLC5        0.0000 
     42 CA         33.5320   39.6790    0.0090 C.3      12 GLL5        0.0000 
     43 CA         32.1630   36.9230   -2.0870 C.3       8 GLP5        0.0000 
     44 CA         30.3380   35.8695    4.5725 C.3       4 GLC5        0.0000 
     45 CA         30.7540   37.0830    2.7550 C.3      12 GLL5        0.0000 
     46 CA         29.9220   34.6560    6.3900 C.3       8 GLP5        0.0000 
     47 O          32.4540   36.0085    3.7495 O.2       1 ALC1        0.0000 
     48 O          31.4260   35.9300    2.8070 O.2       9 ALL1        0.0000 
     49 O          33.4820   36.0870    4.6920 O.2       5 ALP1        0.0000 
     50 CA         32.0755   46.6190   10.2380 C.3       4 GLC5        0.0000 
     51 CA         31.3920   46.5360    8.8460 C.3      12 GLL5        0.0000 
     52 CA         32.7590   46.7020   11.6300 C.3       8 GLP5        0.0000 
     53 OD1        28.9110   36.7635    4.7655 O.co2     3 ASC3        0.0000 
     54 OD1        28.6070   35.8620    3.1670 O.co2    11 ASL3        0.0000 
     55 OD1        29.2150   37.6650    6.3640 O.co2     7 ASP3        0.0000 
     56 OD1        28.0770   36.7140    4.0590 O.co2     3 ASC3        0.0000 
     57 OD1        27.5470   37.5660    4.9510 O.co2     7 ASP3        0.0000 
     58 N          29.6630   36.7780   -1.3765 N.am      2 SEC2        0.0000 
     59 N          29.9930   36.2280   -0.0510 N.am     10 SEL2        0.0000 
     60 N          28.5050   36.9635   -0.5870 N.am      2 SEC2        0.0000 
     61 N          27.0170   37.6990   -1.1230 N.am      6 SEP2        0.0000 
     62 CA         24.4885   37.0360    2.9645 C.3       4 GLC5        0.0000 
     63 CA         26.3340   36.2840    2.2470 C.3      12 GLL5        0.0000 
     64 CA         22.6430   37.7880    3.6820 C.3       8 GLP5        0.0000 
     65 CA         27.2145   32.4055    3.1650 C.3       4 GLC5        0.0000 
     66 CA         27.1540   33.9620    2.7910 C.3      12 GLL5        0.0000 
     67 CA         27.2750   30.8490    3.5390 C.3       8 GLP5        0.0000 
     68 CA         34.0877   45.3820    6.3465 C.3       4 GLC5        0.0000 
     69 CA         35.7800   45.9750    7.0940 C.3       8 GLP5        0.0000 
     70 CA         30.4703   46.2945    4.8270 C.3       4 GLC5        0.0000 
     71 CA         32.6060   45.3040    5.1170 C.3      12 GLL5        0.0000 
     72 CA         33.8970   48.0495    5.5180 C.3       4 GLC5        0.0000 
     73 CA         32.5730   46.7340    5.3770 C.3      12 GLL5        0.0000 
     74 CA         35.4480   49.1490    5.0090 C.3       8 GLP5        0.0000 
     75 CA         34.0630   46.4625    6.5605 C.3       4 GLC5        0.0000 
     76 CA         33.7742   45.6980    7.2985 C.3       4 GLC5        0.0000 
     77 CA         31.7640   46.1370    7.6220 C.3      12 GLL5        0.0000 
     78 CA         29.9393   45.3836    6.2956 C.3       4 GLC5        0.0000 
     79 CA         28.0070   45.4540    5.4140 C.3       8 GLP5        0.0000 
     80 CA         34.7833   45.2668    5.4715 C.3       4 GLC5        0.0000 
     81 CA         33.1310   44.9540    3.7740 C.3      12 GLL5        0.0000 
     82 CA         34.7193   45.4327    2.2695 C.3       4 GLC5        0.0000 
     83 CA         35.6520   46.3070    0.6900 C.3       8 GLP5        0.0000 
     84 CA         30.6193   42.5588   -0.7787 C.3       4 GLC5        0.0000 
     85 CA         30.4450   43.7270    1.3410 C.3      12 GLL5        0.0000 
     86 CA         30.6290   42.0880   -2.8440 C.3       8 GLP5        0.0000 
     87 CA         29.3874   41.9846    2.9351 C.3       4 GLC5        0.0000 
     88 CA         29.8000   41.3750    0.8380 C.3      12 GLL5        0.0000 
     89 CA         28.5700   41.7670    4.8080 C.3       8 GLP5        0.0000 
     90 CA         27.2458   42.1613    2.2105 C.3       4 GLC5        0.0000 
     91 CA         26.2030   41.8190    3.9430 C.3       8 GLP5        0.0000 
     92 CA         29.6247   42.2418   -1.1371 C.3       4 GLC5        0.0000 
     93 CA         28.1050   43.2000    0.4850 C.3      12 GLL5        0.0000 
     94 CA         35.6657   40.9603    3.4538 C.3       4 GLC5        0.0000 
     95 CA         34.5170   40.2560    2.3030 C.3      12 GLL5        0.0000 
     96 CA         35.1686   38.3372    2.7554 C.3       4 GLC5        0.0000 
     97 CA         36.4470   37.0980    3.4380 C.3       8 GLP5        0.0000 
     98 CA         32.3599   36.6939    1.1221 C.3       4 GLC5        0.0000 
     99 CA         31.4290   38.1100    1.8020 C.3      12 GLL5        0.0000 
    100 CA         33.2650   35.7320   -0.1390 C.3       8 GLP5        0.0000 
    101 CA         30.0886   45.8023    8.8522 C.3       4 GLC5        0.0000 
    102 CA         31.7730   44.7050    7.3840 C.3      12 GLL5        0.0000 
    103 CA         28.5970   45.6260    9.5300 C.3       8 GLP5        0.0000 
    104 CA         25.9644   34.6650    4.0870 C.3       4 GLC5        0.0000 
    105 CA         24.8780   34.4430    5.6450 C.3       8 GLP5        0.0000 
@<TRIPOS>BOND
@<TRIPOS>SUBSTRUCTURE
     1 ALC1        7 GROUP        1 X    ALC  0     ROOT ALC X 1
     2 SEC2       21 GROUP        1 X    SEC  0     **** SEC X 2
     3 ASC3       53 GROUP        1 X    ASC  0     **** ASC X 3
     4 GLC5        1 GROUP        1 X    GLC  0     **** GLC X 6
     5 ALP1        9 GROUP        1 Y    ALP  0     ROOT ALP Y 8
     6 SEP2       23 GROUP        1 Y    SEP  0     **** SEP Y 9
     7 ASP3       55 GROUP        1 Y    ASP  0     **** ASP Y 10
     8 GLP5        3 GROUP        1 Y    GLP  0     **** GLP Y 13
     9 ALL1        8 GROUP        1 Z    ALL  0     ROOT ALL Z 15
    10 SEL2       22 GROUP        1 Z    SEL  0     **** SEL Z 16
    11 ASL3       54 GROUP        1 Z    ASL  0     **** ASL Z 17
    12 GLL5        2 GROUP        1 Z    GLL  0     **** GLL Z 20
@<TRIPOS>SET

