#    Name: 2p8h_MY9_1_ligand
#    Modification time : Mon Mar 24 18:27:35 2014

@<TRIPOS>MOLECULE
2p8h_MY9_1_ligand
   85    88     1     0     0
SMALL
NO_CHARGES


@<TRIPOS>ATOM
      1 C1         32.1850   44.2740    6.0810 C.ar      1 MY9386      0.0000 
      2 C2         32.6060   45.3040    5.1170 C.ar      1 MY9386      0.0000 
      3 C3         32.5730   46.7340    5.3770 C.ar      1 MY9386      0.0000 
      4 C4         32.1190   47.1660    6.6770 C.ar      1 MY9386      0.0000 
      5 C5         31.7640   46.1370    7.6220 C.ar      1 MY9386      0.0000 
      6 C6         31.7730   44.7050    7.3840 C.ar      1 MY9386      0.0000 
      7 C7         33.1310   44.9540    3.7740 C.3       1 MY9386      0.0000 
      8 N1         32.2070   44.1910    2.9440 N.am      1 MY9386      0.0000 
      9 C8         31.4220   44.6770    1.9210 C.2       1 MY9386      0.0000 
     10 C9         30.4450   43.7270    1.3410 C.ar      1 MY9386      0.0000 
     11 C10        30.7740   42.3320    1.2320 C.ar      1 MY9386      0.0000 
     12 C11        29.8000   41.3750    0.8380 C.ar      1 MY9386      0.0000 
     13 C12        28.4720   41.8070    0.4710 C.ar      1 MY9386      0.0000 
     14 C13        28.1050   43.2000    0.4850 C.ar      1 MY9386      0.0000 
     15 C14        29.1160   44.1440    0.9340 C.ar      1 MY9386      0.0000 
     16 N2         26.8040   43.5560    0.0790 N.pl3     1 MY9386      0.0000 
     17 S1         25.9420   44.7830    0.7850 S.o2      1 MY9386      0.0000 
     18 C15        26.2710   46.3560    0.0070 C.3       1 MY9386      0.0000 
     19 C16        26.2440   43.0030   -1.1970 C.3       1 MY9386      0.0000 
     20 C17        30.1350   39.9540    0.7600 C.2       1 MY9386      0.0000 
     21 O1         31.5470   45.8410    1.5330 O.2       1 MY9386      0.0000 
     22 O2         26.4540   44.9280    2.1180 O.2       1 MY9386      0.0000 
     23 O3         24.5390   44.4870    0.6790 O.2       1 MY9386      0.0000 
     24 O4         29.9030   39.2940   -0.2560 O.2       1 MY9386      0.0000 
     25 C18        34.4420   44.1630    3.9240 C.3       1 MY9386      0.0000 
     26 N3         30.7160   39.4100    1.8720 N.am      1 MY9386      0.0000 
     27 C19        31.4290   38.1100    1.8020 C.3       1 MY9386      0.0000 
     28 C20        32.8820   38.3470    2.2210 C.3       1 MY9386      0.0000 
     29 C21        33.6450   39.4470    1.4640 C.ar      1 MY9386      0.0000 
     30 C22        33.5320   39.6790    0.0090 C.ar      1 MY9386      0.0000 
     31 C23        34.3120   40.7450   -0.5790 C.ar      1 MY9386      0.0000 
     32 C24        35.1670   41.5550    0.2780 C.ar      1 MY9386      0.0000 
     33 C25        35.3140   41.3190    1.7080 C.ar      1 MY9386      0.0000 
     34 C26        34.5170   40.2560    2.3030 C.ar      1 MY9386      0.0000 
     35 C27        30.7540   37.0830    2.7550 C.3       1 MY9386      0.0000 
     36 O5         31.4260   35.9300    2.8070 O.3       1 MY9386      0.0000 
     37 F1         31.3920   46.5360    8.8460 F         1 MY9386      0.0000 
     38 C28        27.5610   35.3400    2.2870 C.3       1 MY9386      0.0000 
     39 N4         28.6070   35.8620    3.1670 N.4       1 MY9386      0.0000 
     40 C29        29.2840   36.8200    2.2840 C.3       1 MY9386      0.0000 
     41 C30        29.2600   36.1190    0.9280 C.2       1 MY9386      0.0000 
     42 N5         28.2100   35.2960    0.9620 N.am      1 MY9386      0.0000 
     43 O6         29.9930   36.2280   -0.0510 O.2       1 MY9386      0.0000 
     44 C31        27.7380   34.4090   -0.1020 C.3       1 MY9386      0.0000 
     45 C32        26.3340   36.2840    2.2470 C.3       1 MY9386      0.0000 
     46 C33        27.1540   33.9620    2.7910 C.3       1 MY9386      0.0000 
     47 H          32.1927   43.3170    5.8194 H         1 MY9386      0.0000 
     48 H          32.8531   47.3845    4.6835 H         1 MY9386      0.0000 
     49 H          32.0546   48.1259    6.9086 H         1 MY9386      0.0000 
     50 H          31.5074   44.0683    8.0892 H         1 MY9386      0.0000 
     51 H          33.4057   45.8863    3.2502 H         1 MY9386      0.0000 
     52 H          32.1542   43.1487    3.1765 H         1 MY9386      0.0000 
     53 H          31.7290   42.0294    1.4435 H         1 MY9386      0.0000 
     54 H          27.7791   41.1090    0.1958 H         1 MY9386      0.0000 
     55 H          28.8796   45.1416    0.9636 H         1 MY9386      0.0000 
     56 H          30.6868   39.8662    2.7889 H         1 MY9386      0.0000 
     57 H          31.4095   37.7257    0.8101 H         1 MY9386      0.0000 
     58 H          33.4440   37.3927    2.1144 H         1 MY9386      0.0000 
     59 H          32.9052   38.5872    3.3072 H         1 MY9386      0.0000 
     60 H          32.9314   39.1092   -0.5386 H         1 MY9386      0.0000 
     61 H          34.2683   40.9281   -1.5632 H         1 MY9386      0.0000 
     62 H          35.6926   42.3314   -0.1471 H         1 MY9386      0.0000 
     63 H          35.9338   41.8623    2.2552 H         1 MY9386      0.0000 
     64 H          34.5688   40.0810    3.2920 H         1 MY9386      0.0000 
     65 H          30.6644   37.5800    3.7294 H         1 MY9386      0.0000 
     66 H          28.7535   37.7222    2.2198 H         1 MY9386      0.0000 
     67 H          27.2371   46.6064    0.0694 H         1 MY9386      0.0000 
     68 H          26.0327   46.3471   -0.9641 H         1 MY9386      0.0000 
     69 H          25.7485   47.0962    0.4302 H         1 MY9386      0.0000 
     70 H          26.7957   43.2648   -1.9889 H         1 MY9386      0.0000 
     71 H          26.2060   42.0038   -1.1836 H         1 MY9386      0.0000 
     72 H          25.3142   43.3295   -1.3667 H         1 MY9386      0.0000 
     73 H          34.8263   43.9092    3.0363 H         1 MY9386      0.0000 
     74 H          35.1412   44.6910    4.4060 H         1 MY9386      0.0000 
     75 H          34.3079   43.3159    4.4383 H         1 MY9386      0.0000 
     76 H          28.2843   34.5039   -0.9342 H         1 MY9386      0.0000 
     77 H          27.7818   33.4475    0.1693 H         1 MY9386      0.0000 
     78 H          26.7886   34.6003   -0.3511 H         1 MY9386      0.0000 
     79 H          26.5758   37.1932    1.9080 H         1 MY9386      0.0000 
     80 H          25.6131   35.9310    1.6506 H         1 MY9386      0.0000 
     81 H          25.9303   36.4070    3.1536 H         1 MY9386      0.0000 
     82 H          27.9236   33.3235    2.7888 H         1 MY9386      0.0000 
     83 H          26.8051   33.9972    3.7275 H         1 MY9386      0.0000 
     84 H          26.4355   33.5570    2.2255 H         1 MY9386      0.0000 
     85 H          32.1200   36.0667    3.5139 H         1 MY9386      0.0000 
@<TRIPOS>BOND
     1    2    1 ar   
     2    6    1 ar   
     3   47    1 1    
     4    3    2 ar   
     5    7    2 1    
     6    4    3 ar   
     7   48    3 1    
     8    5    4 ar   
     9   49    4 1    
    10    6    5 ar   
    11   37    5 1    
    12   50    6 1    
    13    8    7 1    
    14   25    7 1    
    15   51    7 1    
    16    9    8 am   
    17   52    8 1    
    18   10    9 1    
    19   21    9 2    
    20   11   10 ar   
    21   15   10 ar   
    22   12   11 ar   
    23   53   11 1    
    24   13   12 ar   
    25   20   12 1    
    26   14   13 ar   
    27   54   13 1    
    28   15   14 ar   
    29   16   14 1    
    30   55   15 1    
    31   17   16 1    
    32   19   16 1    
    33   18   17 1    
    34   22   17 2    
    35   23   17 2    
    36   67   18 1    
    37   68   18 1    
    38   69   18 1    
    39   70   19 1    
    40   71   19 1    
    41   72   19 1    
    42   24   20 2    
    43   26   20 am   
    44   73   25 1    
    45   74   25 1    
    46   75   25 1    
    47   27   26 1    
    48   56   26 1    
    49   28   27 1    
    50   35   27 1    
    51   57   27 1    
    52   29   28 1    
    53   58   28 1    
    54   59   28 1    
    55   30   29 ar   
    56   34   29 ar   
    57   31   30 ar   
    58   60   30 1    
    59   32   31 ar   
    60   61   31 1    
    61   33   32 ar   
    62   62   32 1    
    63   34   33 ar   
    64   63   33 1    
    65   64   34 1    
    66   36   35 1    
    67   40   35 1    
    68   65   35 1    
    69   85   36 1    
    70   39   38 1    
    71   42   38 1    
    72   45   38 1    
    73   46   38 1    
    74   40   39 1    
    75   41   40 1    
    76   66   40 1    
    77   42   41 am   
    78   43   41 2    
    79   44   42 1    
    80   76   44 1    
    81   77   44 1    
    82   78   44 1    
    83   79   45 1    
    84   80   45 1    
    85   81   45 1    
    86   82   46 1    
    87   83   46 1    
    88   84   46 1    
@<TRIPOS>SUBSTRUCTURE
     1 MY9386      1 GROUP   
@<TRIPOS>SET

