#    Name: 3zlq_6T9_2_INTS_M
#    Modification time : Tue Mar 25 03:39:48 2014

@<TRIPOS>MOLECULE
3zlq_6T9_2_INTS_M
   55     0     6     0     0
SMALL
NO_CHARGES


@<TRIPOS>ATOM
      1 CA          8.4155   23.1530   17.2015 C.3       2 GLC5        0.0000 
      2 CA          7.1790   24.5410   15.9410 C.3       6 GLL5        0.0000 
      3 CA          9.6520   21.7650   18.4620 C.3       4 GLP5        0.0000 
      4 O           7.1395   25.3645   18.1880 O.2       1 ALC1        0.0000 
      5 O           6.5180   24.9440   16.9720 O.2       5 ALL1        0.0000 
      6 O           7.7610   25.7850   19.4040 O.2       3 ALP1        0.0000 
      7 CA          5.4890   21.6640   20.3840 C.3       2 GLC5        0.0000 
      8 CA          4.6710   21.6600   18.4980 C.3       6 GLL5        0.0000 
      9 CA          6.3070   21.6680   22.2700 C.3       4 GLP5        0.0000 
     10 CA          0.6445   25.3055   17.0725 C.3       2 GLC5        0.0000 
     11 CA          2.3030   24.8320   17.6340 C.3       6 GLL5        0.0000 
     12 CA         -1.0140   25.7790   16.5110 C.3       4 GLP5        0.0000 
     13 CA          1.2290   24.8580   19.1335 C.3       2 GLC5        0.0000 
     14 CA          0.1550   24.8840   20.6330 C.3       4 GLP5        0.0000 
     15 O           9.1540   24.8620   17.4635 O.2       1 ALC1        0.0000 
     16 O           8.5210   24.5100   16.0260 O.2       5 ALL1        0.0000 
     17 O           9.7870   25.2140   18.9010 O.2       3 ALP1        0.0000 
     18 O           9.4245   24.0870   15.5170 O.2       1 ALC1        0.0000 
     19 O          10.3280   23.6640   15.0080 O.2       3 ALP1        0.0000 
     20 CA          5.9005   27.7695   18.0255 C.3       2 GLC5        0.0000 
     21 CA          4.5290   26.2840   17.7390 C.3       6 GLL5        0.0000 
     22 CA          7.2720   29.2550   18.3120 C.3       4 GLP5        0.0000 
     23 CA          4.8940   25.7220   19.5495 C.3       2 GLC5        0.0000 
     24 CA          5.2590   25.1600   21.3600 C.3       4 GLP5        0.0000 
     25 O           6.7295   20.8475   17.8525 O.2       1 ALC1        0.0000 
     26 O           5.5580   20.6070   18.7140 O.2       5 ALL1        0.0000 
     27 O           7.9010   21.0880   16.9910 O.2       3 ALP1        0.0000 
     28 CA          6.2910   20.0585   20.8430 C.3       2 GLC5        0.0000 
     29 CA          6.2750   18.4490   19.4160 C.3       6 GLL5        0.0000 
     30 CA          8.0900   19.0545   21.3140 C.3       2 GLC5        0.0000 
     31 CA          8.5580   18.2270   19.3460 C.3       6 GLL5        0.0000 
     32 CA          7.6220   19.8820   23.2820 C.3       4 GLP5        0.0000 
     33 CA          9.1050   19.9960   18.9040 C.3       2 GLC5        0.0000 
     34 CA          6.9665   14.7410   20.7765 C.3       2 GLC5        0.0000 
     35 CA          7.1750   16.2730   19.5340 C.3       6 GLL5        0.0000 
     36 CA          6.7580   13.2090   22.0190 C.3       4 GLP5        0.0000 
     37 CA          1.6105   25.2670   14.9120 C.3       2 GLC5        0.0000 
     38 CA          3.2260   24.9450   15.5190 C.3       6 GLL5        0.0000 
     39 CA         -0.0050   25.5890   14.3050 C.3       4 GLP5        0.0000 
     40 CA         10.5405   16.2930   17.3030 C.3       2 GLC5        0.0000 
     41 CA         10.8210   16.7780   19.1660 C.3       6 GLL5        0.0000 
     42 CA         10.2600   15.8080   15.4400 C.3       4 GLP5        0.0000 
     43 CA         12.6950   16.2690   21.8875 C.3       2 GLC5        0.0000 
     44 CA         11.8160   16.3030   20.2220 C.3       6 GLL5        0.0000 
     45 CA         13.5740   16.2350   23.5530 C.3       4 GLP5        0.0000 
     46 CA          4.6434   24.4217   19.5644 C.3       2 GLC5        0.0000 
     47 CA          4.4270   23.8210   17.6350 C.3       6 GLL5        0.0000 
     48 CA          8.7440   16.9215   21.0418 C.3       2 GLC5        0.0000 
     49 CA          8.9940   16.2940   22.6870 C.3       4 GLP5        0.0000 
     50 CA          7.8022   16.4843   21.1033 C.3       2 GLC5        0.0000 
     51 CA         11.8552   14.7132   20.0765 C.3       2 GLC5        0.0000 
     52 CA         12.3920   12.8860   20.4590 C.3       4 GLP5        0.0000 
     53 CA         10.1562   16.4173   21.1905 C.3       2 GLC5        0.0000 
     54 CA         12.5808   16.0832   18.6460 C.3       2 GLC5        0.0000 
     55 CA         13.8430   15.6260   17.5980 C.3       4 GLP5        0.0000 
@<TRIPOS>BOND
@<TRIPOS>SUBSTRUCTURE
     1 ALC1        4 GROUP        1 X    ALC  0     ROOT ALC X 1
     2 GLC5        1 GROUP        1 X    GLC  0     **** GLC X 6
     3 ALP1        6 GROUP        1 Y    ALP  0     ROOT ALP Y 8
     4 GLP5        3 GROUP        1 Y    GLP  0     **** GLP Y 13
     5 ALL1        5 GROUP        1 Z    ALL  0     ROOT ALL Z 15
     6 GLL5        2 GROUP        1 Z    GLL  0     **** GLL Z 20
@<TRIPOS>SET

