#    Name: 3zlq_6T9_2_ligand
#    Modification time : Tue Mar 25 03:39:48 2014

@<TRIPOS>MOLECULE
3zlq_6T9_2_ligand
   49    51     1     0     0
SMALL
NO_CHARGES


@<TRIPOS>ATOM
      1 C1          5.2360   24.0250   14.7130 C.3       1 6T91398     0.0000 
      2 C2          4.5880   25.1270   15.5550 C.3       1 6T91398     0.0000 
      3 O3          6.6630   24.1510   14.7570 O.3       1 6T91398     0.0000 
      4 C4          7.1790   24.5410   15.9410 C.2       1 6T91398     0.0000 
      5 N5          6.5180   24.9440   16.9720 N.pl3     1 6T91398     0.0000 
      6 C6          5.0470   25.0400   17.0040 C.3       1 6T91398     0.0000 
      7 C7          4.4270   23.8210   17.6350 C.ar      1 6T91398     0.0000 
      8 C8          5.2140   22.7670   17.8880 C.ar      1 6T91398     0.0000 
      9 C9          4.6710   21.6600   18.4980 C.ar      1 6T91398     0.0000 
     10 C10         3.3190   21.5750   18.8240 C.ar      1 6T91398     0.0000 
     11 C11         2.5120   22.6490   18.5470 C.ar      1 6T91398     0.0000 
     12 C12         3.0800   23.7680   17.9340 C.ar      1 6T91398     0.0000 
     13 F13         2.3030   24.8320   17.6340 F         1 6T91398     0.0000 
     14 N14         8.5210   24.5100   16.0260 N.pl3     1 6T91398     0.0000 
     15 C15         4.5290   26.2840   17.7390 C.3       1 6T91398     0.0000 
     16 N16         5.5580   20.6070   18.7140 N.am      1 6T91398     0.0000 
     17 C17         5.1990   19.4580   19.3330 C.2       1 6T91398     0.0000 
     18 C18         6.2750   18.4490   19.4160 C.ar      1 6T91398     0.0000 
     19 O19         4.0630   19.2530   19.7190 O.2       1 6T91398     0.0000 
     20 N20         7.4870   18.9510   19.3150 N.ar      1 6T91398     0.0000 
     21 C21         8.5580   18.2270   19.3460 C.ar      1 6T91398     0.0000 
     22 C22         8.4300   16.8710   19.4470 C.ar      1 6T91398     0.0000 
     23 C23         7.1750   16.2730   19.5340 C.ar      1 6T91398     0.0000 
     24 C24         6.0460   17.0760   19.5050 C.ar      1 6T91398     0.0000 
     25 O25         9.5670   16.1550   19.4410 O.3       1 6T91398     0.0000 
     26 F26         4.8630   26.4220   15.1500 F         1 6T91398     0.0000 
     27 F27         3.2260   24.9450   15.5190 F         1 6T91398     0.0000 
     28 C28        10.8210   16.7780   19.1660 C.3       1 6T91398     0.0000 
     29 C29        11.8160   16.3030   20.2220 C.3       1 6T91398     0.0000 
     30 H           4.8528   24.1170   13.6902 H         1 6T91398     0.0000 
     31 H           4.9023   23.0601   15.1116 H         1 6T91398     0.0000 
     32 H           6.9828   25.2371   17.8756 H         1 6T91398     0.0000 
     33 H           6.2153   22.7690   17.6354 H         1 6T91398     0.0000 
     34 H           2.9479   20.7298   19.2581 H         1 6T91398     0.0000 
     35 H           1.5188   22.6419   18.7787 H         1 6T91398     0.0000 
     36 H           9.0057   24.1807   15.2157 H         1 6T91398     0.0000 
     37 H           8.9143   24.8190   16.8919 H         1 6T91398     0.0000 
     38 H           6.5489   20.7269   18.3740 H         1 6T91398     0.0000 
     39 H           9.5132   18.6364   19.2971 H         1 6T91398     0.0000 
     40 H           7.0917   15.2585   19.6178 H         1 6T91398     0.0000 
     41 H           5.1206   16.6980   19.5452 H         1 6T91398     0.0000 
     42 H          10.7596   17.8625   19.2267 H         1 6T91398     0.0000 
     43 H          11.2097   16.4985   18.1890 H         1 6T91398     0.0000 
     44 H           4.7995   26.2861   18.7017 H         1 6T91398     0.0000 
     45 H           4.8806   27.1280   17.3339 H         1 6T91398     0.0000 
     46 H           3.5309   26.3409   17.7149 H         1 6T91398     0.0000 
     47 H          12.7221   16.7033   20.0852 H         1 6T91398     0.0000 
     48 H          11.5231   16.5495   21.1458 H         1 6T91398     0.0000 
     49 H          11.9289   15.3095   20.2056 H         1 6T91398     0.0000 
@<TRIPOS>BOND
     1    2    1 1    
     2    3    1 1    
     3   30    1 1    
     4   31    1 1    
     5    6    2 1    
     6   26    2 1    
     7   27    2 1    
     8    4    3 1    
     9    5    4 2    
    10   14    4 1    
    11    6    5 1    
    12   32    5 1    
    13    7    6 1    
    14   15    6 1    
    15    8    7 ar   
    16   12    7 ar   
    17    9    8 ar   
    18   33    8 1    
    19   10    9 ar   
    20   16    9 1    
    21   11   10 ar   
    22   34   10 1    
    23   12   11 ar   
    24   35   11 1    
    25   13   12 1    
    26   36   14 1    
    27   37   14 1    
    28   44   15 1    
    29   45   15 1    
    30   46   15 1    
    31   17   16 am   
    32   38   16 1    
    33   18   17 1    
    34   19   17 2    
    35   20   18 ar   
    36   24   18 ar   
    37   21   20 ar   
    38   22   21 ar   
    39   39   21 1    
    40   23   22 ar   
    41   25   22 1    
    42   24   23 ar   
    43   40   23 1    
    44   41   24 1    
    45   28   25 1    
    46   29   28 1    
    47   42   28 1    
    48   43   28 1    
    49   47   29 1    
    50   48   29 1    
    51   49   29 1    
@<TRIPOS>SUBSTRUCTURE
     1 6T91398     1 GROUP   
@<TRIPOS>SET

