#    Name: 3c4w_ATP_2_INTS_M
#    Modification time : Mon Mar 24 20:31:14 2014

@<TRIPOS>MOLECULE
3c4w_ATP_2_INTS_M
   55     0    15     0     0
SMALL
NO_CHARGES


@<TRIPOS>ATOM
      1 Zn       -109.9015   59.3095  -49.0515 Zn        4 ZIC7        0.0000 
      2 Zn       -110.7700   59.0050  -50.0750 Zn       14 ZIL7        0.0000 
      3 Zn       -109.0330   59.6140  -48.0280 Zn        9 ZIP7        0.0000 
      4 N        -107.0380   60.0260  -53.3215 N.am      2 SEC2        0.0000 
      5 N        -106.9060   59.4420  -52.0840 N.am     12 SEL2        0.0000 
      6 N        -107.1700   60.6100  -54.5590 N.am      7 SEP2        0.0000 
      7 NZ       -106.8385   57.6665  -49.2720 N.4       3 LYC4        0.0000 
      8 NZ       -107.8730   58.5210  -49.7590 N.4      13 LYL4        0.0000 
      9 NZ       -105.8040   56.8120  -48.7850 N.4       8 LYP4        0.0000 
     10 Zn       -108.4530   59.0675  -48.8935 Zn        4 ZIC7        0.0000 
     11 Zn       -107.8730   58.5210  -49.7590 Zn       14 ZIL7        0.0000 
     12 N        -106.8385   57.6665  -49.2720 N.am      2 SEC2        0.0000 
     13 N        -107.8730   58.5210  -49.7590 N.am     12 SEL2        0.0000 
     14 N        -105.8040   56.8120  -48.7850 N.am      7 SEP2        0.0000 
     15 NZ       -106.5765   55.9855  -49.3365 N.4       3 LYC4        0.0000 
     16 NZ       -107.3490   55.1590  -49.8880 N.4      13 LYL4        0.0000 
     17 N        -106.5765   55.9855  -49.3365 N.am      2 SEC2        0.0000 
     18 N        -107.3490   55.1590  -49.8880 N.am     12 SEL2        0.0000 
     19 Zn       -110.3385   55.4900  -51.4065 Zn        4 ZIC7        0.0000 
     20 Zn       -109.2550   55.7080  -51.6030 Zn       14 ZIL7        0.0000 
     21 Zn       -111.4220   55.2720  -51.2100 Zn        9 ZIP7        0.0000 
     22 CA       -107.0700   56.6555  -54.4950 C.3       5 GLC5        0.0000 
     23 CA       -107.4190   54.9810  -53.7810 C.3      15 GLL5        0.0000 
     24 CA       -106.7210   58.3300  -55.2090 C.3      10 GLP5        0.0000 
     25 CA       -106.5810   52.8870  -56.1845 C.3       5 GLC5        0.0000 
     26 CA       -107.6270   53.6430  -54.4870 C.3      15 GLL5        0.0000 
     27 CA       -105.5350   52.1310  -57.8820 C.3      10 GLP5        0.0000 
     28 CA       -106.0910   51.8390  -55.9855 C.3       5 GLC5        0.0000 
     29 CA       -106.6470   51.5470  -54.0890 C.3      15 GLL5        0.0000 
     30 CA       -105.0305   52.8165  -53.7875 C.3       5 GLC5        0.0000 
     31 CA       -103.4140   54.0860  -53.4860 C.3      10 GLP5        0.0000 
     32 CA       -105.5885   46.7735  -50.4185 C.3       5 GLC5        0.0000 
     33 CA       -104.6310   48.6950  -50.6560 C.3      15 GLL5        0.0000 
     34 CA       -106.5460   44.8520  -50.1810 C.3      10 GLP5        0.0000 
     35 O        -103.4595   47.6275  -48.7280 O.2       1 ALC1        0.0000 
     36 O        -104.2630   48.5850  -49.3750 O.2      11 ALL1        0.0000 
     37 O        -102.6560   46.6700  -48.0810 O.2       6 ALP1        0.0000 
     38 N        -104.3065   46.2175  -51.1225 N.am      2 SEC2        0.0000 
     39 N        -104.4670   47.6730  -51.5060 N.am     12 SEL2        0.0000 
     40 N        -104.1460   44.7620  -50.7390 N.am      7 SEP2        0.0000 
     41 CA       -103.3815   47.8530  -53.5950 C.3       5 GLC5        0.0000 
     42 CA       -104.8430   47.7580  -52.7840 C.3      15 GLL5        0.0000 
     43 CA       -101.9200   47.9480  -54.4060 C.3      10 GLP5        0.0000 
     44 CA       -102.9715   48.2360  -51.8495 C.3       5 GLC5        0.0000 
     45 CA       -101.1000   48.7140  -50.9150 C.3      10 GLP5        0.0000 
     46 CA       -105.1425   45.9300  -51.8550 C.3       5 GLC5        0.0000 
     47 CA       -105.4420   44.1020  -50.9260 C.3      10 GLP5        0.0000 
     48 CA       -105.4685   54.1990  -53.8100 C.3       5 GLC5        0.0000 
     49 CA       -103.8895   50.8780  -52.5165 C.3       5 GLC5        0.0000 
     50 CA       -105.6140   49.9580  -52.5350 C.3      15 GLL5        0.0000 
     51 CA       -102.3540   51.8090  -53.1990 C.3      10 GLP5        0.0000 
     52 CA       -103.0168   49.0147  -50.9047 C.3       5 GLC5        0.0000 
     53 CA       -105.2360   49.9360  -51.1330 C.3      15 GLL5        0.0000 
     54 CA       -106.7899   49.1379  -50.7694 C.3       5 GLC5        0.0000 
     55 CA       -108.3060   48.6390  -49.8240 C.3      10 GLP5        0.0000 
@<TRIPOS>BOND
@<TRIPOS>SUBSTRUCTURE
     1 ALC1       35 GROUP        1 X    ALC  0     ROOT ALC X 1
     2 SEC2        4 GROUP        1 X    SEC  0     **** SEC X 2
     3 LYC4        7 GROUP        1 X    LYC  0     **** LYC X 4
     4 ZIC7        1 GROUP        1 X    ZIC  0     **** ZIC X 5
     5 GLC5       22 GROUP        1 X    GLC  0     **** GLC X 6
     6 ALP1       37 GROUP        1 Y    ALP  0     ROOT ALP Y 8
     7 SEP2        6 GROUP        1 Y    SEP  0     **** SEP Y 9
     8 LYP4        9 GROUP        1 Y    LYP  0     **** LYP Y 11
     9 ZIP7        3 GROUP        1 Y    ZIP  0     **** ZIP Y 12
    10 GLP5       24 GROUP        1 Y    GLP  0     **** GLP Y 13
    11 ALL1       36 GROUP        1 Z    ALL  0     ROOT ALL Z 15
    12 SEL2        5 GROUP        1 Z    SEL  0     **** SEL Z 16
    13 LYL4        8 GROUP        1 Z    LYL  0     **** LYL Z 18
    14 ZIL7        2 GROUP        1 Z    ZIL  0     **** ZIL Z 19
    15 GLL5       23 GROUP        1 Z    GLL  0     **** GLL Z 20
@<TRIPOS>SET

