#    Name: 3c4w_ATP_2_ligand
#    Modification time : Mon Mar 24 20:31:14 2014

@<TRIPOS>MOLECULE
3c4w_ATP_2_ligand
   43    45     1     0     0
SMALL
NO_CHARGES


@<TRIPOS>ATOM
      1 PG       -110.3040   59.4900  -51.4030 P.3       1 ATP562      0.0000 
      2 O1G      -109.6380   60.8520  -51.3470 O.co2     1 ATP562      0.0000 
      3 O2G      -110.7700   59.0050  -50.0750 O.co2     1 ATP562      0.0000 
      4 O3G      -111.3230   59.2810  -52.4850 O.co2     1 ATP562      0.0000 
      5 PB       -107.6940   58.4530  -51.2490 P.3       1 ATP562      0.0000 
      6 O1B      -106.9060   59.4420  -52.0840 O.co2     1 ATP562      0.0000 
      7 O2B      -107.8730   58.5210  -49.7590 O.co2     1 ATP562      0.0000 
      8 O3B      -109.1650   58.4500  -51.8740 O.3       1 ATP562      0.0000 
      9 PA       -107.7960   55.6080  -51.2770 P.3       1 ATP562      0.0000 
     10 O1A      -107.3490   55.1590  -49.8880 O.co2     1 ATP562      0.0000 
     11 O2A      -109.2550   55.7080  -51.6030 O.co2     1 ATP562      0.0000 
     12 O3A      -107.0830   57.0080  -51.6090 O.3       1 ATP562      0.0000 
     13 O5'      -107.1300   54.7230  -52.4110 O.3       1 ATP562      0.0000 
     14 C5'      -107.4190   54.9810  -53.7810 C.3       1 ATP562      0.0000 
     15 C4'      -107.6270   53.6430  -54.4870 C.3       1 ATP562      0.0000 
     16 O4'      -106.4040   52.9070  -54.4140 O.3       1 ATP562      0.0000 
     17 C3'      -108.6770   52.7600  -53.8270 C.3       1 ATP562      0.0000 
     18 O3'      -109.9750   52.9760  -54.3880 O.3       1 ATP562      0.0000 
     19 C2'      -108.1420   51.3620  -54.0550 C.3       1 ATP562      0.0000 
     20 O2'      -108.5240   50.8160  -55.3100 O.3       1 ATP562      0.0000 
     21 C1'      -106.6470   51.5470  -54.0890 C.3       1 ATP562      0.0000 
     22 N9       -106.1300   51.1640  -52.7600 N.pl3     1 ATP562      0.0000 
     23 C8       -106.1010   51.8850  -51.6150 C.2       1 ATP562      0.0000 
     24 N7       -105.5580   51.1380  -50.6120 N.2       1 ATP562      0.0000 
     25 C5       -105.2360   49.9360  -51.1330 C.ar      1 ATP562      0.0000 
     26 C6       -104.6310   48.6950  -50.6560 C.ar      1 ATP562      0.0000 
     27 N6       -104.2630   48.5850  -49.3750 N.pl3     1 ATP562      0.0000 
     28 N1       -104.4670   47.6730  -51.5060 N.ar      1 ATP562      0.0000 
     29 C2       -104.8430   47.7580  -52.7840 C.ar      1 ATP562      0.0000 
     30 N3       -105.3980   48.8700  -53.3010 N.ar      1 ATP562      0.0000 
     31 C4       -105.6140   49.9580  -52.5350 C.ar      1 ATP562      0.0000 
     32 H        -106.5999   55.4992  -54.2815 H         1 ATP562      0.0000 
     33 H        -108.3298   55.5687  -53.9035 H         1 ATP562      0.0000 
     34 H        -107.9026   53.8131  -55.5045 H         1 ATP562      0.0000 
     35 H        -108.6365   52.9591  -52.7694 H         1 ATP562      0.0000 
     36 H        -108.3824   50.7508  -53.2311 H         1 ATP562      0.0000 
     37 H        -106.2585   50.8814  -54.8388 H         1 ATP562      0.0000 
     38 H        -106.4180   52.7977  -51.5167 H         1 ATP562      0.0000 
     39 H        -104.4448   49.3792  -48.7952 H         1 ATP562      0.0000 
     40 H        -103.8391   47.7184  -49.1118 H         1 ATP562      0.0000 
     41 H        -104.7011   46.9201  -53.4202 H         1 ATP562      0.0000 
     42 H        -110.5990   52.9688  -53.6066 H         1 ATP562      0.0000 
     43 H        -109.2573   51.4112  -55.6386 H         1 ATP562      0.0000 
@<TRIPOS>BOND
     1    2    1 ar   
     2    3    1 ar   
     3    4    1 ar   
     4    8    1 1    
     5    6    5 ar   
     6    7    5 ar   
     7    8    5 1    
     8   12    5 1    
     9   10    9 ar   
    10   11    9 ar   
    11   12    9 1    
    12   13    9 1    
    13   14   13 1    
    14   15   14 1    
    15   32   14 1    
    16   33   14 1    
    17   16   15 1    
    18   17   15 1    
    19   34   15 1    
    20   21   16 1    
    21   18   17 1    
    22   19   17 1    
    23   35   17 1    
    24   42   18 1    
    25   20   19 1    
    26   21   19 1    
    27   36   19 1    
    28   43   20 1    
    29   22   21 1    
    30   37   21 1    
    31   23   22 1    
    32   31   22 1    
    33   24   23 2    
    34   38   23 1    
    35   25   24 1    
    36   26   25 ar   
    37   31   25 ar   
    38   27   26 1    
    39   28   26 ar   
    40   39   27 1    
    41   40   27 1    
    42   29   28 ar   
    43   30   29 ar   
    44   41   29 1    
    45   31   30 ar   
@<TRIPOS>SUBSTRUCTURE
     1 ATP562      1 GROUP   
@<TRIPOS>SET

