#    Name: 2bxl_DIU_1_INTS_M
#    Modification time : Mon Mar 24 21:54:51 2014

@<TRIPOS>MOLECULE
2bxl_DIU_1_INTS_M
   35     0     3     0     0
SMALL
NO_CHARGES


@<TRIPOS>ATOM
      1 CA         34.3465   16.0310   11.6240 C.3       1 GLC5        0.0000 
      2 CA         35.0390   14.7650   10.2780 C.3       3 GLL5        0.0000 
      3 CA         33.6540   17.2970   12.9700 C.3       2 GLP5        0.0000 
      4 CA         33.7080   16.8600   10.6020 C.3       1 GLC5        0.0000 
      5 CA         34.2620   15.4110    9.2510 C.3       3 GLL5        0.0000 
      6 CA         33.1540   18.3090   11.9530 C.3       2 GLP5        0.0000 
      7 CA         36.6495   17.6210    6.6075 C.3       1 GLC5        0.0000 
      8 CA         36.3110   16.4180    8.3310 C.3       3 GLL5        0.0000 
      9 CA         36.9880   18.8240    4.8840 C.3       2 GLP5        0.0000 
     10 CA         32.3045   16.7600    5.8560 C.3       1 GLC5        0.0000 
     11 CA         33.8340   17.1560    6.8070 C.3       3 GLL5        0.0000 
     12 CA         30.7750   16.3640    4.9050 C.3       2 GLP5        0.0000 
     13 CA         33.0375   18.4635    5.3895 C.3       1 GLC5        0.0000 
     14 CA         32.2410   19.7710    3.9720 C.3       2 GLP5        0.0000 
     15 CA         35.4110   17.9900    5.8455 C.3       1 GLC5        0.0000 
     16 CA         34.7310   18.8095    7.7130 C.3       1 GLC5        0.0000 
     17 CA         35.6280   20.4630    8.6190 C.3       2 GLP5        0.0000 
     18 CA         40.7310   14.8965    9.7720 C.3       1 GLC5        0.0000 
     19 CA         39.1110   16.0900    9.3510 C.3       3 GLL5        0.0000 
     20 CA         42.3510   13.7030   10.1930 C.3       2 GLP5        0.0000 
     21 CA         40.0210   15.5245    7.7075 C.3       1 GLC5        0.0000 
     22 CA         40.9310   14.9590    6.0640 C.3       2 GLP5        0.0000 
     23 CA         40.5095   17.6490    9.3060 C.3       1 GLC5        0.0000 
     24 CA         41.9080   19.2080    9.2610 C.3       2 GLP5        0.0000 
     25 CA         39.5225   16.8745   11.0035 C.3       1 GLC5        0.0000 
     26 CA         39.9340   17.6590   12.6560 C.3       2 GLP5        0.0000 
     27 CA         35.0892   13.6760    8.6043 C.3       1 GLC5        0.0000 
     28 CA         35.5280   12.2640    7.4440 C.3       2 GLP5        0.0000 
     29 CA         35.5692   14.2955    7.8765 C.3       1 GLC5        0.0000 
     30 CA         34.9100   16.2360    8.2870 C.3       3 GLL5        0.0000 
     31 CA         35.6192   18.3950    8.4640 C.3       1 GLC5        0.0000 
     32 CA         37.6848   15.0532    7.3003 C.3       1 GLC5        0.0000 
     33 CA         38.6730   14.0010    5.7710 C.3       2 GLP5        0.0000 
     34 CA         36.1490   13.8205    8.6303 C.3       1 GLC5        0.0000 
     35 CA         37.0820   15.7930    9.3280 C.3       3 GLL5        0.0000 
@<TRIPOS>BOND
@<TRIPOS>SUBSTRUCTURE
     1 GLC5        1 GROUP        1 X    GLC  0     ROOT GLC X 6
     2 GLP5        3 GROUP        1 Y    GLP  0     ROOT GLP Y 13
     3 GLL5        2 GROUP        1 Z    GLL  0     ROOT GLL Z 20
@<TRIPOS>SET

