#    Name: 2bxl_DIU_1_ligand
#    Modification time : Mon Mar 24 21:54:51 2014

@<TRIPOS>MOLECULE
2bxl_DIU_1_ligand
   15    15     1     0     0
SMALL
NO_CHARGES


@<TRIPOS>ATOM
      1 C          34.4220   13.9350   11.2480 C.2       1 DIU3001     0.0000 
      2 O1         33.2470   14.1560   11.6120 O.co2     1 DIU3001     0.0000 
      3 O2         35.0440   12.9670   11.7530 O.co2     1 DIU3001     0.0000 
      4 O3         32.8920   15.2470    9.1900 O.3       1 DIU3001     0.0000 
      5 C1         35.0390   14.7650   10.2780 C.ar      1 DIU3001     0.0000 
      6 C2         34.2620   15.4110    9.2510 C.ar      1 DIU3001     0.0000 
      7 C3         34.9100   16.2360    8.2870 C.ar      1 DIU3001     0.0000 
      8 C4         36.3110   16.4180    8.3310 C.ar      1 DIU3001     0.0000 
      9 C5         37.0820   15.7930    9.3280 C.ar      1 DIU3001     0.0000 
     10 C6         36.4580   14.9610   10.3050 C.ar      1 DIU3001     0.0000 
     11 I1         33.8340   17.1560    6.8070 I         1 DIU3001     0.0000 
     12 I2         39.1110   16.0900    9.3510 I         1 DIU3001     0.0000 
     13 H          36.7664   17.0111    7.6291 H         1 DIU3001     0.0000 
     14 H          37.0173   14.5068   11.0202 H         1 DIU3001     0.0000 
     15 H          32.6405   14.8425   10.0693 H         1 DIU3001     0.0000 
@<TRIPOS>BOND
     1    2    1 ar   
     2    3    1 ar   
     3    5    1 1    
     4    6    4 1    
     5   15    4 1    
     6    6    5 ar   
     7   10    5 ar   
     8    7    6 ar   
     9    8    7 ar   
    10   11    7 1    
    11    9    8 ar   
    12   13    8 1    
    13   10    9 ar   
    14   12    9 1    
    15   14   10 1    
@<TRIPOS>SUBSTRUCTURE
     1 DIU3001     1 GROUP   
@<TRIPOS>SET

