#    Name: 4a84_DXC_2_INTS_M
#    Modification time : Tue Mar 25 05:15:21 2014

@<TRIPOS>MOLECULE
4a84_DXC_2_INTS_M
   63     0     6     0     0
SMALL
NO_CHARGES


@<TRIPOS>ATOM
      1 CA         11.4510    5.1760   21.6155 C.3       2 GLC5        0.0000 
      2 CA          9.5450    5.7940   21.8400 C.3       6 GLL5        0.0000 
      3 CA         13.3570    4.5580   21.3910 C.3       4 GLP5        0.0000 
      4 CA          9.5320    7.1655   19.0495 C.3       2 GLC5        0.0000 
      5 CA          7.8610    6.7220   20.3230 C.3       6 GLL5        0.0000 
      6 CA         11.2030    7.6090   17.7760 C.3       4 GLP5        0.0000 
      7 CA          8.4175    0.6485   20.6005 C.3       2 GLC5        0.0000 
      8 CA          7.1590    2.3340   20.0140 C.3       6 GLL5        0.0000 
      9 CA          9.6760   -1.0370   21.1870 C.3       4 GLP5        0.0000 
     10 CA          6.6350    4.0385   22.4110 C.3       2 GLC5        0.0000 
     11 CA          6.2170    4.6860   20.3230 C.3       6 GLL5        0.0000 
     12 CA          7.0530    3.3910   24.4990 C.3       4 GLP5        0.0000 
     13 CA          5.2115    3.0130   22.6400 C.3       2 GLC5        0.0000 
     14 CA          4.7380    2.6610   20.5340 C.3       6 GLL5        0.0000 
     15 CA          5.6850    3.3650   24.7460 C.3       4 GLP5        0.0000 
     16 CA          2.2770   -0.6360   21.3120 C.3       2 GLC5        0.0000 
     17 CA          2.9020    1.1580   20.7480 C.3       6 GLL5        0.0000 
     18 CA          1.6520   -2.4300   21.8760 C.3       4 GLP5        0.0000 
     19 CA          1.7500    0.7305   19.2195 C.3       2 GLC5        0.0000 
     20 CA          0.5980    0.3030   17.6910 C.3       4 GLP5        0.0000 
     21 CA          5.7925    5.9735   16.9040 C.3       2 GLC5        0.0000 
     22 CA          7.2370    5.6690   18.2260 C.3       6 GLL5        0.0000 
     23 CA          4.3480    6.2780   15.5820 C.3       4 GLP5        0.0000 
     24 CA          7.8965    6.7635   16.8300 C.3       2 GLC5        0.0000 
     25 CA          8.5560    7.8580   15.4340 C.3       4 GLP5        0.0000 
     26 N           9.9365    5.3300   24.6060 N.am      1 SEC2        0.0000 
     27 N          10.0520    5.6430   23.1710 N.am      5 SEL2        0.0000 
     28 N           9.8210    5.0170   26.0410 N.am      3 SEP2        0.0000 
     29 CA          1.7925    1.9195   18.3055 C.3       2 GLC5        0.0000 
     30 CA          2.9870    3.5360   18.9200 C.3       6 GLL5        0.0000 
     31 CA          3.2475    4.2655   17.1495 C.3       2 GLC5        0.0000 
     32 CA          3.5080    4.9950   15.3790 C.3       4 GLP5        0.0000 
     33 CA         -1.7285    1.7070   20.4945 C.3       2 GLC5        0.0000 
     34 CA          0.0370    1.6570   21.5750 C.3       6 GLL5        0.0000 
     35 CA         -3.4940    1.7570   19.4140 C.3       4 GLP5        0.0000 
     36 CA          2.2785    0.5595   23.5655 C.3       2 GLC5        0.0000 
     37 CA          0.3380    1.4530   23.0610 C.3       6 GLL5        0.0000 
     38 CA          4.2190   -0.3340   24.0700 C.3       4 GLP5        0.0000 
     39 CA         -1.2860    4.8930   21.1620 C.3       2 GLC5        0.0000 
     40 CA          0.3860    4.1560   21.0970 C.3       6 GLL5        0.0000 
     41 CA         -2.9580    5.6300   21.2270 C.3       4 GLP5        0.0000 
     42 CA         -0.0955    5.0395   19.2545 C.3       2 GLC5        0.0000 
     43 CA         -0.5770    5.9230   17.4120 C.3       4 GLP5        0.0000 
     44 CA         10.5040    7.5165   21.9618 C.3       2 GLC5        0.0000 
     45 CA          8.2530    6.5860   21.7870 C.3       6 GLL5        0.0000 
     46 CA         12.1090    8.8430   22.1100 C.3       4 GLP5        0.0000 
     47 CA          8.9830    7.3920   23.4143 C.3       2 GLC5        0.0000 
     48 CA          9.0670    8.5940   25.0150 C.3       4 GLP5        0.0000 
     49 CA          7.9326    4.6189   23.0869 C.3       2 GLC5        0.0000 
     50 CA         10.3117    3.3310   19.8021 C.3       2 GLC5        0.0000 
     51 CA          9.1980    4.4210   21.2850 C.3       6 GLL5        0.0000 
     52 CA         11.9450    2.9550   19.5980 C.3       4 GLP5        0.0000 
     53 CA          4.0062    7.0120   19.9465 C.3       2 GLC5        0.0000 
     54 CA          3.6950    4.8820   20.8830 C.3       6 GLL5        0.0000 
     55 CA          3.7080    8.8360   19.3680 C.3       4 GLP5        0.0000 
     56 CA          3.6275   -0.2503   19.4780 C.3       2 GLC5        0.0000 
     57 CA          4.2940    1.2650   20.1260 C.3       6 GLL5        0.0000 
     58 CA          3.6570   -1.7120   18.5190 C.3       4 GLP5        0.0000 
     59 CA          0.5365    1.2470   19.4550 C.3       2 GLC5        0.0000 
     60 CA          0.9130    2.7250   20.8630 C.3       6 GLL5        0.0000 
     61 CA          0.9197   -0.4375   22.0970 C.3       2 GLC5        0.0000 
     62 CA          4.3629    0.7261   21.7860 C.3       2 GLC5        0.0000 
     63 CA          5.1360   -0.4630   22.9370 C.3       4 GLP5        0.0000 
@<TRIPOS>BOND
@<TRIPOS>SUBSTRUCTURE
     1 SEC2       26 GROUP        1 X    SEC  0     ROOT SEC X 2
     2 GLC5        1 GROUP        1 X    GLC  0     **** GLC X 6
     3 SEP2       28 GROUP        1 Y    SEP  0     ROOT SEP Y 9
     4 GLP5        3 GROUP        1 Y    GLP  0     **** GLP Y 13
     5 SEL2       27 GROUP        1 Z    SEL  0     ROOT SEL Z 16
     6 GLL5        2 GROUP        1 Z    GLL  0     **** GLL Z 20
@<TRIPOS>SET

