#    Name: 4a84_DXC_2_ligand
#    Modification time : Tue Mar 25 05:15:21 2014

@<TRIPOS>MOLECULE
4a84_DXC_2_ligand
   67    70     1     0     0
SMALL
NO_CHARGES


@<TRIPOS>ATOM
      1 C1          9.5450    5.7940   21.8400 C.3       1 DXC1161     0.0000 
      2 C2          9.1980    4.4210   21.2850 C.3       1 DXC1161     0.0000 
      3 C3          8.6780    4.4430   19.8540 C.3       1 DXC1161     0.0000 
      4 C4          7.4580    5.3740   19.7020 C.3       1 DXC1161     0.0000 
      5 C5          7.8610    6.7220   20.3230 C.3       1 DXC1161     0.0000 
      6 C6          8.2530    6.5860   21.7870 C.3       1 DXC1161     0.0000 
      7 C7          8.4190    2.9820   19.4430 C.3       1 DXC1161     0.0000 
      8 C8          7.1590    2.3340   20.0140 C.3       1 DXC1161     0.0000 
      9 C9          5.9640    3.2450   19.8210 C.3       1 DXC1161     0.0000 
     10 C10         6.2170    4.6860   20.3230 C.3       1 DXC1161     0.0000 
     11 C11         4.7380    2.6610   20.5340 C.3       1 DXC1161     0.0000 
     12 C12         3.4370    3.4650   20.3780 C.3       1 DXC1161     0.0000 
     13 C13         3.6950    4.8820   20.8830 C.3       1 DXC1161     0.0000 
     14 C14         4.9140    5.4940   20.1670 C.3       1 DXC1161     0.0000 
     15 C15         4.2940    1.2650   20.1260 C.3       1 DXC1161     0.0000 
     16 C16         2.9020    1.1580   20.7480 C.3       1 DXC1161     0.0000 
     17 C17         2.4250    2.5770   21.1320 C.3       1 DXC1161     0.0000 
     18 C18         7.2370    5.6690   18.2260 C.3       1 DXC1161     0.0000 
     19 C19         0.9130    2.7250   20.8630 C.3       1 DXC1161     0.0000 
     20 O1          3.8720    4.8950   22.3230 O.3       1 DXC1161     0.0000 
     21 O2         10.0520    5.6430   23.1710 O.3       1 DXC1161     0.0000 
     22 C20         2.9870    3.5360   18.9200 C.3       1 DXC1161     0.0000 
     23 C21         0.0370    1.6570   21.5750 C.3       1 DXC1161     0.0000 
     24 C22         0.3380    1.4530   23.0610 C.3       1 DXC1161     0.0000 
     25 C23        -0.7590    0.6550   23.7730 C.2       1 DXC1161     0.0000 
     26 O3         -1.2520    1.1410   24.8140 O.co2     1 DXC1161     0.0000 
     27 O4         -1.1570   -0.4600   23.3300 O.co2     1 DXC1161     0.0000 
     28 C24         0.3860    4.1560   21.0970 C.3       1 DXC1161     0.0000 
     29 H          10.2523    6.2427   21.1767 H         1 DXC1161     0.0000 
     30 H           8.4381    3.9526   21.9348 H         1 DXC1161     0.0000 
     31 H          10.0946    3.7783   21.3301 H         1 DXC1161     0.0000 
     32 H           9.4882    4.8223   19.2212 H         1 DXC1161     0.0000 
     33 H           7.0199    7.4162   20.2344 H         1 DXC1161     0.0000 
     34 H           8.7028    7.1328   19.7575 H         1 DXC1161     0.0000 
     35 H           8.4079    7.5637   22.2106 H         1 DXC1161     0.0000 
     36 H           7.4803    6.0577   22.3190 H         1 DXC1161     0.0000 
     37 H           9.3007    2.3736   19.7385 H         1 DXC1161     0.0000 
     38 H           8.3765    2.9327   18.3337 H         1 DXC1161     0.0000 
     39 H           7.3058    2.1440   21.0754 H         1 DXC1161     0.0000 
     40 H           6.9831    1.3881   19.5055 H         1 DXC1161     0.0000 
     41 H           5.7283    3.2987   18.7578 H         1 DXC1161     0.0000 
     42 H           6.3972    4.6019   21.4229 H         1 DXC1161     0.0000 
     43 H           4.9270    2.6190   21.6250 H         1 DXC1161     0.0000 
     44 H           2.8244    5.4900   20.6091 H         1 DXC1161     0.0000 
     45 H           4.6834    5.5908   19.0941 H         1 DXC1161     0.0000 
     46 H           5.0795    6.5116   20.5553 H         1 DXC1161     0.0000 
     47 H           4.9336    0.5411   20.5554 H         1 DXC1161     0.0000 
     48 H           4.2207    1.2010   19.0734 H         1 DXC1161     0.0000 
     49 H           2.9460    0.5496   21.6358 H         1 DXC1161     0.0000 
     50 H           2.2151    0.7378   20.0325 H         1 DXC1161     0.0000 
     51 H           2.6309    2.6686   22.1988 H         1 DXC1161     0.0000 
     52 H           0.7747    2.5312   19.7513 H         1 DXC1161     0.0000 
     53 H           0.1647    0.6964   21.0442 H         1 DXC1161     0.0000 
     54 H          -1.0230    1.9452   21.4563 H         1 DXC1161     0.0000 
     55 H           0.4392    2.4301   23.5438 H         1 DXC1161     0.0000 
     56 H           1.2897    0.9225   23.1646 H         1 DXC1161     0.0000 
     57 H           8.0289    6.1206   17.8149 H         1 DXC1161     0.0000 
     58 H           7.0705    4.8342   17.7013 H         1 DXC1161     0.0000 
     59 H           6.4497    6.2683   18.0809 H         1 DXC1161     0.0000 
     60 H           3.6723    3.9775   18.3409 H         1 DXC1161     0.0000 
     61 H           2.8219    2.6269   18.5376 H         1 DXC1161     0.0000 
     62 H           2.1385    4.0554   18.8181 H         1 DXC1161     0.0000 
     63 H           0.5336    4.4567   22.0392 H         1 DXC1161     0.0000 
     64 H           0.8392    4.8205   20.5028 H         1 DXC1161     0.0000 
     65 H          -0.5955    4.2242   20.9179 H         1 DXC1161     0.0000 
     66 H           3.8476    5.8617   22.5779 H         1 DXC1161     0.0000 
     67 H          10.7881    6.3158   23.2453 H         1 DXC1161     0.0000 
@<TRIPOS>BOND
     1    2    1 1    
     2    6    1 1    
     3   21    1 1    
     4   29    1 1    
     5    3    2 1    
     6   30    2 1    
     7   31    2 1    
     8    4    3 1    
     9    7    3 1    
    10   32    3 1    
    11    5    4 1    
    12   10    4 1    
    13   18    4 1    
    14    6    5 1    
    15   33    5 1    
    16   34    5 1    
    17   35    6 1    
    18   36    6 1    
    19    8    7 1    
    20   37    7 1    
    21   38    7 1    
    22    9    8 1    
    23   39    8 1    
    24   40    8 1    
    25   10    9 1    
    26   11    9 1    
    27   41    9 1    
    28   14   10 1    
    29   42   10 1    
    30   12   11 1    
    31   15   11 1    
    32   43   11 1    
    33   13   12 1    
    34   17   12 1    
    35   22   12 1    
    36   14   13 1    
    37   20   13 1    
    38   44   13 1    
    39   45   14 1    
    40   46   14 1    
    41   16   15 1    
    42   47   15 1    
    43   48   15 1    
    44   17   16 1    
    45   49   16 1    
    46   50   16 1    
    47   19   17 1    
    48   51   17 1    
    49   57   18 1    
    50   58   18 1    
    51   59   18 1    
    52   23   19 1    
    53   28   19 1    
    54   52   19 1    
    55   66   20 1    
    56   67   21 1    
    57   60   22 1    
    58   61   22 1    
    59   62   22 1    
    60   24   23 1    
    61   53   23 1    
    62   54   23 1    
    63   25   24 1    
    64   55   24 1    
    65   56   24 1    
    66   26   25 ar   
    67   27   25 ar   
    68   63   28 1    
    69   64   28 1    
    70   65   28 1    
@<TRIPOS>SUBSTRUCTURE
     1 DXC1161     1 GROUP   
@<TRIPOS>SET

