#    Name: 4egb_NAD_8_INTS_M
#    Modification time : Mon Mar 24 17:46:55 2014

@<TRIPOS>MOLECULE
4egb_NAD_8_INTS_M
  103     0     9     0     0
SMALL
NO_CHARGES


@<TRIPOS>ATOM
      1 N         -67.5260  -44.8095   34.4505 N.am      2 SEC2        0.0000 
      2 N         -66.5050  -44.0000   34.1160 N.am      8 SEL2        0.0000 
      3 N         -68.5470  -45.6190   34.7850 N.am      5 SEP2        0.0000 
      4 N         -63.5365  -43.5185   32.1250 N.am      2 SEC2        0.0000 
      5 N         -64.5450  -42.7590   32.8770 N.am      8 SEL2        0.0000 
      6 N         -62.5280  -44.2780   31.3730 N.am      5 SEP2        0.0000 
      7 CA        -68.1935  -44.0080   28.6400 C.3       3 GLC5        0.0000 
      8 CA        -66.6200  -43.8670   29.5740 C.3       9 GLL5        0.0000 
      9 CA        -69.7670  -44.1490   27.7060 C.3       6 GLP5        0.0000 
     10 CA        -64.0070  -44.9285   31.1525 C.3       3 GLC5        0.0000 
     11 CA        -65.6540  -45.0260   29.6310 C.3       9 GLL5        0.0000 
     12 CA        -62.3600  -44.8310   32.6740 C.3       6 GLP5        0.0000 
     13 O         -67.1490  -46.6445   28.8105 O.2       1 ALC1        0.0000 
     14 O         -66.4260  -46.2330   29.6470 O.2       7 ALL1        0.0000 
     15 O         -67.8720  -47.0560   27.9740 O.2       4 ALP1        0.0000 
     16 O         -66.3660  -46.8090   28.0855 O.2       1 ALC1        0.0000 
     17 O         -66.3060  -47.3850   26.5240 O.2       4 ALP1        0.0000 
     18 CA        -63.0255  -44.9350   27.2215 C.3       3 GLC5        0.0000 
     19 CA        -64.8250  -44.9240   28.3730 C.3       9 GLL5        0.0000 
     20 CA        -61.2260  -44.9460   26.0700 C.3       6 GLP5        0.0000 
     21 N         -63.2970  -46.8970   27.3910 N.am      2 SEC2        0.0000 
     22 N         -64.5040  -46.1850   27.7910 N.am      8 SEL2        0.0000 
     23 N         -62.0900  -47.6090   26.9910 N.am      5 SEP2        0.0000 
     24 N         -62.9900  -45.6470   28.1330 N.am      2 SEC2        0.0000 
     25 N         -61.4760  -45.1090   28.4750 N.am      5 SEP2        0.0000 
     26 O         -65.4050  -46.7850   27.1575 O.2       1 ALC1        0.0000 
     27 O         -64.5040  -46.1850   27.7910 O.2       7 ALL1        0.0000 
     28 CA        -67.7595  -44.1800   27.5700 C.3       3 GLC5        0.0000 
     29 CA        -65.7520  -44.2110   27.4340 C.3       9 GLL5        0.0000 
     30 CA        -62.9055  -43.6410   25.3435 C.3       3 GLC5        0.0000 
     31 CA        -64.5850  -42.3360   24.6170 C.3       9 GLL5        0.0000 
     32 CA        -63.9000  -42.5665   21.4015 C.3       3 GLC5        0.0000 
     33 CA        -64.8190  -42.0330   23.2730 C.3       9 GLL5        0.0000 
     34 CA        -62.9810  -43.1000   19.5300 C.3       6 GLP5        0.0000 
     35 CA        -66.0235  -40.5650   22.3040 C.3       3 GLC5        0.0000 
     36 CA        -67.2280  -39.0970   21.3350 C.3       6 GLP5        0.0000 
     37 CA        -63.6980  -40.1635   23.3480 C.3       3 GLC5        0.0000 
     38 CA        -62.5770  -38.2940   23.4230 C.3       6 GLP5        0.0000 
     39 O         -64.0780  -40.6130   21.2155 O.2       1 ALC1        0.0000 
     40 O         -64.0460  -41.1870   22.5700 O.2       7 ALL1        0.0000 
     41 O         -64.1100  -40.0390   19.8610 O.2       4 ALP1        0.0000 
     42 O         -63.8200  -39.8705   23.4835 O.2       1 ALC1        0.0000 
     43 O         -63.5940  -38.5540   24.3970 O.2       4 ALP1        0.0000 
     44 N         -66.3090  -42.3675   21.3275 N.am      2 SEC2        0.0000 
     45 N         -65.8410  -42.6010   22.6340 N.am      8 SEL2        0.0000 
     46 N         -66.7770  -42.1340   20.0210 N.am      5 SEP2        0.0000 
     47 CA        -67.5230  -45.3290   23.8410 C.3       3 GLC5        0.0000 
     48 CA        -66.6460  -43.4480   23.2840 C.3       9 GLL5        0.0000 
     49 CA        -68.4000  -47.2100   24.3980 C.3       6 GLP5        0.0000 
     50 CA        -65.3580  -44.6640   23.1330 C.3       3 GLC5        0.0000 
     51 CA        -64.0700  -45.8800   22.9820 C.3       6 GLP5        0.0000 
     52 CA        -66.0110  -43.7535   21.3945 C.3       3 GLC5        0.0000 
     53 CA        -65.3760  -44.0590   19.5050 C.3       6 GLP5        0.0000 
     54 CA        -67.3720  -41.8855   22.2150 C.3       3 GLC5        0.0000 
     55 CA        -68.0980  -40.3230   21.1460 C.3       6 GLP5        0.0000 
     56 CA        -67.5055  -42.0700   24.3480 C.3       3 GLC5        0.0000 
     57 CA        -68.3650  -40.6920   25.4120 C.3       6 GLP5        0.0000 
     58 N         -66.2830  -45.3085   24.1640 N.am      2 SEC2        0.0000 
     59 N         -66.4500  -43.7600   24.5670 N.am      8 SEL2        0.0000 
     60 N         -66.1160  -46.8570   23.7610 N.am      5 SEP2        0.0000 
     61 N         -69.9215  -42.9705   34.8725 N.am      2 SEC2        0.0000 
     62 N         -68.8900  -42.2230   34.0180 N.am      8 SEL2        0.0000 
     63 N         -70.9530  -43.7180   35.7270 N.am      5 SEP2        0.0000 
     64 CA        -70.4305  -39.5600   34.5540 C.3       3 GLC5        0.0000 
     65 CA        -69.2420  -39.6410   32.7610 C.3       9 GLL5        0.0000 
     66 CA        -71.6190  -39.4790   36.3470 C.3       6 GLP5        0.0000 
     67 CA        -70.5245  -40.3385   31.3060 C.3       3 GLC5        0.0000 
     68 CA        -71.8070  -41.0360   29.8510 C.3       6 GLP5        0.0000 
     69 CA        -70.5210  -39.0050   30.7165 C.3       3 GLC5        0.0000 
     70 CA        -69.5760  -38.1700   32.4820 C.3       9 GLL5        0.0000 
     71 CA        -71.4660  -39.8400   28.9510 C.3       6 GLP5        0.0000 
     72 CA        -71.5150  -37.1790   32.3980 C.3       3 GLC5        0.0000 
     73 CA        -73.4540  -36.1880   32.3140 C.3       6 GLP5        0.0000 
     74 CA        -67.1670  -37.5440   30.8805 C.3       3 GLC5        0.0000 
     75 CA        -68.3690  -37.2760   32.2430 C.3       9 GLL5        0.0000 
     76 CA        -65.9650  -37.8120   29.5180 C.3       6 GLP5        0.0000 
     77 N         -68.6920  -35.2920   30.2310 N.am      2 SEC2        0.0000 
     78 N         -68.6400  -36.4590   31.0900 N.am      8 SEL2        0.0000 
     79 N         -68.7440  -34.1250   29.3720 N.am      5 SEP2        0.0000 
     80 O         -68.9110  -37.9165   30.2125 O.2       1 ALC1        0.0000 
     81 O         -68.6400  -36.4590   31.0900 O.2       7 ALL1        0.0000 
     82 O         -69.1820  -39.3740   29.3350 O.2       4 ALP1        0.0000 
     83 CA        -70.6175  -37.9420   35.2150 C.3       3 GLC5        0.0000 
     84 CA        -69.6160  -36.4050   34.0830 C.3       9 GLL5        0.0000 
     85 CA        -71.5350  -36.2965   33.1985 C.3       3 GLC5        0.0000 
     86 CA        -69.3075  -35.4405   40.3065 C.3       3 GLC5        0.0000 
     87 CA        -69.0200  -35.4900   38.1320 C.3       9 GLL5        0.0000 
     88 CA        -69.5950  -35.3910   42.4810 C.3       6 GLP5        0.0000 
     89 CA        -67.1710  -45.4668   31.0783 C.3       3 GLC5        0.0000 
     90 CA        -68.2050  -46.4870   32.5540 C.3       6 GLP5        0.0000 
     91 CA        -64.8743  -46.7890   29.7715 C.3       3 GLC5        0.0000 
     92 CA        -64.5090  -48.6030   30.5410 C.3       6 GLP5        0.0000 
     93 CA        -64.5680  -44.2889   23.7882 C.3       3 GLC5        0.0000 
     94 CA        -66.7155  -41.6949   25.0033 C.3       3 GLC5        0.0000 
     95 CA        -65.4300  -43.2110   25.2440 C.3       9 GLL5        0.0000 
     96 CA        -70.3160  -38.2285   36.7090 C.3       3 GLC5        0.0000 
     97 CA        -69.2110  -37.1600   36.4270 C.3       9 GLL5        0.0000 
     98 CA        -70.9345  -35.9160   37.2730 C.3       3 GLC5        0.0000 
     99 CA        -72.8560  -34.8540   37.4750 C.3       6 GLP5        0.0000 
    100 CA        -69.1305  -33.2380   36.0452 C.3       3 GLC5        0.0000 
    101 CA        -69.6400  -34.5750   37.2900 C.3       9 GLL5        0.0000 
    102 CA        -68.4230  -31.7200   35.4390 C.3       6 GLP5        0.0000 
    103 CA        -71.2695  -34.9194   37.1685 C.3       3 GLC5        0.0000 
@<TRIPOS>BOND
@<TRIPOS>SUBSTRUCTURE
     1 ALC1       13 GROUP        1 X    ALC  0     ROOT ALC X 1
     2 SEC2        1 GROUP        1 X    SEC  0     **** SEC X 2
     3 GLC5        7 GROUP        1 X    GLC  0     **** GLC X 6
     4 ALP1       15 GROUP        1 Y    ALP  0     ROOT ALP Y 8
     5 SEP2        3 GROUP        1 Y    SEP  0     **** SEP Y 9
     6 GLP5        9 GROUP        1 Y    GLP  0     **** GLP Y 13
     7 ALL1       14 GROUP        1 Z    ALL  0     ROOT ALL Z 15
     8 SEL2        2 GROUP        1 Z    SEL  0     **** SEL Z 16
     9 GLL5        8 GROUP        1 Z    GLL  0     **** GLL Z 20
@<TRIPOS>SET

