#    Name: 4egb_NAD_8_ligand
#    Modification time : Mon Mar 24 17:46:55 2014

@<TRIPOS>MOLECULE
4egb_NAD_8_ligand
   70    74     1     0     0
SMALL
NO_CHARGES


@<TRIPOS>ATOM
      1 PA        -66.0180  -42.9120   33.1780 P.3       1 NAD406      0.0000 
      2 O1A       -66.5050  -44.0000   34.1160 O.co2     1 NAD406      0.0000 
      3 O2A       -64.5450  -42.7590   32.8770 O.co2     1 NAD406      0.0000 
      4 O5B       -66.8420  -42.9860   31.7840 O.3       1 NAD406      0.0000 
      5 C5B       -66.2180  -42.7590   30.5240 C.3       1 NAD406      0.0000 
      6 C4B       -66.6200  -43.8670   29.5740 C.3       1 NAD406      0.0000 
      7 O4B       -66.6100  -43.3980   28.2310 O.3       1 NAD406      0.0000 
      8 C3B       -65.6540  -45.0260   29.6310 C.3       1 NAD406      0.0000 
      9 O3B       -66.4260  -46.2330   29.6470 O.3       1 NAD406      0.0000 
     10 C2B       -64.8250  -44.9240   28.3730 C.3       1 NAD406      0.0000 
     11 O2B       -64.5040  -46.1850   27.7910 O.3       1 NAD406      0.0000 
     12 C1B       -65.7520  -44.2110   27.4340 C.3       1 NAD406      0.0000 
     13 N9A       -65.0380  -43.3540   26.4850 N.pl3     1 NAD406      0.0000 
     14 C8A       -63.9740  -42.5940   26.6880 C.2       1 NAD406      0.0000 
     15 N7A       -63.6730  -41.9690   25.5370 N.2       1 NAD406      0.0000 
     16 C5A       -64.5850  -42.3360   24.6170 C.ar      1 NAD406      0.0000 
     17 C6A       -64.8190  -42.0330   23.2730 C.ar      1 NAD406      0.0000 
     18 N6A       -64.0460  -41.1870   22.5700 N.pl3     1 NAD406      0.0000 
     19 N1A       -65.8410  -42.6010   22.6340 N.ar      1 NAD406      0.0000 
     20 C2A       -66.6460  -43.4480   23.2840 C.ar      1 NAD406      0.0000 
     21 N3A       -66.4500  -43.7600   24.5670 N.ar      1 NAD406      0.0000 
     22 C4A       -65.4300  -43.2110   25.2440 C.ar      1 NAD406      0.0000 
     23 O3        -66.4820  -41.4810   33.7520 O.3       1 NAD406      0.0000 
     24 PN        -67.8680  -41.1780   34.4860 P.3       1 NAD406      0.0000 
     25 O1N       -68.8900  -42.2230   34.0180 O.co2     1 NAD406      0.0000 
     26 O2N       -67.3860  -40.8990   35.8920 O.co2     1 NAD406      0.0000 
     27 O5D       -68.3700  -39.7580   33.9060 O.3       1 NAD406      0.0000 
     28 C5D       -69.2420  -39.6410   32.7610 C.3       1 NAD406      0.0000 
     29 C4D       -69.5760  -38.1700   32.4820 C.3       1 NAD406      0.0000 
     30 O4D       -70.2270  -37.6120   33.6260 O.3       1 NAD406      0.0000 
     31 C3D       -68.3690  -37.2760   32.2430 C.3       1 NAD406      0.0000 
     32 O3D       -68.6400  -36.4590   31.0900 O.3       1 NAD406      0.0000 
     33 C2D       -68.1900  -36.5110   33.5590 C.3       1 NAD406      0.0000 
     34 O2D       -67.5790  -35.2270   33.3750 O.3       1 NAD406      0.0000 
     35 C1D       -69.6160  -36.4050   34.0830 C.3       1 NAD406      0.0000 
     36 N1N       -69.8800  -36.2610   35.5480 N.pl3     1 NAD406      0.0000 
     37 C2N       -69.2110  -37.1600   36.4270 C.ar      1 NAD406      0.0000 
     38 C3N       -68.8150  -36.7960   37.7150 C.ar      1 NAD406      0.0000 
     39 C7N       -68.1690  -37.8090   38.6300 C.2       1 NAD406      0.0000 
     40 O7N       -68.1050  -38.9670   38.2600 O.2       1 NAD406      0.0000 
     41 N7N       -67.7020  -37.4660   39.8340 N.am      1 NAD406      0.0000 
     42 C4N       -69.0200  -35.4900   38.1320 C.ar      1 NAD406      0.0000 
     43 C5N       -69.6400  -34.5750   37.2900 C.ar      1 NAD406      0.0000 
     44 C6N       -70.0360  -34.9370   36.0130 C.ar      1 NAD406      0.0000 
     45 H         -65.1270  -42.7599   30.6057 H         1 NAD406      0.0000 
     46 H         -66.5262  -41.8055   30.0847 H         1 NAD406      0.0000 
     47 H         -67.5980  -44.2284   29.8450 H         1 NAD406      0.0000 
     48 H         -65.0373  -44.9160   30.4769 H         1 NAD406      0.0000 
     49 H         -63.9911  -44.3047   28.5489 H         1 NAD406      0.0000 
     50 H         -66.3350  -44.9488   26.9021 H         1 NAD406      0.0000 
     51 H         -63.4851  -42.4962   27.5222 H         1 NAD406      0.0000 
     52 H         -63.2922  -40.7609   23.0702 H         1 NAD406      0.0000 
     53 H         -64.2938  -41.0594   21.6096 H         1 NAD406      0.0000 
     54 H         -67.4607  -43.8825   22.7662 H         1 NAD406      0.0000 
     55 H         -70.1875  -40.1744   32.9219 H         1 NAD406      0.0000 
     56 H         -68.7751  -40.0555   31.8584 H         1 NAD406      0.0000 
     57 H         -70.2240  -38.1084   31.6248 H         1 NAD406      0.0000 
     58 H         -67.5233  -37.9198   32.1054 H         1 NAD406      0.0000 
     59 H         -67.6468  -37.1495   34.2280 H         1 NAD406      0.0000 
     60 H         -70.1015  -35.5738   33.5395 H         1 NAD406      0.0000 
     61 H         -69.0153  -38.1226   36.0848 H         1 NAD406      0.0000 
     62 H         -67.8433  -36.5141   40.1060 H         1 NAD406      0.0000 
     63 H         -67.2531  -38.1920   40.3550 H         1 NAD406      0.0000 
     64 H         -68.7116  -35.1949   39.0706 H         1 NAD406      0.0000 
     65 H         -69.8076  -33.6087   37.6238 H         1 NAD406      0.0000 
     66 H         -70.4542  -34.2342   35.3807 H         1 NAD406      0.0000 
     67 H         -66.5325  -46.4848   28.6851 H         1 NAD406      0.0000 
     68 H         -65.0938  -46.2563   26.9867 H         1 NAD406      0.0000 
     69 H         -68.3499  -37.0107   30.3080 H         1 NAD406      0.0000 
     70 H         -67.4943  -35.1204   32.3844 H         1 NAD406      0.0000 
@<TRIPOS>BOND
     1    2    1 ar   
     2    3    1 ar   
     3    4    1 1    
     4   23    1 1    
     5    5    4 1    
     6    6    5 1    
     7   45    5 1    
     8   46    5 1    
     9    7    6 1    
    10    8    6 1    
    11   47    6 1    
    12   12    7 1    
    13    9    8 1    
    14   10    8 1    
    15   48    8 1    
    16   67    9 1    
    17   11   10 1    
    18   12   10 1    
    19   49   10 1    
    20   68   11 1    
    21   13   12 1    
    22   50   12 1    
    23   14   13 1    
    24   22   13 1    
    25   15   14 2    
    26   51   14 1    
    27   16   15 1    
    28   17   16 ar   
    29   22   16 ar   
    30   18   17 1    
    31   19   17 ar   
    32   52   18 1    
    33   53   18 1    
    34   20   19 ar   
    35   21   20 ar   
    36   54   20 1    
    37   22   21 ar   
    38   24   23 1    
    39   25   24 ar   
    40   26   24 ar   
    41   27   24 1    
    42   28   27 1    
    43   29   28 1    
    44   55   28 1    
    45   56   28 1    
    46   30   29 1    
    47   31   29 1    
    48   57   29 1    
    49   35   30 1    
    50   32   31 1    
    51   33   31 1    
    52   58   31 1    
    53   69   32 1    
    54   34   33 1    
    55   35   33 1    
    56   59   33 1    
    57   70   34 1    
    58   36   35 1    
    59   60   35 1    
    60   37   36 ar   
    61   44   36 ar   
    62   38   37 ar   
    63   61   37 1    
    64   39   38 1    
    65   42   38 ar   
    66   40   39 2    
    67   41   39 am   
    68   62   41 1    
    69   63   41 1    
    70   43   42 ar   
    71   64   42 1    
    72   44   43 ar   
    73   65   43 1    
    74   66   44 1    
@<TRIPOS>SUBSTRUCTURE
     1 NAD406      1 GROUP   
@<TRIPOS>SET

