#    Name: 4jd4_JDM_1_INTS_M
#    Modification time : Tue Mar 25 05:45:42 2014

@<TRIPOS>MOLECULE
4jd4_JDM_1_INTS_M
   59     0    12     0     0
SMALL
NO_CHARGES


@<TRIPOS>ATOM
      1 NZ          7.4330  -16.0160  -14.5420 N.4       3 LYC4        0.0000 
      2 NZ          6.0580  -15.6960  -13.9770 N.4      11 LYL4        0.0000 
      3 NZ          8.8080  -16.3360  -15.1070 N.4       7 LYP4        0.0000 
      4 N           5.6575  -16.9445  -13.2595 N.am      2 SEC2        0.0000 
      5 N           6.0580  -15.6960  -13.9770 N.am     10 SEL2        0.0000 
      6 N           5.2570  -18.1930  -12.5420 N.am      6 SEP2        0.0000 
      7 N           7.4330  -16.0160  -14.5420 N.am      2 SEC2        0.0000 
      8 N           8.8080  -16.3360  -15.1070 N.am      6 SEP2        0.0000 
      9 N           3.3820  -16.2155  -13.8905 N.am      2 SEC2        0.0000 
     10 N           3.8980  -14.7180  -13.9920 N.am     10 SEL2        0.0000 
     11 N           2.8660  -17.7130  -13.7890 N.am      6 SEP2        0.0000 
     12 N           3.0475  -15.4775  -15.0125 N.am      2 SEC2        0.0000 
     13 N           2.1970  -16.2370  -16.0330 N.am      6 SEP2        0.0000 
     14 CA          6.9605  -13.1855  -15.5455 C.3       4 GLC5        0.0000 
     15 CA          5.7200  -13.3900  -13.8780 C.3      12 GLL5        0.0000 
     16 CA          8.2010  -12.9810  -17.2130 C.3       8 GLP5        0.0000 
     17 O           4.4025  -12.8975  -15.9585 O.2       1 ALC1        0.0000 
     18 O           5.2860  -12.4980  -14.8840 O.2       9 ALL1        0.0000 
     19 O           3.5190  -13.2970  -17.0330 O.2       5 ALP1        0.0000 
     20 N           4.5945  -10.9335  -17.0550 N.am      2 SEC2        0.0000 
     21 N           5.3140  -10.4280  -15.8610 N.am     10 SEL2        0.0000 
     22 N           3.8750  -11.4390  -18.2490 N.am      6 SEP2        0.0000 
     23 N           4.7135   -9.1930  -15.6165 N.am      2 SEC2        0.0000 
     24 N           4.1130   -7.9580  -15.3720 N.am      6 SEP2        0.0000 
     25 O           6.9035   -9.3610  -13.8725 O.2       1 ALC1        0.0000 
     26 O           6.5540  -10.6810  -13.8830 O.2       9 ALL1        0.0000 
     27 O           7.2530   -8.0410  -13.8620 O.2       5 ALP1        0.0000 
     28 N           8.8220  -11.2345  -11.1210 N.am      2 SEC2        0.0000 
     29 N           7.6520  -10.9940  -11.9900 N.am     10 SEL2        0.0000 
     30 N           9.9920  -11.4750  -10.2520 N.am      6 SEP2        0.0000 
     31 N           8.0995   -9.5940  -12.0125 N.am      2 SEC2        0.0000 
     32 N           8.5470   -8.1940  -12.0350 N.am      6 SEP2        0.0000 
     33 CA          8.0590  -16.6010   -8.2940 C.3       4 GLC5        0.0000 
     34 CA          7.0510  -15.1010   -7.3110 C.3      12 GLL5        0.0000 
     35 CA          9.0670  -18.1010   -9.2770 C.3       8 GLP5        0.0000 
     36 CA          3.3805  -16.9120  -11.3270 C.3       4 GLC5        0.0000 
     37 CA          3.8830  -15.3830  -10.1360 C.3      12 GLL5        0.0000 
     38 CA          2.8780  -18.4410  -12.5180 C.3       8 GLP5        0.0000 
     39 CA          7.6223  -14.9125  -10.9778 C.3       4 GLC5        0.0000 
     40 CA          6.7930  -13.6660  -11.5960 C.3      12 GLL5        0.0000 
     41 CA          8.9050  -16.3870  -10.9690 C.3       8 GLP5        0.0000 
     42 CA          7.6587  -15.2940   -9.8982 C.3       4 GLC5        0.0000 
     43 CA          5.8810  -14.2240   -9.2940 C.3      12 GLL5        0.0000 
     44 CA          8.8667  -14.3658   -7.6895 C.3       4 GLC5        0.0000 
     45 CA          6.9440  -14.1780   -8.3610 C.3      12 GLL5        0.0000 
     46 CA         10.7360  -14.0920   -7.5430 C.3       8 GLP5        0.0000 
     47 CA          6.8033  -13.1698   -6.5520 C.3       4 GLC5        0.0000 
     48 CA          6.6090  -11.7000   -5.2680 C.3       8 GLP5        0.0000 
     49 CA          6.0047  -14.3848   -6.2630 C.3       4 GLC5        0.0000 
     50 CA          5.0120  -14.1300   -4.6900 C.3       8 GLP5        0.0000 
     51 CA          6.3055  -17.0855   -9.2257 C.3       4 GLC5        0.0000 
     52 CA          6.1330  -16.1340   -7.2870 C.3      12 GLL5        0.0000 
     53 CA          7.0120  -18.0270  -10.7470 C.3       8 GLP5        0.0000 
     54 CA          5.3055  -15.1370   -6.1973 C.3       4 GLC5        0.0000 
     55 CA          5.0650  -16.1540   -8.1220 C.3      12 GLL5        0.0000 
     56 CA          6.0892  -17.0044   -6.0913 C.3       4 GLC5        0.0000 
     57 CA          6.3500  -18.1230   -4.4720 C.3       8 GLP5        0.0000 
     58 CA          5.7055  -16.6662  -10.2050 C.3       4 GLC5        0.0000 
     59 CA          4.9150  -15.2280   -9.1900 C.3      12 GLL5        0.0000 
@<TRIPOS>BOND
@<TRIPOS>SUBSTRUCTURE
     1 ALC1       17 GROUP        1 X    ALC  0     ROOT ALC X 1
     2 SEC2        4 GROUP        1 X    SEC  0     **** SEC X 2
     3 LYC4        1 GROUP        1 X    LYC  0     **** LYC X 4
     4 GLC5       14 GROUP        1 X    GLC  0     **** GLC X 6
     5 ALP1       19 GROUP        1 Y    ALP  0     ROOT ALP Y 8
     6 SEP2        6 GROUP        1 Y    SEP  0     **** SEP Y 9
     7 LYP4        3 GROUP        1 Y    LYP  0     **** LYP Y 11
     8 GLP5       16 GROUP        1 Y    GLP  0     **** GLP Y 13
     9 ALL1       18 GROUP        1 Z    ALL  0     ROOT ALL Z 15
    10 SEL2        5 GROUP        1 Z    SEL  0     **** SEL Z 16
    11 LYL4        2 GROUP        1 Z    LYL  0     **** LYL Z 18
    12 GLL5       15 GROUP        1 Z    GLL  0     **** GLL Z 20
@<TRIPOS>SET

