#    Name: 4jd4_JDM_1_ligand
#    Modification time : Tue Mar 25 05:45:42 2014

@<TRIPOS>MOLECULE
4jd4_JDM_1_ligand
   34    35     1     0     0
SMALL
NO_CHARGES


@<TRIPOS>ATOM
      1 OAJ         6.0580  -15.6960  -13.9770 O.co2     1 JDM401      0.0000 
      2 CAI         5.1770  -14.7610  -13.8680 C.2       1 JDM401      0.0000 
      3 OAK         3.8980  -14.7180  -13.9920 O.co2     1 JDM401      0.0000 
      4 C4          5.7200  -13.3900  -13.8780 C.2       1 JDM401      0.0000 
      5 N3          5.2860  -12.4980  -14.8840 N.am      1 JDM401      0.0000 
      6 C2          5.7310  -11.1370  -14.8700 C.2       1 JDM401      0.0000 
      7 O2          5.3140  -10.4280  -15.8610 O.2       1 JDM401      0.0000 
      8 N1          6.5540  -10.6810  -13.8830 N.am      1 JDM401      0.0000 
      9 C6          6.9460  -11.5130  -12.8400 C.2       1 JDM401      0.0000 
     10 O6          7.6520  -10.9940  -11.9900 O.2       1 JDM401      0.0000 
     11 C5          6.4550  -12.8350  -12.8070 C.2       1 JDM401      0.0000 
     12 CAL         6.7930  -13.6660  -11.5960 C.3       1 JDM401      0.0000 
     13 CAM         5.8860  -13.2100  -10.3770 C.3       1 JDM401      0.0000 
     14 CAN         5.8810  -14.2240   -9.2940 C.ar      1 JDM401      0.0000 
     15 CAO         6.9440  -14.1780   -8.3610 C.ar      1 JDM401      0.0000 
     16 CAP         7.0510  -15.1010   -7.3110 C.ar      1 JDM401      0.0000 
     17 CAQ         6.1330  -16.1340   -7.2870 C.ar      1 JDM401      0.0000 
     18 CAR         5.0650  -16.1540   -8.1220 C.ar      1 JDM401      0.0000 
     19 CAS         4.9150  -15.2280   -9.1900 C.ar      1 JDM401      0.0000 
     20 CAT         3.8830  -15.3830  -10.1360 C.3       1 JDM401      0.0000 
     21 OAU         2.6950  -14.7870   -9.7990 O.3       1 JDM401      0.0000 
     22 H           4.6593  -12.8133  -15.6197 H         1 JDM401      0.0000 
     23 H           6.8990   -9.7013  -13.8998 H         1 JDM401      0.0000 
     24 H           7.8229  -13.5239  -11.3085 H         1 JDM401      0.0000 
     25 H           6.5937  -14.7102  -11.7794 H         1 JDM401      0.0000 
     26 H           4.8810  -13.0468  -10.7687 H         1 JDM401      0.0000 
     27 H           6.2809  -12.2569  -10.0226 H         1 JDM401      0.0000 
     28 H           7.6623  -13.4377   -8.4616 H         1 JDM401      0.0000 
     29 H           7.7681  -15.0072   -6.6102 H         1 JDM401      0.0000 
     30 H           6.2757  -16.9138   -6.6040 H         1 JDM401      0.0000 
     31 H           4.3085  -16.8664   -7.9987 H         1 JDM401      0.0000 
     32 H           3.7284  -16.4918  -10.3356 H         1 JDM401      0.0000 
     33 H           4.2461  -15.0026  -11.1443 H         1 JDM401      0.0000 
     34 H           2.1058  -14.9151  -10.5968 H         1 JDM401      0.0000 
@<TRIPOS>BOND
     1    2    1 ar   
     2    3    2 ar   
     3    4    2 1    
     4    5    4 1    
     5   11    4 2    
     6    6    5 am   
     7   22    5 1    
     8    7    6 2    
     9    8    6 am   
    10    9    8 am   
    11   23    8 1    
    12   10    9 2    
    13   11    9 1    
    14   12   11 1    
    15   13   12 1    
    16   24   12 1    
    17   25   12 1    
    18   14   13 1    
    19   26   13 1    
    20   27   13 1    
    21   15   14 ar   
    22   19   14 ar   
    23   16   15 ar   
    24   28   15 1    
    25   17   16 ar   
    26   29   16 1    
    27   18   17 ar   
    28   30   17 1    
    29   19   18 ar   
    30   31   18 1    
    31   20   19 1    
    32   21   20 1    
    33   32   20 1    
    34   33   20 1    
    35   34   21 1    
@<TRIPOS>SUBSTRUCTURE
     1 JDM401      1 GROUP   
@<TRIPOS>SET

