#    Name: 4eqx_FAD_1_INTS_M
#    Modification time : Mon Mar 24 18:33:17 2014

@<TRIPOS>MOLECULE
4eqx_FAD_1_INTS_M
  122     0     9     0     0
SMALL
NO_CHARGES


@<TRIPOS>ATOM
      1 N          25.4055    7.6545  -10.6095 N.am      2 SEC2        0.0000 
      2 N          24.8040    8.9400  -11.2600 N.am      8 SEL2        0.0000 
      3 N          26.0070    6.3690   -9.9590 N.am      5 SEP2        0.0000 
      4 N          25.2805   10.2035  -10.6530 N.am      2 SEC2        0.0000 
      5 N          25.7570   11.4670  -10.0460 N.am      5 SEP2        0.0000 
      6 CA         22.5575    8.5480  -15.2795 C.3       3 GLC5        0.0000 
      7 CA         24.5340    8.1380  -15.0390 C.3       9 GLL5        0.0000 
      8 CA         20.5810    8.9580  -15.5200 C.3       6 GLP5        0.0000 
      9 CA         26.1520    6.2420  -16.4420 C.3       3 GLC5        0.0000 
     10 CA         25.8010    8.0170  -15.8950 C.3       9 GLL5        0.0000 
     11 CA         26.5030    4.4670  -16.9890 C.3       6 GLP5        0.0000 
     12 O          28.5360    8.2795  -16.2400 O.2       1 ALC1        0.0000 
     13 O          27.8840    9.3260  -15.7580 O.2       7 ALL1        0.0000 
     14 O          29.1880    7.2330  -16.7220 O.2       4 ALP1        0.0000 
     15 O          28.8575    9.0385  -16.9755 O.2       1 ALC1        0.0000 
     16 O          29.8310    8.7510  -18.1930 O.2       4 ALP1        0.0000 
     17 O          28.6355    9.4735  -18.2345 O.2       1 ALC1        0.0000 
     18 O          27.4400   10.1960  -18.2760 O.2       7 ALL1        0.0000 
     19 CA         26.3855    6.2610  -17.5650 C.3       3 GLC5        0.0000 
     20 CA         26.2680    8.0550  -18.1410 C.3       9 GLL5        0.0000 
     21 CA         24.2610    7.2410  -18.0010 C.3       3 GLC5        0.0000 
     22 CA         22.2540    6.4270  -17.8610 C.3       6 GLP5        0.0000 
     23 CA         23.3735    6.7395  -20.3775 C.3       3 GLC5        0.0000 
     24 CA         25.0960    7.1530  -21.4960 C.3       9 GLL5        0.0000 
     25 CA         21.6510    6.3260  -19.2590 C.3       6 GLP5        0.0000 
     26 CA         26.3610    7.2660  -24.2960 C.3       3 GLC5        0.0000 
     27 CA         25.3420    6.4580  -22.6600 C.3       9 GLL5        0.0000 
     28 CA         27.3800    8.0740  -25.9320 C.3       6 GLP5        0.0000 
     29 CA         25.4990    4.6340  -23.8165 C.3       3 GLC5        0.0000 
     30 CA         25.6560    2.8100  -24.9730 C.3       6 GLP5        0.0000 
     31 O          24.6875    5.9765  -25.1030 O.2       1 ALC1        0.0000 
     32 O          24.5840    6.5560  -23.7820 O.2       7 ALL1        0.0000 
     33 O          24.7910    5.3970  -26.4240 O.2       4 ALP1        0.0000 
     34 N          26.9195    5.1595  -24.0500 N.am      2 SEC2        0.0000 
     35 N          26.5150    5.7510  -22.7130 N.am      8 SEL2        0.0000 
     36 N          27.3240    4.5680  -25.3870 N.am      5 SEP2        0.0000 
     37 CA         25.9970    4.4920  -21.3470 C.3       3 GLC5        0.0000 
     38 CA         27.4110    5.7390  -21.6470 C.3       9 GLL5        0.0000 
     39 CA         24.5830    3.2450  -21.0470 C.3       6 GLP5        0.0000 
     40 CA         29.0290    5.6120  -20.5690 C.3       3 GLC5        0.0000 
     41 CA         30.6470    5.4850  -19.4910 C.3       6 GLP5        0.0000 
     42 CA         28.2975    7.3130  -22.1165 C.3       3 GLC5        0.0000 
     43 CA         29.1840    8.8870  -22.5860 C.3       6 GLP5        0.0000 
     44 CA         28.2485    5.9820  -23.5025 C.3       3 GLC5        0.0000 
     45 CA         29.0860    6.2250  -25.3580 C.3       6 GLP5        0.0000 
     46 N          28.6650    6.8945  -20.6780 N.am      2 SEC2        0.0000 
     47 N          27.1510    6.4080  -20.4800 N.am      8 SEL2        0.0000 
     48 N          30.1790    7.3810  -20.8760 N.am      5 SEP2        0.0000 
     49 CA         26.2640    5.8035  -18.7300 C.3       3 GLC5        0.0000 
     50 CA         26.0250    7.1400  -20.4710 C.3       9 GLL5        0.0000 
     51 CA         27.1905    8.4655  -21.0540 C.3       3 GLC5        0.0000 
     52 CA         28.3560    9.7910  -21.6370 C.3       6 GLP5        0.0000 
     53 N          20.0445   11.1450   -4.8280 N.am      2 SEC2        0.0000 
     54 N          20.5390   12.7640   -4.7690 N.am      8 SEL2        0.0000 
     55 N          19.5500    9.5260   -4.8870 N.am      5 SEP2        0.0000 
     56 N          19.5685   10.5775   -3.9485 N.am      2 SEC2        0.0000 
     57 N          19.5870   11.6290   -3.0100 N.am      8 SEL2        0.0000 
     58 O          20.1795   13.3005   -1.1045 O.2       1 ALC1        0.0000 
     59 O          20.7000   13.5390   -2.4820 O.2       7 ALL1        0.0000 
     60 O          19.6590   13.0620    0.2730 O.2       4 ALP1        0.0000 
     61 CA         25.3700   18.2290   -5.7560 C.3       3 GLC5        0.0000 
     62 CA         23.6900   17.0070   -6.3910 C.3       9 GLL5        0.0000 
     63 CA         27.0500   19.4510   -5.1210 C.3       6 GLP5        0.0000 
     64 CA         27.0265   18.2090   -7.9075 C.3       3 GLC5        0.0000 
     65 CA         24.8820   18.3060   -8.0790 C.3       9 GLL5        0.0000 
     66 CA         29.1710   18.1120   -7.7360 C.3       6 GLP5        0.0000 
     67 CA         25.9660   18.8785   -6.6000 C.3       3 GLC5        0.0000 
     68 CA         25.8040   19.8215   -8.5685 C.3       3 GLC5        0.0000 
     69 CA         26.7260   21.3370   -9.0580 C.3       6 GLP5        0.0000 
     70 CA         24.9705   16.8045  -11.7700 C.3       3 GLC5        0.0000 
     71 CA         23.9100   16.3170  -10.1870 C.3       9 GLL5        0.0000 
     72 CA         26.0310   17.2920  -13.3530 C.3       6 GLP5        0.0000 
     73 CA         19.2800   11.7900   -6.6845 C.3       3 GLC5        0.0000 
     74 CA         20.9460   13.0100   -7.4420 C.3       9 GLL5        0.0000 
     75 CA         17.6140   10.5700   -5.9270 C.3       6 GLP5        0.0000 
     76 CA         23.8155   12.2805   -7.8025 C.3       3 GLC5        0.0000 
     77 CA         21.7050   11.6920   -7.4820 C.3       9 GLL5        0.0000 
     78 CA         25.9260   12.8690   -8.1230 C.3       6 GLP5        0.0000 
     79 CA         21.1770   10.1070   -6.1245 C.3       3 GLC5        0.0000 
     80 CA         20.6490    8.5220   -4.7670 C.3       6 GLP5        0.0000 
     81 CA         19.3115   10.7240   -7.2730 C.3       3 GLC5        0.0000 
     82 CA         21.0090   10.8780   -8.6190 C.3       9 GLL5        0.0000 
     83 O          18.8200   10.1695   -9.3520 O.2       1 ALC1        0.0000 
     84 O          19.6700   10.4730   -8.2850 O.2       7 ALL1        0.0000 
     85 O          17.9700    9.8660  -10.4190 O.2       4 ALP1        0.0000 
     86 CA         20.8105    7.0315   -8.9915 C.3       3 GLC5        0.0000 
     87 CA         21.0410    8.7190  -10.0250 C.3       9 GLL5        0.0000 
     88 CA         20.5800    5.3440   -7.9580 C.3       6 GLP5        0.0000 
     89 N          23.3815    5.2875  -11.0540 N.am      2 SEC2        0.0000 
     90 N          22.9040    6.0990  -12.0810 N.am      8 SEL2        0.0000 
     91 N          23.8590    4.4760  -10.0270 N.am      5 SEP2        0.0000 
     92 N          22.4585    4.9090  -12.6425 N.am      2 SEC2        0.0000 
     93 N          22.0130    3.7190  -13.2040 N.am      5 SEP2        0.0000 
     94 N          24.0325    5.5560  -12.7515 N.am      2 SEC2        0.0000 
     95 N          25.1610    5.0130  -13.4220 N.am      5 SEP2        0.0000 
     96 N          19.1910    7.2465  -12.3340 N.am      2 SEC2        0.0000 
     97 N          20.6100    7.1890  -12.5750 N.am      8 SEL2        0.0000 
     98 N          17.7720    7.3040  -12.0930 N.am      5 SEP2        0.0000 
     99 CA         23.7107    7.2523  -16.6640 C.3       3 GLC5        0.0000 
    100 CA         27.5248    8.3462  -14.4728 C.3       3 GLC5        0.0000 
    101 CA         28.9050    7.9930  -12.8960 C.3       6 GLP5        0.0000 
    102 CA         26.2052    9.8942  -19.6157 C.3       3 GLC5        0.0000 
    103 CA         26.3050    9.5340  -17.7120 C.3       9 GLL5        0.0000 
    104 CA         26.1240   10.9940  -21.3050 C.3       6 GLP5        0.0000 
    105 CA         26.1565    8.5642  -22.1780 C.3       3 GLC5        0.0000 
    106 CA         27.0940   10.3230  -22.2780 C.3       6 GLP5        0.0000 
    107 CA         25.1025    5.1089  -21.1608 C.3       3 GLC5        0.0000 
    108 CA         22.6532   18.4515   -7.2157 C.3       3 GLC5        0.0000 
    109 CA         24.0090   17.1380   -7.7280 C.3       9 GLL5        0.0000 
    110 CA         20.8610   19.1810   -6.5280 C.3       6 GLP5        0.0000 
    111 CA         24.8280   14.5633   -8.7775 C.3       3 GLC5        0.0000 
    112 CA         23.5500   16.1980   -8.6770 C.3       9 GLL5        0.0000 
    113 CA         24.2360   13.9597   -7.8613 C.3       3 GLC5        0.0000 
    114 CA         22.7220   15.1010   -8.2720 C.3       9 GLL5        0.0000 
    115 CA         24.3956   15.2589   -5.4229 C.3       3 GLC5        0.0000 
    116 CA         22.3700   15.0000   -6.9270 C.3       9 GLL5        0.0000 
    117 CA         25.9830   14.7770   -4.2830 C.3       6 GLP5        0.0000 
    118 CA         21.8346   17.4609   -6.5454 C.3       3 GLC5        0.0000 
    119 CA         22.8030   15.9560   -6.0060 C.3       9 GLL5        0.0000 
    120 CA         22.8842    8.1393   -8.8765 C.3       3 GLC5        0.0000 
    121 CA         21.8240    9.6560   -9.0310 C.3       9 GLL5        0.0000 
    122 CA         24.3360    7.0910   -8.2250 C.3       6 GLP5        0.0000 
@<TRIPOS>BOND
@<TRIPOS>SUBSTRUCTURE
     1 ALC1       12 GROUP        1 X    ALC  0     ROOT ALC X 1
     2 SEC2        1 GROUP        1 X    SEC  0     **** SEC X 2
     3 GLC5        6 GROUP        1 X    GLC  0     **** GLC X 6
     4 ALP1       14 GROUP        1 Y    ALP  0     ROOT ALP Y 8
     5 SEP2        3 GROUP        1 Y    SEP  0     **** SEP Y 9
     6 GLP5        8 GROUP        1 Y    GLP  0     **** GLP Y 13
     7 ALL1       13 GROUP        1 Z    ALL  0     ROOT ALL Z 15
     8 SEL2        2 GROUP        1 Z    SEL  0     **** SEL Z 16
     9 GLL5        7 GROUP        1 Z    GLL  0     **** GLL Z 20
@<TRIPOS>SET

