#    Name: 4eqx_FAD_1_ligand
#    Modification time : Mon Mar 24 18:33:17 2014

@<TRIPOS>MOLECULE
4eqx_FAD_1_ligand
   84    89     1     0     0
SMALL
NO_CHARGES


@<TRIPOS>ATOM
      1 PA         24.1840    9.1750  -12.6440 P.3       1 FAD501      0.0000 
      2 O1A        24.1220   10.5630  -13.0640 O.co2     1 FAD501      0.0000 
      3 O2A        24.8040    8.9400  -11.2600 O.co2     1 FAD501      0.0000 
      4 O5B        24.9900    8.2210  -13.6900 O.3       1 FAD501      0.0000 
      5 C5B        24.5340    8.1380  -15.0390 C.3       1 FAD501      0.0000 
      6 C4B        25.8010    8.0170  -15.8950 C.3       1 FAD501      0.0000 
      7 O4B        25.4560    7.4850  -17.1650 O.3       1 FAD501      0.0000 
      8 C3B        26.4880    9.3820  -16.2040 C.3       1 FAD501      0.0000 
      9 O3B        27.8840    9.3260  -15.7580 O.3       1 FAD501      0.0000 
     10 C2B        26.3050    9.5340  -17.7120 C.3       1 FAD501      0.0000 
     11 O2B        27.4400   10.1960  -18.2760 O.3       1 FAD501      0.0000 
     12 C1B        26.2680    8.0550  -18.1410 C.3       1 FAD501      0.0000 
     13 N9A        25.5380    7.8870  -19.4540 N.pl3     1 FAD501      0.0000 
     14 C8A        24.3580    8.4010  -19.8520 C.2       1 FAD501      0.0000 
     15 N7A        24.0780    7.9930  -21.1430 N.2       1 FAD501      0.0000 
     16 C5A        25.0960    7.1530  -21.4960 C.ar      1 FAD501      0.0000 
     17 C6A        25.3420    6.4580  -22.6600 C.ar      1 FAD501      0.0000 
     18 N6A        24.5840    6.5560  -23.7820 N.pl3     1 FAD501      0.0000 
     19 N1A        26.5150    5.7510  -22.7130 N.ar      1 FAD501      0.0000 
     20 C2A        27.4110    5.7390  -21.6470 C.ar      1 FAD501      0.0000 
     21 N3A        27.1510    6.4080  -20.4800 N.ar      1 FAD501      0.0000 
     22 C4A        26.0250    7.1400  -20.4710 C.ar      1 FAD501      0.0000 
     23 N1         20.5390   12.7640   -4.7690 N.2       1 FAD501      0.0000 
     24 C2         20.2210   12.6270   -3.3970 C.2       1 FAD501      0.0000 
     25 O2         19.5870   11.6290   -3.0100 O.2       1 FAD501      0.0000 
     26 N3         20.7000   13.5390   -2.4820 N.am      1 FAD501      0.0000 
     27 C4         21.4570   14.6300   -2.8210 C.2       1 FAD501      0.0000 
     28 O4         21.9290   15.3830   -1.9260 O.2       1 FAD501      0.0000 
     29 C4X        21.7470   14.7690   -4.1790 C.2       1 FAD501      0.0000 
     30 N5         22.5070   15.8130   -4.6550 N.2       1 FAD501      0.0000 
     31 C5X        22.8030   15.9560   -6.0060 C.ar      1 FAD501      0.0000 
     32 C6         23.6900   17.0070   -6.3910 C.ar      1 FAD501      0.0000 
     33 C7         24.0090   17.1380   -7.7280 C.ar      1 FAD501      0.0000 
     34 C7M        24.8820   18.3060   -8.0790 C.3       1 FAD501      0.0000 
     35 C8         23.5500   16.1980   -8.6770 C.ar      1 FAD501      0.0000 
     36 C8M        23.9100   16.3170  -10.1870 C.3       1 FAD501      0.0000 
     37 C9         22.7220   15.1010   -8.2720 C.ar      1 FAD501      0.0000 
     38 C9A        22.3700   15.0000   -6.9270 C.ar      1 FAD501      0.0000 
     39 N10        21.5600   13.9640   -6.4710 N.pl3     1 FAD501      0.0000 
     40 C10        21.2890   13.8340   -5.1220 C.2       1 FAD501      0.0000 
     41 C1'        20.9460   13.0100   -7.4420 C.3       1 FAD501      0.0000 
     42 C2'        21.7050   11.6920   -7.4820 C.3       1 FAD501      0.0000 
     43 O2'        23.0170   11.9750   -7.7590 O.3       1 FAD501      0.0000 
     44 C3'        21.0090   10.8780   -8.6190 C.3       1 FAD501      0.0000 
     45 O3'        19.6700   10.4730   -8.2850 O.3       1 FAD501      0.0000 
     46 C4'        21.8240    9.6560   -9.0310 C.3       1 FAD501      0.0000 
     47 O4'        23.0470   10.1120   -9.6050 O.3       1 FAD501      0.0000 
     48 C5'        21.0410    8.7190  -10.0250 C.3       1 FAD501      0.0000 
     49 O5'        21.9900    7.6870  -10.4620 O.3       1 FAD501      0.0000 
     50 P          21.9820    7.3220  -12.0260 P.3       1 FAD501      0.0000 
     51 O1P        22.9040    6.0990  -12.0810 O.co2     1 FAD501      0.0000 
     52 O2P        20.6100    7.1890  -12.5750 O.co2     1 FAD501      0.0000 
     53 O3P        22.6610    8.6270  -12.7050 O.3       1 FAD501      0.0000 
     54 H          24.0068    9.0269  -15.3492 H         1 FAD501      0.0000 
     55 H          23.9293    7.2617  -15.2144 H         1 FAD501      0.0000 
     56 H          26.5153    7.3945  -15.4000 H         1 FAD501      0.0000 
     57 H          25.9216   10.1293  -15.7055 H         1 FAD501      0.0000 
     58 H          25.3859    9.9651  -17.9037 H         1 FAD501      0.0000 
     59 H          27.2203    7.6708  -18.1710 H         1 FAD501      0.0000 
     60 H          23.7775    8.9731  -19.3270 H         1 FAD501      0.0000 
     61 H          23.8127    7.1909  -23.7379 H         1 FAD501      0.0000 
     62 H          24.8639    5.9846  -24.5534 H         1 FAD501      0.0000 
     63 H          28.3008    5.2038  -21.7492 H         1 FAD501      0.0000 
     64 H          20.4685   13.3856   -1.4595 H         1 FAD501      0.0000 
     65 H          24.0636   17.6286   -5.6852 H         1 FAD501      0.0000 
     66 H          22.4110   14.4283   -8.9564 H         1 FAD501      0.0000 
     67 H          20.9459   13.4480   -8.4465 H         1 FAD501      0.0000 
     68 H          19.9056   12.8099   -7.1618 H         1 FAD501      0.0000 
     69 H          21.5290   11.1882   -6.5679 H         1 FAD501      0.0000 
     70 H          20.9783   11.5473   -9.5055 H         1 FAD501      0.0000 
     71 H          22.0213    9.0713   -8.1307 H         1 FAD501      0.0000 
     72 H          20.7054    9.3255  -10.8446 H         1 FAD501      0.0000 
     73 H          20.2126    8.2978   -9.4877 H         1 FAD501      0.0000 
     74 H          25.7640   18.2647   -7.6096 H         1 FAD501      0.0000 
     75 H          25.0734   18.3451   -9.0597 H         1 FAD501      0.0000 
     76 H          24.4571   19.1758   -7.8284 H         1 FAD501      0.0000 
     77 H          24.8981   16.2830  -10.3370 H         1 FAD501      0.0000 
     78 H          23.5063   15.5767  -10.7245 H         1 FAD501      0.0000 
     79 H          23.5832   17.1765  -10.5801 H         1 FAD501      0.0000 
     80 H          28.2722    8.5299  -16.2223 H         1 FAD501      0.0000 
     81 H          28.2013    9.5609  -18.1452 H         1 FAD501      0.0000 
     82 H          23.2763   11.3258   -8.4741 H         1 FAD501      0.0000 
     83 H          19.2350   10.2692   -9.1621 H         1 FAD501      0.0000 
     84 H          23.3877    9.3371  -10.1373 H         1 FAD501      0.0000 
@<TRIPOS>BOND
     1    2    1 ar   
     2    3    1 ar   
     3    4    1 1    
     4   53    1 1    
     5    5    4 1    
     6    6    5 1    
     7   54    5 1    
     8   55    5 1    
     9    7    6 1    
    10    8    6 1    
    11   56    6 1    
    12   12    7 1    
    13    9    8 1    
    14   10    8 1    
    15   57    8 1    
    16   80    9 1    
    17   11   10 1    
    18   12   10 1    
    19   58   10 1    
    20   81   11 1    
    21   13   12 1    
    22   59   12 1    
    23   14   13 1    
    24   22   13 1    
    25   15   14 2    
    26   60   14 1    
    27   16   15 1    
    28   17   16 ar   
    29   22   16 ar   
    30   18   17 1    
    31   19   17 ar   
    32   61   18 1    
    33   62   18 1    
    34   20   19 ar   
    35   21   20 ar   
    36   63   20 1    
    37   22   21 ar   
    38   24   23 1    
    39   40   23 2    
    40   25   24 2    
    41   26   24 am   
    42   27   26 am   
    43   64   26 1    
    44   28   27 2    
    45   29   27 1    
    46   30   29 2    
    47   40   29 1    
    48   31   30 1    
    49   32   31 ar   
    50   38   31 ar   
    51   33   32 ar   
    52   65   32 1    
    53   34   33 1    
    54   35   33 ar   
    55   74   34 1    
    56   75   34 1    
    57   76   34 1    
    58   36   35 1    
    59   37   35 ar   
    60   77   36 1    
    61   78   36 1    
    62   79   36 1    
    63   38   37 ar   
    64   66   37 1    
    65   39   38 1    
    66   40   39 1    
    67   41   39 1    
    68   42   41 1    
    69   67   41 1    
    70   68   41 1    
    71   43   42 1    
    72   44   42 1    
    73   69   42 1    
    74   82   43 1    
    75   45   44 1    
    76   46   44 1    
    77   70   44 1    
    78   83   45 1    
    79   47   46 1    
    80   48   46 1    
    81   71   46 1    
    82   84   47 1    
    83   49   48 1    
    84   72   48 1    
    85   73   48 1    
    86   50   49 1    
    87   51   50 ar   
    88   52   50 ar   
    89   53   50 1    
@<TRIPOS>SUBSTRUCTURE
     1 FAD501      1 GROUP   
@<TRIPOS>SET

