#    Name: 4c3k_ADP_3_INTS_M
#    Modification time : Tue Mar 25 08:47:22 2014

@<TRIPOS>MOLECULE
4c3k_ADP_3_INTS_M
   46     0    12     0     0
SMALL
NO_CHARGES


@<TRIPOS>ATOM
      1 NZ        -50.5555   35.8235  -38.1840 N.4       3 LYC4        0.0000 
      2 NZ        -51.6260   34.7270  -38.5770 N.4      11 LYL4        0.0000 
      3 NZ        -49.4850   36.9200  -37.7910 N.4       7 LYP4        0.0000 
      4 NZ        -50.3640   36.5550  -39.1850 N.4       3 LYC4        0.0000 
      5 NZ        -51.2430   36.1900  -40.5790 N.4      11 LYL4        0.0000 
      6 CA        -48.8265   36.1630  -41.8115 C.3       4 GLC5        0.0000 
      7 CA        -48.5930   33.9540  -41.5110 C.3      12 GLL5        0.0000 
      8 CA        -49.0600   38.3720  -42.1120 C.3       8 GLP5        0.0000 
      9 CA        -45.6440   34.5155  -41.6890 C.3       4 GLC5        0.0000 
     10 CA        -47.3430   33.4490  -40.8090 C.3      12 GLL5        0.0000 
     11 CA        -43.9450   35.5820  -42.5690 C.3       8 GLP5        0.0000 
     12 CA        -47.5650   30.9005  -42.9940 C.3       4 GLC5        0.0000 
     13 CA        -46.7580   32.2910  -41.5960 C.3      12 GLL5        0.0000 
     14 CA        -48.3720   29.5100  -44.3920 C.3       8 GLP5        0.0000 
     15 CA        -45.2750   33.3695  -42.5730 C.3       4 GLC5        0.0000 
     16 CA        -43.7920   34.4480  -43.5500 C.3       8 GLP5        0.0000 
     17 CA        -47.0645   32.1535  -37.3855 C.3       4 GLC5        0.0000 
     18 CA        -46.7450   31.8210  -39.2640 C.3      12 GLL5        0.0000 
     19 CA        -47.3840   32.4860  -35.5070 C.3       8 GLP5        0.0000 
     20 CA        -48.3515   30.6760  -36.6945 C.3       4 GLC5        0.0000 
     21 CA        -47.8870   28.8790  -37.3900 C.3      12 GLL5        0.0000 
     22 CA        -48.8160   32.4730  -35.9990 C.3       8 GLP5        0.0000 
     23 CA        -49.2560   28.3535  -38.7320 C.3       4 GLC5        0.0000 
     24 CA        -50.6250   27.8280  -40.0740 C.3       8 GLP5        0.0000 
     25 CA        -46.5990   25.7935  -36.2320 C.3       4 GLC5        0.0000 
     26 CA        -47.4850   27.7360  -36.5410 C.3      12 GLL5        0.0000 
     27 CA        -45.7130   23.8510  -35.9230 C.3       8 GLP5        0.0000 
     28 O         -48.9295   26.5590  -37.3840 O.2       1 ALC1        0.0000 
     29 O         -48.4080   26.8630  -36.0710 O.2       9 ALL1        0.0000 
     30 O         -49.4510   26.2550  -38.6970 O.2       5 ALP1        0.0000 
     31 N         -46.2390   26.3995  -35.1155 N.am      2 SEC2        0.0000 
     32 N         -46.1720   27.5990  -36.2560 N.am     10 SEL2        0.0000 
     33 N         -46.3060   25.2000  -33.9750 N.am      6 SEP2        0.0000 
     34 CA        -43.9635   28.1145  -37.8905 C.3       4 GLC5        0.0000 
     35 CA        -45.2520   28.4650  -36.7220 C.3      12 GLL5        0.0000 
     36 CA        -42.6750   27.7640  -39.0590 C.3       8 GLP5        0.0000 
     37 CA        -45.0635   31.0440  -37.9455 C.3       4 GLC5        0.0000 
     38 CA        -46.8250   29.7770  -37.8570 C.3      12 GLL5        0.0000 
     39 CA        -43.3020   32.3110  -38.0340 C.3       8 GLP5        0.0000 
     40 CA        -47.1045   31.1315  -36.6820 C.3       4 GLC5        0.0000 
     41 CA        -45.6430   31.1085  -42.6675 C.3       4 GLC5        0.0000 
     42 CA        -46.3720   31.2290  -40.6040 C.3      12 GLL5        0.0000 
     43 CA        -44.7210   30.4570  -44.2350 C.3       8 GLP5        0.0000 
     44 CA        -44.9303   31.9180  -38.9840 C.3       4 GLC5        0.0000 
     45 CA        -47.1912   27.6966  -38.8221 C.3       4 GLC5        0.0000 
     46 CA        -47.1270   26.3510  -40.2330 C.3       8 GLP5        0.0000 
@<TRIPOS>BOND
@<TRIPOS>SUBSTRUCTURE
     1 ALC1       28 GROUP        1 X    ALC  0     ROOT ALC X 1
     2 SEC2       31 GROUP        1 X    SEC  0     **** SEC X 2
     3 LYC4        1 GROUP        1 X    LYC  0     **** LYC X 4
     4 GLC5        6 GROUP        1 X    GLC  0     **** GLC X 6
     5 ALP1       30 GROUP        1 Y    ALP  0     ROOT ALP Y 8
     6 SEP2       33 GROUP        1 Y    SEP  0     **** SEP Y 9
     7 LYP4        3 GROUP        1 Y    LYP  0     **** LYP Y 11
     8 GLP5        8 GROUP        1 Y    GLP  0     **** GLP Y 13
     9 ALL1       29 GROUP        1 Z    ALL  0     ROOT ALL Z 15
    10 SEL2       32 GROUP        1 Z    SEL  0     **** SEL Z 16
    11 LYL4        2 GROUP        1 Z    LYL  0     **** LYL Z 18
    12 GLL5        7 GROUP        1 Z    GLL  0     **** GLL Z 20
@<TRIPOS>SET

