#    Name: 4c3k_ADP_3_ligand
#    Modification time : Tue Mar 25 08:47:22 2014

@<TRIPOS>MOLECULE
4c3k_ADP_3_ligand
   39    41     1     0     0
SMALL
NO_CHARGES


@<TRIPOS>ATOM
      1 PB        -52.1680   35.2100  -39.8980 P.3       1 ADP1112     0.0000 
      2 O1B       -51.6260   34.7270  -38.5770 O.co2     1 ADP1112     0.0000 
      3 O2B       -53.6160   35.6340  -39.8210 O.co2     1 ADP1112     0.0000 
      4 O3B       -51.2430   36.1900  -40.5790 O.co2     1 ADP1112     0.0000 
      5 PA        -50.9740   32.9910  -41.1810 P.3       1 ADP1112     0.0000 
      6 O1A       -50.8490   32.8690  -42.6800 O.co2     1 ADP1112     0.0000 
      7 O2A       -51.1310   31.7660  -40.3170 O.co2     1 ADP1112     0.0000 
      8 O3A       -52.2460   33.9180  -40.8650 O.3       1 ADP1112     0.0000 
      9 O5'       -49.7260   33.8560  -40.6540 O.3       1 ADP1112     0.0000 
     10 C5'       -48.5930   33.9540  -41.5110 C.3       1 ADP1112     0.0000 
     11 C4'       -47.3430   33.4490  -40.8090 C.3       1 ADP1112     0.0000 
     12 O4'       -47.6240   32.9240  -39.5120 O.3       1 ADP1112     0.0000 
     13 C3'       -46.7580   32.2910  -41.5960 C.3       1 ADP1112     0.0000 
     14 O3'       -45.5480   32.6810  -42.2060 O.3       1 ADP1112     0.0000 
     15 C2'       -46.3720   31.2290  -40.6040 C.3       1 ADP1112     0.0000 
     16 O2'       -44.9710   30.9280  -40.6750 O.3       1 ADP1112     0.0000 
     17 C1'       -46.7450   31.8210  -39.2640 C.3       1 ADP1112     0.0000 
     18 N9        -47.4310   30.7150  -38.5800 N.pl3     1 ADP1112     0.0000 
     19 C8        -48.7490   30.4620  -38.6140 C.2       1 ADP1112     0.0000 
     20 N7        -49.0400   29.3600  -37.8820 N.2       1 ADP1112     0.0000 
     21 C5        -47.8870   28.8790  -37.3900 C.ar      1 ADP1112     0.0000 
     22 C6        -47.4850   27.7360  -36.5410 C.ar      1 ADP1112     0.0000 
     23 N6        -48.4080   26.8630  -36.0710 N.pl3     1 ADP1112     0.0000 
     24 N1        -46.1720   27.5990  -36.2560 N.ar      1 ADP1112     0.0000 
     25 C2        -45.2520   28.4650  -36.7220 C.ar      1 ADP1112     0.0000 
     26 N3        -45.5460   29.5240  -37.4960 N.ar      1 ADP1112     0.0000 
     27 C4        -46.8250   29.7770  -37.8570 C.ar      1 ADP1112     0.0000 
     28 H         -48.4073   34.9943  -41.8214 H         1 ADP1112     0.0000 
     29 H         -48.7259   33.3606  -42.4293 H         1 ADP1112     0.0000 
     30 H         -46.6114   34.2258  -40.7718 H         1 ADP1112     0.0000 
     31 H         -47.4624   31.9086  -42.2640 H         1 ADP1112     0.0000 
     32 H         -46.9891   30.3710  -40.7719 H         1 ADP1112     0.0000 
     33 H         -45.8650   32.0883  -38.7611 H         1 ADP1112     0.0000 
     34 H         -49.4127   30.9954  -39.0982 H         1 ADP1112     0.0000 
     35 H         -48.4859   26.7982  -35.0762 H         1 ADP1112     0.0000 
     36 H         -48.9297   26.3606  -36.7606 H         1 ADP1112     0.0000 
     37 H         -44.2283   28.2998  -36.4606 H         1 ADP1112     0.0000 
     38 H         -44.8458   32.1167  -41.7719 H         1 ADP1112     0.0000 
     39 H         -44.9193   29.9296  -40.6504 H         1 ADP1112     0.0000 
@<TRIPOS>BOND
     1    2    1 ar   
     2    3    1 ar   
     3    4    1 ar   
     4    8    1 1    
     5    6    5 ar   
     6    7    5 ar   
     7    8    5 1    
     8    9    5 1    
     9   10    9 1    
    10   11   10 1    
    11   28   10 1    
    12   29   10 1    
    13   12   11 1    
    14   13   11 1    
    15   30   11 1    
    16   17   12 1    
    17   14   13 1    
    18   15   13 1    
    19   31   13 1    
    20   38   14 1    
    21   16   15 1    
    22   17   15 1    
    23   32   15 1    
    24   39   16 1    
    25   18   17 1    
    26   33   17 1    
    27   19   18 1    
    28   27   18 1    
    29   20   19 2    
    30   34   19 1    
    31   21   20 1    
    32   22   21 ar   
    33   27   21 ar   
    34   23   22 1    
    35   24   22 ar   
    36   35   23 1    
    37   36   23 1    
    38   25   24 ar   
    39   26   25 ar   
    40   37   25 1    
    41   27   26 ar   
@<TRIPOS>SUBSTRUCTURE
     1 ADP1112     1 GROUP   
@<TRIPOS>SET

