#    Name: 3vrz_VRZ_1_INTS_M
#    Modification time : Tue Mar 25 01:22:54 2014

@<TRIPOS>MOLECULE
3vrz_VRZ_1_INTS_M
   90     0     9     0     0
SMALL
NO_CHARGES


@<TRIPOS>ATOM
      1 CA          7.2745   -4.2565   -9.8835 C.3       3 GLC5        0.0000 
      2 CA          8.1980   -2.3240   -9.6030 C.3       9 GLL5        0.0000 
      3 CA          6.3510   -6.1890  -10.1640 C.3       6 GLP5        0.0000 
      4 CA          6.8740   -2.3190  -11.0405 C.3       3 GLC5        0.0000 
      5 CA          5.5500   -2.3140  -12.4780 C.3       6 GLP5        0.0000 
      6 CA          5.8660   -1.1900  -10.8210 C.3       3 GLC5        0.0000 
      7 CA          6.1820   -0.0660   -9.1640 C.3       9 GLL5        0.0000 
      8 CA          5.2325   -2.1985   -6.3670 C.3       3 GLC5        0.0000 
      9 CA          4.9740   -1.7540   -8.4620 C.3       9 GLL5        0.0000 
     10 CA          5.4910   -2.6430   -4.2720 C.3       6 GLP5        0.0000 
     11 CA          5.2620   -2.0340  -10.4700 C.3       3 GLC5        0.0000 
     12 CA          4.3335   -2.9045   -6.0955 C.3       3 GLC5        0.0000 
     13 CA          3.1760   -3.1660   -7.9190 C.3       9 GLL5        0.0000 
     14 CA          2.2755   -1.4345   -6.9650 C.3       3 GLC5        0.0000 
     15 CA          1.3750    0.2970   -6.0110 C.3       6 GLP5        0.0000 
     16 CA          0.9995   -3.1555   -7.5935 C.3       3 GLC5        0.0000 
     17 CA         -1.1770   -3.1450   -7.2680 C.3       6 GLP5        0.0000 
     18 CA          1.8860   -4.2020   -8.9040 C.3       3 GLC5        0.0000 
     19 CA          0.5960   -5.2380   -9.8890 C.3       6 GLP5        0.0000 
     20 N           1.2595   -3.2220   -8.6470 N.am      2 SEC2        0.0000 
     21 N           2.2930   -2.2510   -8.3480 N.am      8 SEL2        0.0000 
     22 N           0.2260   -4.1930   -8.9460 N.am      5 SEP2        0.0000 
     23 CA          2.0060   -2.8405   -9.9660 C.3       3 GLC5        0.0000 
     24 CA          2.7090   -1.0630   -8.8490 C.3       9 GLL5        0.0000 
     25 CA          1.3030   -4.6180  -11.0830 C.3       6 GLP5        0.0000 
     26 O           0.3010   -0.4885   -9.0420 O.2       1 ALC1        0.0000 
     27 O           1.7780   -0.1700   -9.2700 O.2       7 ALL1        0.0000 
     28 O          -1.1760   -0.8070   -8.8140 O.2       4 ALP1        0.0000 
     29 CA          3.8975    5.0880   -8.5120 C.3       3 GLC5        0.0000 
     30 CA          3.3420    3.7330   -9.9540 C.3       9 GLL5        0.0000 
     31 CA          4.4530    6.4430   -7.0700 C.3       6 GLP5        0.0000 
     32 O           4.9125    6.0935  -12.4370 O.2       1 ALC1        0.0000 
     33 O           3.9310    5.4220  -11.6500 O.2       7 ALL1        0.0000 
     34 O           5.8940    6.7650  -13.2240 O.2       4 ALP1        0.0000 
     35 O           4.3475    7.0585  -12.7320 O.2       1 ALC1        0.0000 
     36 O           2.8010    7.3520  -12.2400 O.2       7 ALL1        0.0000 
     37 CA         -0.0775    7.2990  -12.1985 C.3       3 GLC5        0.0000 
     38 CA          1.5830    8.1490  -12.2360 C.3       9 GLL5        0.0000 
     39 CA         -1.7380    6.4490  -12.1610 C.3       6 GLP5        0.0000 
     40 CA          2.0640   11.2280  -16.1510 C.3       3 GLC5        0.0000 
     41 CA          1.4600   11.3840  -14.1800 C.3       9 GLL5        0.0000 
     42 CA          2.6680   11.0720  -18.1220 C.3       6 GLP5        0.0000 
     43 CA          3.3575   13.8920  -13.7070 C.3       3 GLC5        0.0000 
     44 CA          1.8960   12.3060  -13.2380 C.3       9 GLL5        0.0000 
     45 CA          4.8190   15.4780  -14.1760 C.3       6 GLP5        0.0000 
     46 CA          1.2755   11.6100   -9.9970 C.3       3 GLC5        0.0000 
     47 CA          2.2420   11.8840  -11.9600 C.3       9 GLL5        0.0000 
     48 CA          0.3090   11.3360   -8.0340 C.3       6 GLP5        0.0000 
     49 CA          1.7540   10.4080   -9.6780 C.3       3 GLC5        0.0000 
     50 CA          2.1480   10.5360  -11.6320 C.3       9 GLL5        0.0000 
     51 CA          1.3600   10.2800   -7.7240 C.3       6 GLP5        0.0000 
     52 CA          7.9505   -1.8203   -5.9635 C.3       3 GLC5        0.0000 
     53 CA          8.4380   -1.0700   -7.5240 C.3       9 GLL5        0.0000 
     54 CA          7.9350   -2.1110   -4.0190 C.3       6 GLP5        0.0000 
     55 CA         10.2955   -0.3180   -6.4160 C.3       3 GLC5        0.0000 
     56 CA         11.4750    0.4340   -4.9540 C.3       6 GLP5        0.0000 
     57 CA          7.0195   -0.1288   -6.9180 C.3       3 GLC5        0.0000 
     58 CA          6.0730    1.2720   -5.9280 C.3       6 GLP5        0.0000 
     59 CA          9.2157   -3.0570  -11.3330 C.3       3 GLC5        0.0000 
     60 CA          9.4970   -3.9730  -13.1320 C.3       6 GLP5        0.0000 
     61 CA          2.3832   -0.3143   -7.4480 C.3       3 GLC5        0.0000 
     62 CA          4.0740   -0.7880   -8.9210 C.3       9 GLL5        0.0000 
     63 CA          3.3977   -0.9832  -10.6145 C.3       3 GLC5        0.0000 
     64 CA          3.4040   -1.0410  -12.3440 C.3       6 GLP5        0.0000 
     65 CA          5.5367    2.6877   -8.3018 C.3       3 GLC5        0.0000 
     66 CA          4.5110    1.6240   -9.9320 C.3       9 GLL5        0.0000 
     67 CA          7.0400    3.3250   -6.9460 C.3       6 GLP5        0.0000 
     68 CA          4.1915    0.2351  -11.3320 C.3       3 GLC5        0.0000 
     69 CA          4.8510    0.2870   -9.3600 C.3       9 GLL5        0.0000 
     70 CA          4.7010    2.1800  -13.0527 C.3       3 GLC5        0.0000 
     71 CA          5.2770    2.0670  -10.9940 C.3       9 GLL5        0.0000 
     72 CA          4.2320    1.6700  -14.8280 C.3       6 GLP5        0.0000 
     73 CA          5.7600    4.9890  -10.3108 C.3       3 GLC5        0.0000 
     74 CA          5.0630    3.3130  -11.5610 C.3       9 GLL5        0.0000 
     75 CA          6.9450    6.2440   -9.3160 C.3       6 GLP5        0.0000 
     76 CA          1.4635    3.7180   -9.4857 C.3       3 GLC5        0.0000 
     77 CA         -0.5220    4.3310   -9.3030 C.3       6 GLP5        0.0000 
     78 CA          0.7548    8.6830  -10.5288 C.3       3 GLC5        0.0000 
     79 CA         -0.1420    8.4850   -8.6500 C.3       6 GLP5        0.0000 
     80 CA         -0.5172    9.2592  -13.0485 C.3       3 GLC5        0.0000 
     81 CA          1.7200    9.6130  -12.5790 C.3       9 GLL5        0.0000 
     82 CA         -2.5770    8.6920  -12.8830 C.3       6 GLP5        0.0000 
     83 CA          0.1137   11.1150  -15.3392 C.3       3 GLC5        0.0000 
     84 CA          1.3650   10.0400  -13.8490 C.3       9 GLL5        0.0000 
     85 CA         -1.1850   11.5180  -16.6640 C.3       6 GLP5        0.0000 
     86 CA          3.5031   11.4085  -14.5211 C.3       3 GLC5        0.0000 
     87 CA          5.3520   11.3080  -15.4160 C.3       6 GLP5        0.0000 
     88 CA          4.2755   10.9710  -12.0000 C.3       3 GLC5        0.0000 
     89 CA          6.3560   10.7320  -12.2040 C.3       6 GLP5        0.0000 
     90 CA          5.5466    0.3459   -7.4524 C.3       3 GLC5        0.0000 
@<TRIPOS>BOND
@<TRIPOS>SUBSTRUCTURE
     1 ALC1       26 GROUP        1 X    ALC  0     ROOT ALC X 1
     2 SEC2       20 GROUP        1 X    SEC  0     **** SEC X 2
     3 GLC5        1 GROUP        1 X    GLC  0     **** GLC X 6
     4 ALP1       28 GROUP        1 Y    ALP  0     ROOT ALP Y 8
     5 SEP2       22 GROUP        1 Y    SEP  0     **** SEP Y 9
     6 GLP5        3 GROUP        1 Y    GLP  0     **** GLP Y 13
     7 ALL1       27 GROUP        1 Z    ALL  0     ROOT ALL Z 15
     8 SEL2       21 GROUP        1 Z    SEL  0     **** SEL Z 16
     9 GLL5        2 GROUP        1 Z    GLL  0     **** GLL Z 20
@<TRIPOS>SET

