#    Name: 3vrz_VRZ_1_ligand
#    Modification time : Tue Mar 25 01:22:54 2014

@<TRIPOS>MOLECULE
3vrz_VRZ_1_ligand
   58    62     1     0     0
SMALL
NO_CHARGES


@<TRIPOS>ATOM
      1 CAP         8.4380   -1.0700   -7.5240 C.3       1 VRZ603      0.0000 
      2 CAN         9.7940   -1.0700   -8.2320 C.3       1 VRZ603      0.0000 
      3 CAO         9.6710   -1.9580   -9.4650 C.3       1 VRZ603      0.0000 
      4 CAQ         8.1980   -2.3240   -9.6030 C.3       1 VRZ603      0.0000 
      5 CBE         7.4940   -1.9890   -8.2920 C.3       1 VRZ603      0.0000 
      6 NBF         6.2310   -1.2910   -8.6280 N.pl3     1 VRZ603      0.0000 
      7 CAM         6.1820   -0.0660   -9.1640 C.2       1 VRZ603      0.0000 
      8 C4          4.9740   -1.7540   -8.4620 C.ar      1 VRZ603      0.0000 
      9 N3          4.4980   -2.9310   -7.9700 N.ar      1 VRZ603      0.0000 
     10 C2          3.1760   -3.1660   -7.9190 C.ar      1 VRZ603      0.0000 
     11 N1          2.2930   -2.2510   -8.3480 N.ar      1 VRZ603      0.0000 
     12 C6          2.7090   -1.0630   -8.8490 C.ar      1 VRZ603      0.0000 
     13 NAA         1.7780   -0.1700   -9.2700 N.pl3     1 VRZ603      0.0000 
     14 C5          4.0740   -0.7880   -8.9210 C.ar      1 VRZ603      0.0000 
     15 CBB         4.8510    0.2870   -9.3600 C.2       1 VRZ603      0.0000 
     16 CAZ         4.5110    1.6240   -9.9320 C.ar      1 VRZ603      0.0000 
     17 CAK         5.2770    2.0670  -10.9940 C.ar      1 VRZ603      0.0000 
     18 CAI         5.0630    3.3130  -11.5610 C.ar      1 VRZ603      0.0000 
     19 CAJ         3.5560    2.4770   -9.3830 C.ar      1 VRZ603      0.0000 
     20 CAH         3.3420    3.7330   -9.9540 C.ar      1 VRZ603      0.0000 
     21 CAY         4.0870    4.1550  -11.0500 C.ar      1 VRZ603      0.0000 
     22 NAV         3.9310    5.4220  -11.6500 N.am      1 VRZ603      0.0000 
     23 CAW         2.8260    6.1640  -11.6390 C.2       1 VRZ603      0.0000 
     24 OAB         1.8120    5.7870  -11.0910 O.2       1 VRZ603      0.0000 
     25 NAU         2.8010    7.3520  -12.2400 N.am      1 VRZ603      0.0000 
     26 CAR         1.5830    8.1490  -12.2360 C.3       1 VRZ603      0.0000 
     27 CAX         1.7200    9.6130  -12.5790 C.ar      1 VRZ603      0.0000 
     28 CAF         1.3650   10.0400  -13.8490 C.ar      1 VRZ603      0.0000 
     29 CAD         1.4600   11.3840  -14.1800 C.ar      1 VRZ603      0.0000 
     30 CAC         1.8960   12.3060  -13.2380 C.ar      1 VRZ603      0.0000 
     31 CAE         2.2420   11.8840  -11.9600 C.ar      1 VRZ603      0.0000 
     32 CAG         2.1480   10.5360  -11.6320 C.ar      1 VRZ603      0.0000 
     33 H           8.0388   -0.0679   -7.5145 H         1 VRZ603      0.0000 
     34 H           8.5597   -1.4367   -6.5169 H         1 VRZ603      0.0000 
     35 H          10.5430   -1.4696   -7.5715 H         1 VRZ603      0.0000 
     36 H          10.0417   -0.0671   -8.5315 H         1 VRZ603      0.0000 
     37 H          10.2529   -2.8493   -9.3270 H         1 VRZ603      0.0000 
     38 H           9.9908   -1.4149  -10.3339 H         1 VRZ603      0.0000 
     39 H           8.1057   -3.3808   -9.8014 H         1 VRZ603      0.0000 
     40 H           7.7574   -1.7515  -10.4048 H         1 VRZ603      0.0000 
     41 H           7.3273   -2.8713   -7.7527 H         1 VRZ603      0.0000 
     42 H           6.9271    0.5017   -9.3882 H         1 VRZ603      0.0000 
     43 H           2.8285   -4.0817   -7.5367 H         1 VRZ603      0.0000 
     44 H           2.1278    0.7025   -9.6111 H         1 VRZ603      0.0000 
     45 H           0.8244   -0.4634   -9.2019 H         1 VRZ603      0.0000 
     46 H           6.0260    1.4566  -11.3744 H         1 VRZ603      0.0000 
     47 H           5.6318    3.6159  -12.3666 H         1 VRZ603      0.0000 
     48 H           3.0130    2.1855   -8.5647 H         1 VRZ603      0.0000 
     49 H           2.6199    4.3556   -9.5553 H         1 VRZ603      0.0000 
     50 H           4.8052    5.7976  -12.1569 H         1 VRZ603      0.0000 
     51 H           3.6158    7.7562  -12.7236 H         1 VRZ603      0.0000 
     52 H           1.0826    8.0777  -11.2298 H         1 VRZ603      0.0000 
     53 H           0.8298    7.7001  -12.9425 H         1 VRZ603      0.0000 
     54 H           1.0310    9.3608  -14.5466 H         1 VRZ603      0.0000 
     55 H           1.2063   11.6993  -15.1277 H         1 VRZ603      0.0000 
     56 H           1.9632   13.3025  -13.4857 H         1 VRZ603      0.0000 
     57 H           2.5651   12.5629  -11.2620 H         1 VRZ603      0.0000 
     58 H           2.3966   10.2205  -10.6834 H         1 VRZ603      0.0000 
@<TRIPOS>BOND
     1    2    1 1    
     2    5    1 1    
     3   33    1 1    
     4   34    1 1    
     5    3    2 1    
     6   35    2 1    
     7   36    2 1    
     8    4    3 1    
     9   37    3 1    
    10   38    3 1    
    11    5    4 1    
    12   39    4 1    
    13   40    4 1    
    14    6    5 1    
    15   41    5 1    
    16    7    6 1    
    17    8    6 1    
    18   15    7 2    
    19   42    7 1    
    20    9    8 ar   
    21   14    8 ar   
    22   10    9 ar   
    23   11   10 ar   
    24   43   10 1    
    25   12   11 ar   
    26   13   12 1    
    27   14   12 ar   
    28   44   13 1    
    29   45   13 1    
    30   15   14 1    
    31   16   15 1    
    32   17   16 ar   
    33   19   16 ar   
    34   18   17 ar   
    35   46   17 1    
    36   21   18 ar   
    37   47   18 1    
    38   20   19 ar   
    39   48   19 1    
    40   21   20 ar   
    41   49   20 1    
    42   22   21 1    
    43   23   22 am   
    44   50   22 1    
    45   24   23 2    
    46   25   23 am   
    47   26   25 1    
    48   51   25 1    
    49   27   26 1    
    50   52   26 1    
    51   53   26 1    
    52   28   27 ar   
    53   32   27 ar   
    54   29   28 ar   
    55   54   28 1    
    56   30   29 ar   
    57   55   29 1    
    58   31   30 ar   
    59   56   30 1    
    60   32   31 ar   
    61   57   31 1    
    62   58   32 1    
@<TRIPOS>SUBSTRUCTURE
     1 VRZ603      1 GROUP   
@<TRIPOS>SET

