#    Name: 4mds_23H_1_INTS_M
#    Modification time : Tue Mar 25 12:09:23 2014

@<TRIPOS>MOLECULE
4mds_23H_1_INTS_M
   71     0     9     0     0
SMALL
NO_CHARGES


@<TRIPOS>ATOM
      1 N         -12.3250   16.8245  -22.7895 N.am      2 SEC2        0.0000 
      2 N         -13.4120   16.2900  -23.5140 N.am      8 SEL2        0.0000 
      3 N         -11.2380   17.3590  -22.0650 N.am      5 SEP2        0.0000 
      4 CA        -14.4485   16.0925  -21.4850 C.3       3 GLC5        0.0000 
      5 CA        -16.0720   16.4110  -22.9370 C.3       9 GLL5        0.0000 
      6 CA        -12.8250   15.7740  -20.0330 C.3       6 GLP5        0.0000 
      7 O         -14.4795   19.0590  -22.7575 O.2       1 ALC1        0.0000 
      8 O         -15.9120   18.7320  -23.6000 O.2       7 ALL1        0.0000 
      9 O         -13.0470   19.3860  -21.9150 O.2       4 ALP1        0.0000 
     10 CA        -12.1475   19.1665  -24.6640 C.3       3 GLC5        0.0000 
     11 CA        -13.7230   19.4530  -25.4880 C.3       9 GLL5        0.0000 
     12 CA        -10.5720   18.8800  -23.8400 C.3       6 GLP5        0.0000 
     13 CA        -13.9250   21.4830  -22.1510 C.3       3 GLC5        0.0000 
     14 CA        -15.5390   21.0950  -23.4390 C.3       9 GLL5        0.0000 
     15 CA        -12.3110   21.8710  -20.8630 C.3       6 GLP5        0.0000 
     16 CA        -15.0570   22.4940  -22.0995 C.3       3 GLC5        0.0000 
     17 CA        -14.5750   23.8930  -20.7600 C.3       6 GLP5        0.0000 
     18 CA        -20.8785   14.2135  -22.1210 C.3       3 GLC5        0.0000 
     19 CA        -19.6060   15.8440  -22.3420 C.3       9 GLL5        0.0000 
     20 CA        -22.1510   12.5830  -21.9000 C.3       6 GLP5        0.0000 
     21 CA        -21.1040   16.5480  -21.4470 C.3       3 GLC5        0.0000 
     22 CA        -22.6020   17.2520  -20.5520 C.3       6 GLP5        0.0000 
     23 CA        -19.1800   13.8080  -20.7175 C.3       3 GLC5        0.0000 
     24 CA        -19.0890   15.5500  -21.0960 C.3       9 GLL5        0.0000 
     25 CA        -19.2710   12.0660  -20.3390 C.3       6 GLP5        0.0000 
     26 CA        -19.7430   15.0935  -19.1385 C.3       3 GLC5        0.0000 
     27 CA        -20.3970   14.6370  -17.1810 C.3       6 GLP5        0.0000 
     28 CA        -20.3775   16.5195  -20.2270 C.3       3 GLC5        0.0000 
     29 CA        -21.6660   17.4890  -19.3580 C.3       6 GLP5        0.0000 
     30 CA        -18.0345   13.7905  -20.1870 C.3       3 GLC5        0.0000 
     31 CA        -16.7980   15.5150  -20.0350 C.3       9 GLL5        0.0000 
     32 CA        -15.4675   15.8940  -18.9060 C.3       3 GLC5        0.0000 
     33 CA        -14.1370   16.2730  -17.7770 C.3       6 GLP5        0.0000 
     34 CA        -19.4050   11.6760  -23.3975 C.3       3 GLC5        0.0000 
     35 CA        -17.6880   11.7860  -24.3940 C.3       9 GLL5        0.0000 
     36 CA        -21.1220   11.5660  -22.4010 C.3       6 GLP5        0.0000 
     37 CA        -21.9180    8.0135  -25.3160 C.3       3 GLC5        0.0000 
     38 CA        -20.0530    9.0580  -25.6450 C.3       9 GLL5        0.0000 
     39 CA        -23.7830    6.9690  -24.9870 C.3       6 GLP5        0.0000 
     40 CA        -21.8445    9.8640  -25.8185 C.3       3 GLC5        0.0000 
     41 CA        -23.6360   10.6700  -25.9920 C.3       6 GLP5        0.0000 
     42 CA        -20.5875   10.3120  -24.0230 C.3       3 GLC5        0.0000 
     43 CA        -12.2080   12.5585  -23.8310 C.3       3 GLC5        0.0000 
     44 CA        -13.2970   14.0520  -24.3380 C.3       9 GLL5        0.0000 
     45 CA        -11.1190   11.0650  -23.3240 C.3       6 GLP5        0.0000 
     46 CA        -12.4215   14.7135  -22.5585 C.3       3 GLC5        0.0000 
     47 CA        -11.5460   15.3750  -20.7790 C.3       6 GLP5        0.0000 
     48 N          -9.3900   14.3460  -23.2575 N.am      2 SEC2        0.0000 
     49 N         -10.9070   14.3230  -24.0180 N.am      8 SEL2        0.0000 
     50 N          -7.8730   14.3690  -22.4970 N.am      5 SEP2        0.0000 
     51 N          -8.8435   14.6560  -23.5300 N.am      2 SEC2        0.0000 
     52 N          -9.8140   14.9430  -24.5630 N.am      8 SEL2        0.0000 
     53 CA         -7.5405   16.0025  -25.9680 C.3       3 GLC5        0.0000 
     54 CA         -9.5830   16.3760  -26.5720 C.3       9 GLL5        0.0000 
     55 CA         -5.4980   15.6290  -25.3640 C.3       6 GLP5        0.0000 
     56 CA        -15.8625   10.6182  -22.4100 C.3       3 GLC5        0.0000 
     57 CA        -15.9970   12.8560  -23.0010 C.3       9 GLL5        0.0000 
     58 CA        -15.3380    8.9400  -21.6510 C.3       6 GLP5        0.0000 
     59 CA        -17.8290   12.1813  -21.7540 C.3       3 GLC5        0.0000 
     60 CA        -16.7770   11.7370  -23.3370 C.3       9 GLL5        0.0000 
     61 CA        -10.7415   14.3040  -27.5400 C.3       3 GLC5        0.0000 
     62 CA        -11.6590   15.3490  -25.7880 C.3       9 GLL5        0.0000 
     63 CA        -10.5130   13.1410  -29.3530 C.3       6 GLP5        0.0000 
     64 CA        -10.7710   17.1735  -24.7835 C.3       3 GLC5        0.0000 
     65 CA         -8.6288   15.9075  -28.2600 C.3       3 GLC5        0.0000 
     66 CA         -7.3150   15.1570  -29.4140 C.3       6 GLP5        0.0000 
     67 CA        -10.2278   14.8995  -28.2295 C.3       3 GLC5        0.0000 
     68 CA        -10.2572   17.7690  -25.4730 C.3       3 GLC5        0.0000 
     69 CA        -10.3020   16.9400  -27.6400 C.3       9 GLL5        0.0000 
     70 CA        -11.2732   14.7248  -28.3293 C.3       3 GLC5        0.0000 
     71 CA        -11.6800   16.7030  -27.7630 C.3       9 GLL5        0.0000 
@<TRIPOS>BOND
@<TRIPOS>SUBSTRUCTURE
     1 ALC1        7 GROUP        1 X    ALC  0     ROOT ALC X 1
     2 SEC2        1 GROUP        1 X    SEC  0     **** SEC X 2
     3 GLC5        4 GROUP        1 X    GLC  0     **** GLC X 6
     4 ALP1        9 GROUP        1 Y    ALP  0     ROOT ALP Y 8
     5 SEP2        3 GROUP        1 Y    SEP  0     **** SEP Y 9
     6 GLP5        6 GROUP        1 Y    GLP  0     **** GLP Y 13
     7 ALL1        8 GROUP        1 Z    ALL  0     ROOT ALL Z 15
     8 SEL2        2 GROUP        1 Z    SEL  0     **** SEL Z 16
     9 GLL5        5 GROUP        1 Z    GLL  0     **** GLL Z 20
@<TRIPOS>SET

