#    Name: 4mds_23H_1_ligand
#    Modification time : Tue Mar 25 12:09:23 2014

@<TRIPOS>MOLECULE
4mds_23H_1_ligand
   71    74     1     0     0
SMALL
NO_CHARGES


@<TRIPOS>ATOM
      1 O1        -13.4120   16.2900  -23.5140 O.2       1 23H401      0.0000 
      2 C1        -14.0390   15.2460  -23.7520 C.2       1 23H401      0.0000 
      3 N1        -15.3490   15.2130  -23.4560 N.am      1 23H401      0.0000 
      4 C2        -16.0720   16.4110  -22.9370 C.3       1 23H401      0.0000 
      5 C3        -16.1430   17.4800  -24.0070 C.2       1 23H401      0.0000 
      6 O2        -16.3870   17.1740  -25.1720 O.2       1 23H401      0.0000 
      7 N2        -15.9120   18.7320  -23.6000 N.am      1 23H401      0.0000 
      8 C24       -15.9860   19.9760  -24.3950 C.3       1 23H401      0.0000 
      9 C25       -17.4610   20.2090  -24.7780 C.3       1 23H401      0.0000 
     10 C27       -15.1350   19.9790  -25.6550 C.3       1 23H401      0.0000 
     11 C28       -13.7230   19.4530  -25.4880 C.3       1 23H401      0.0000 
     12 C26       -15.5390   21.0950  -23.4390 C.3       1 23H401      0.0000 
     13 C19       -17.4300   16.1180  -22.3810 C.2       1 23H401      0.0000 
     14 C20       -18.5740   16.2110  -23.1740 C.2       1 23H401      0.0000 
     15 C21       -19.6060   15.8440  -22.3420 C.2       1 23H401      0.0000 
     16 C22       -19.0890   15.5500  -21.0960 C.2       1 23H401      0.0000 
     17 N7        -17.7550   15.7230  -21.1520 N.pl3     1 23H401      0.0000 
     18 C23       -16.7980   15.5150  -20.0350 C.3       1 23H401      0.0000 
     19 C11       -16.1030   14.0340  -23.7420 C.ar      1 23H401      0.0000 
     20 C12       -17.0070   14.0780  -24.7930 C.ar      1 23H401      0.0000 
     21 C13       -17.8040   12.9730  -25.1160 C.ar      1 23H401      0.0000 
     22 C16       -15.9970   12.8560  -23.0010 C.ar      1 23H401      0.0000 
     23 C15       -16.7770   11.7370  -23.3370 C.ar      1 23H401      0.0000 
     24 C14       -17.6880   11.7860  -24.3940 C.ar      1 23H401      0.0000 
     25 N6        -18.4070   10.6270  -24.6370 N.am      1 23H401      0.0000 
     26 C17       -19.3800   10.3850  -25.5220 C.2       1 23H401      0.0000 
     27 C18       -20.0530    9.0580  -25.6450 C.3       1 23H401      0.0000 
     28 O3        -19.7660   11.2790  -26.2610 O.2       1 23H401      0.0000 
     29 C4        -13.2970   14.0520  -24.3380 C.3       1 23H401      0.0000 
     30 N3        -12.0180   14.5470  -24.7740 N.pl3     1 23H401      0.0000 
     31 N4        -10.9070   14.3230  -24.0180 N.2       1 23H401      0.0000 
     32 N5         -9.8140   14.9430  -24.5630 N.2       1 23H401      0.0000 
     33 C10       -10.2810   15.5850  -25.6660 C.ar      1 23H401      0.0000 
     34 C5        -11.6590   15.3490  -25.7880 C.ar      1 23H401      0.0000 
     35 C9         -9.5830   16.3760  -26.5720 C.ar      1 23H401      0.0000 
     36 C8        -10.3020   16.9400  -27.6400 C.ar      1 23H401      0.0000 
     37 C7        -11.6800   16.7030  -27.7630 C.ar      1 23H401      0.0000 
     38 C6        -12.3870   15.9140  -26.8480 C.ar      1 23H401      0.0000 
     39 H         -15.4555   16.8427  -22.1114 H         1 23H401      0.0000 
     40 H         -15.6330   18.9113  -22.5698 H         1 23H401      0.0000 
     41 H         -15.0880   21.0160  -26.0509 H         1 23H401      0.0000 
     42 H         -15.6517   19.3806  -26.4355 H         1 23H401      0.0000 
     43 H         -18.6166   16.4655  -24.0651 H         1 23H401      0.0000 
     44 H         -20.5306   15.7989  -22.5839 H         1 23H401      0.0000 
     45 H         -19.6047   15.2738  -20.3392 H         1 23H401      0.0000 
     46 H         -17.0988   14.9448  -25.3548 H         1 23H401      0.0000 
     47 H         -18.4776   13.0400  -25.8903 H         1 23H401      0.0000 
     48 H         -15.3482   12.8030  -22.2073 H         1 23H401      0.0000 
     49 H         -16.6723   10.8668  -22.7918 H         1 23H401      0.0000 
     50 H         -18.1179    9.7755  -23.9869 H         1 23H401      0.0000 
     51 H         -13.8779   13.6606  -25.1615 H         1 23H401      0.0000 
     52 H         -13.1952   13.3019  -23.5661 H         1 23H401      0.0000 
     53 H          -8.5916   16.5440  -26.4720 H         1 23H401      0.0000 
     54 H          -9.8192   17.5243  -28.3286 H         1 23H401      0.0000 
     55 H         -12.1922   17.1291  -28.5623 H         1 23H401      0.0000 
     56 H         -13.3753   15.7569  -26.9437 H         1 23H401      0.0000 
     57 H         -17.5769   21.0413  -25.3200 H         1 23H401      0.0000 
     58 H         -17.8279   19.4529  -25.3199 H         1 23H401      0.0000 
     59 H         -18.0442   20.3012  -23.9709 H         1 23H401      0.0000 
     60 H         -13.2121   19.4813  -26.3472 H         1 23H401      0.0000 
     61 H         -13.2041   19.9873  -24.8207 H         1 23H401      0.0000 
     62 H         -13.7151   18.5038  -25.1734 H         1 23H401      0.0000 
     63 H         -14.6096   20.9458  -23.1013 H         1 23H401      0.0000 
     64 H         -15.5487   21.9901  -23.8847 H         1 23H401      0.0000 
     65 H         -16.1349   21.1596  -22.6385 H         1 23H401      0.0000 
     66 H         -16.1178   14.8155  -20.2541 H         1 23H401      0.0000 
     67 H         -16.2972   16.3519  -19.8143 H         1 23H401      0.0000 
     68 H         -17.2613   15.2215  -19.1988 H         1 23H401      0.0000 
     69 H         -19.4051    8.3334  -25.8798 H         1 23H401      0.0000 
     70 H         -20.4990    8.7873  -24.7919 H         1 23H401      0.0000 
     71 H         -20.7571    9.0631  -26.3551 H         1 23H401      0.0000 
@<TRIPOS>BOND
     1    2    1 2    
     2    3    2 am   
     3   29    2 1    
     4    4    3 1    
     5   19    3 1    
     6    5    4 1    
     7   13    4 1    
     8   39    4 1    
     9    6    5 2    
    10    7    5 am   
    11    8    7 1    
    12   40    7 1    
    13    9    8 1    
    14   10    8 1    
    15   12    8 1    
    16   57    9 1    
    17   58    9 1    
    18   59    9 1    
    19   11   10 1    
    20   41   10 1    
    21   42   10 1    
    22   60   11 1    
    23   61   11 1    
    24   62   11 1    
    25   63   12 1    
    26   64   12 1    
    27   65   12 1    
    28   14   13 2    
    29   17   13 1    
    30   15   14 1    
    31   43   14 1    
    32   16   15 2    
    33   44   15 1    
    34   17   16 1    
    35   45   16 1    
    36   18   17 1    
    37   66   18 1    
    38   67   18 1    
    39   68   18 1    
    40   20   19 ar   
    41   22   19 ar   
    42   21   20 ar   
    43   46   20 1    
    44   24   21 ar   
    45   47   21 1    
    46   23   22 ar   
    47   48   22 1    
    48   24   23 ar   
    49   49   23 1    
    50   25   24 1    
    51   26   25 am   
    52   50   25 1    
    53   27   26 1    
    54   28   26 2    
    55   69   27 1    
    56   70   27 1    
    57   71   27 1    
    58   30   29 1    
    59   51   29 1    
    60   52   29 1    
    61   31   30 1    
    62   34   30 1    
    63   32   31 2    
    64   33   32 1    
    65   34   33 ar   
    66   35   33 ar   
    67   38   34 ar   
    68   36   35 ar   
    69   53   35 1    
    70   37   36 ar   
    71   54   36 1    
    72   38   37 ar   
    73   55   37 1    
    74   56   38 1    
@<TRIPOS>SUBSTRUCTURE
     1 23H401      1 GROUP   
@<TRIPOS>SET

