#    Name: 2Z71_2_CAVITY_N1_6.mol2
#    Modification time : Tue Mar 11 05:03:19 2014

@<TRIPOS>MOLECULE
2Z71_2_CAVITY_N1_6.mol2
  130     0     7     0     0
SMALL
NO_CHARGES


@<TRIPOS>ATOM
      1 CZ         11.5590   80.9144   10.0543 C.ar      5 PHE5        0.0000 
      2 CZ         16.6635   80.0553    6.6696 C.ar      5 PHE5        0.0000 
      3 CZ         15.3051   79.9740    7.3008 C.ar      5 PHE5        0.0000 
      4 CZ         13.9468   79.8928    7.9319 C.ar      5 PHE5        0.0000 
      5 CZ         12.5885   79.8115    8.5631 C.ar      5 PHE5        0.0000 
      6 O          11.2302   79.7303    9.1942 O.2       2 ALA2        0.0000 
      7 CA          9.8718   79.6490    9.8254 C.3       6 GLY6        0.0000 
      8 CZ         17.6930   78.9524    5.1784 C.ar      5 PHE5        0.0000 
      9 CZ         16.3346   78.8712    5.8095 C.ar      5 PHE5        0.0000 
     10 DU         14.9763   78.7899    6.4407 H         7 CUB7        0.0000 
     11 O          13.6180   78.7087    7.0718 O.2       2 ALA2        0.0000 
     12 O           9.5430   78.4649    8.9653 O.2       2 ALA2        0.0000 
     13 CA         18.7225   77.8496    3.6871 C.3       6 GLY6        0.0000 
     14 CA         17.3642   77.7683    4.3183 C.3       6 GLY6        0.0000 
     15 OG         16.0058   77.6871    4.9494 O.2       1 SER1        0.0000 
     16 OG         14.6475   77.6058    5.5806 O.2       1 SER1        0.0000 
     17 O          13.2892   77.5245    6.2118 O.2       2 ALA2        0.0000 
     18 N           7.5271   76.0154    7.8763 N.2       2 ALA2        0.0000 
     19 CZ         16.1788   80.2410    9.2153 C.ar      5 PHE5        0.0000 
     20 CZ         12.1038   79.9972   11.1088 C.ar      5 PHE5        0.0000 
     21 CA         10.7455   79.9160   11.7399 C.3       6 GLY6        0.0000 
     22 CZ         17.2083   79.1381    7.7241 C.ar      5 PHE5        0.0000 
     23 CZ         15.8500   79.0568    8.3552 C.ar      5 PHE5        0.0000 
     24 CZ         14.4916   78.9756    8.9864 C.ar      5 PHE5        0.0000 
     25 CZ         13.1333   78.8943    9.6175 C.ar      5 PHE5        0.0000 
     26 O          11.7750   78.8131   10.2487 O.2       2 ALA2        0.0000 
     27 O          16.8795   77.9540    6.8640 O.2       2 ALA2        0.0000 
     28 NZ         15.5212   77.8727    7.4952 N.2       4 LYS4        0.0000 
     29 O          14.1628   77.7915    8.1263 O.2       2 ALA2        0.0000 
     30 OG         15.1923   76.6886    6.6351 O.2       1 SER1        0.0000 
     31 O          13.8340   76.6073    7.2662 O.2       2 ALA2        0.0000 
     32 CZ         17.0524   80.5079   11.1299 C.ar      5 PHE5        0.0000 
     33 CA         12.9774   80.2641   13.0233 C.3       6 GLY6        0.0000 
     34 N          16.7236   79.3238   10.2698 N.2       2 ALA2        0.0000 
     35 CZ         15.3653   79.2425   10.9009 C.ar      5 PHE5        0.0000 
     36 CA         14.0070   79.1613   11.5321 C.3       6 GLY6        0.0000 
     37 N          12.6486   79.0800   12.1632 N.2       2 ALA2        0.0000 
     38 CA         11.2903   78.9987   12.7944 C.3       6 GLY6        0.0000 
     39 N          16.3948   78.1396    9.4097 N.2       2 ALA2        0.0000 
     40 NZ         15.0365   78.0584   10.0409 N.2       4 LYS4        0.0000 
     41 NZ         13.6781   77.9771   10.6720 N.2       4 LYS4        0.0000 
     42 O          12.3198   77.8959   11.3032 O.2       2 ALA2        0.0000 
     43 NZ         14.7077   76.8743    9.1808 N.2       4 LYS4        0.0000 
     44 CA         13.3493   76.7930    9.8119 C.3       6 GLY6        0.0000 
     45 N          17.5972   79.5907   12.1843 N.2       2 ALA2        0.0000 
     46 OD1        16.2389   79.5094   12.8155 O.3       3 ASP3        0.0000 
     47 N          14.8806   79.4282   13.4466 N.2       2 ALA2        0.0000 
     48 N          15.9101   78.3253   11.9554 N.2       2 ALA2        0.0000 
     49 N          14.5518   78.2441   12.5866 N.2       2 ALA2        0.0000 
     50 N          13.1935   78.1628   13.2177 N.2       2 ALA2        0.0000 
     51 NZ         15.5813   77.1412   11.0953 N.2       4 LYS4        0.0000 
     52 NZ         14.2230   77.0599   11.7265 N.2       4 LYS4        0.0000 
     53 NZ         12.8646   76.9787   12.3576 N.2       4 LYS4        0.0000 
     54 OD1        15.0966   77.3269   13.6410 O.3       3 ASP3        0.0000 
     55 NZ         14.7678   76.1427   12.7809 N.2       4 LYS4        0.0000 
     56 CA          9.9245   83.6660    6.8909 C.3       6 GLY6        0.0000 
     57 CA          8.5662   83.5848    7.5220 C.3       6 GLY6        0.0000 
     58 CZ         17.7456   82.9694    2.2439 C.ar      5 PHE5        0.0000 
     59 CA          8.2374   82.4006    6.6620 C.3       6 GLY6        0.0000 
     60 N          18.7751   81.8665    0.7527 N.2       2 ALA2        0.0000 
     61 CZ         17.4168   81.7853    1.3838 C.ar      5 PHE5        0.0000 
     62 CZ         16.0585   81.7040    2.0150 C.ar      5 PHE5        0.0000 
     63 DU          7.9085   81.2165    5.8019 H         7 CUB7        0.0000 
     64 CA          6.5502   81.1353    6.4330 C.3       6 GLY6        0.0000 
     65 O           8.9381   80.1136    4.3106 O.2       2 ALA2        0.0000 
     66 N           6.2214   79.9511    5.5729 N.2       2 ALA2        0.0000 
     67 NZ         14.0425   79.2545    0.9260 N.2       4 LYS4        0.0000 
     68 O           9.9676   79.0108    2.8194 O.2       2 ALA2        0.0000 
     69 N           5.8926   78.7670    4.7129 N.2       2 ALA2        0.0000 
     70 N          19.6488   82.1334    2.6672 N.2       2 ALA2        0.0000 
     71 CZ         18.2905   82.0522    3.2984 C.ar      5 PHE5        0.0000 
     72 CZ         16.9321   81.9709    3.9295 C.ar      5 PHE5        0.0000 
     73 OG         15.5738   81.8897    4.5607 O.2       1 SER1        0.0000 
     74 OG         12.8572   81.7272    5.8230 O.2       1 SER1        0.0000 
     75 CZ         11.4988   81.6459    6.4541 C.ar      5 PHE5        0.0000 
     76 CA         10.1405   81.5647    7.0853 C.3       6 GLY6        0.0000 
     77 CA          8.7822   81.4834    7.7164 C.3       6 GLY6        0.0000 
     78 N          19.3200   80.9493    1.8071 N.2       2 ALA2        0.0000 
     79 DU         17.9616   80.8681    2.4383 H         7 CUB7        0.0000 
     80 DU         16.6033   80.7868    3.0694 H         7 CUB7        0.0000 
     81 OG         15.2450   80.7056    3.7006 O.2       1 SER1        0.0000 
     82 OG         13.8867   80.6243    4.3317 O.2       1 SER1        0.0000 
     83 OG         12.5283   80.5431    4.9629 O.2       1 SER1        0.0000 
     84 O          11.1700   80.4618    5.5940 O.2       2 ALA2        0.0000 
     85 O           9.8117   80.3806    6.2252 O.2       2 ALA2        0.0000 
     86 DU          8.4534   80.2993    6.8564 H         7 CUB7        0.0000 
     87 CA          7.0950   80.2181    7.4875 C.3       6 GLY6        0.0000 
     88 DU         18.9912   79.7652    0.9471 H         7 CUB7        0.0000 
     89 CA         17.6328   79.6840    1.5782 C.3       6 GLY6        0.0000 
     90 CA         16.2745   79.6027    2.2094 C.3       6 GLY6        0.0000 
     91 DU         14.9162   79.5215    2.8405 H         7 CUB7        0.0000 
     92 DU         13.5579   79.4402    3.4717 H         7 CUB7        0.0000 
     93 DU         12.1995   79.3589    4.1028 H         7 CUB7        0.0000 
     94 O          10.8412   79.2777    4.7340 O.2       2 ALA2        0.0000 
     95 O           9.4829   79.1964    5.3651 O.2       2 ALA2        0.0000 
     96 N           8.1246   79.1152    5.9963 N.2       2 ALA2        0.0000 
     97 N           6.7662   79.0339    6.6274 N.2       2 ALA2        0.0000 
     98 CA         14.5874   78.3373    1.9804 C.3       6 GLY6        0.0000 
     99 NZ         13.2290   78.2561    2.6116 N.2       4 LYS4        0.0000 
    100 NZ         11.8707   78.1748    3.2427 N.2       4 LYS4        0.0000 
    101 N           6.4374   77.8498    5.7673 N.2       2 ALA2        0.0000 
    102 CZ         17.4770   81.0537    4.9840 C.ar      5 PHE5        0.0000 
    103 OG         16.1186   80.9725    5.6151 O.2       1 SER1        0.0000 
    104 CZ         13.4020   80.8100    6.8774 C.ar      5 PHE5        0.0000 
    105 CZ         12.0437   80.7287    7.5086 C.ar      5 PHE5        0.0000 
    106 CA         10.6853   80.6475    8.1398 C.3       6 GLY6        0.0000 
    107 CA          9.3270   80.5662    8.7709 C.3       6 GLY6        0.0000 
    108 CZ         19.8648   80.0321    2.8616 C.ar      5 PHE5        0.0000 
    109 CZ         18.5065   79.9509    3.4928 C.ar      5 PHE5        0.0000 
    110 CZ         17.1481   79.8696    4.1239 C.ar      5 PHE5        0.0000 
    111 DU         15.7898   79.7884    4.7551 H         7 CUB7        0.0000 
    112 OG         14.4315   79.7071    5.3862 O.2       1 SER1        0.0000 
    113 O          13.0732   79.6259    6.0174 O.2       2 ALA2        0.0000 
    114 O          11.7148   79.5446    6.6485 O.2       2 ALA2        0.0000 
    115 O           8.9982   79.3821    7.9108 O.2       2 ALA2        0.0000 
    116 CA          7.6399   79.3009    8.5420 C.3       6 GLY6        0.0000 
    117 CA         19.5360   78.8480    2.0015 C.3       6 GLY6        0.0000 
    118 CA         18.1777   78.7668    2.6327 C.3       6 GLY6        0.0000 
    119 CA         16.8193   78.6855    3.2638 C.3       6 GLY6        0.0000 
    120 DU         15.4610   78.6043    3.8950 H         7 CUB7        0.0000 
    121 DU         14.1027   78.5230    4.5261 H         7 CUB7        0.0000 
    122 O          12.7444   78.4417    5.1573 O.2       2 ALA2        0.0000 
    123 O           8.6694   78.1980    7.0507 O.2       2 ALA2        0.0000 
    124 N           7.3111   78.1167    7.6819 N.2       2 ALA2        0.0000 
    125 CA         19.2072   77.6639    1.1414 C.3       6 GLY6        0.0000 
    126 CA         17.8489   77.5826    1.7726 C.3       6 GLY6        0.0000 
    127 CA         15.1322   77.4201    3.0349 C.3       6 GLY6        0.0000 
    128 OG         13.7739   77.3389    3.6660 O.2       1 SER1        0.0000 
    129 OG         12.4156   77.2576    4.2972 O.2       1 SER1        0.0000 
    130 N           6.9823   76.9326    6.8218 N.2       2 ALA2        0.0000 
@<TRIPOS>BOND
@<TRIPOS>SUBSTRUCTURE
     1 SER1       15 GROUP   
     2 ALA2        6 GROUP   
     3 ASP3       46 GROUP   
     4 LYS4       28 GROUP   
     5 PHE5        1 GROUP   
     6 GLY6        7 GROUP   
     7 CUB7       10 GROUP   
@<TRIPOS>SET

