#    Name: 2z71_PNV_2_INTS_M
#    Modification time : Mon Apr  7 18:36:25 2014

@<TRIPOS>MOLECULE
2z71_PNV_2_INTS_M
   30     0     3     0     0
SMALL
NO_CHARGES


@<TRIPOS>ATOM
      1 CA         17.8610   78.7860    8.9235 C.3       1 GLC5        0.0000 
      2 CA         16.0110   78.0960    9.3770 C.3       3 GLL5        0.0000 
      3 CA         19.7110   79.4760    8.4700 C.3       2 GLP5        0.0000 
      4 CA         13.1625   75.7695    2.6440 C.3       1 GLC5        0.0000 
      5 CA         14.4020   76.9990    2.7700 C.3       3 GLL5        0.0000 
      6 CA         11.9230   74.5400    2.5180 C.3       2 GLP5        0.0000 
      7 CA         15.4860   76.2530    1.8675 C.3       1 GLC5        0.0000 
      8 CA         16.5700   75.5070    0.9650 C.3       2 GLP5        0.0000 
      9 CA         12.4670   76.5490    3.2740 C.3       1 GLC5        0.0000 
     10 CA         13.0110   78.5580    4.0300 C.3       3 GLL5        0.0000 
     11 CA         11.7350   76.7720   10.1355 C.3       1 GLC5        0.0000 
     12 CA         12.9540   78.3690   10.3200 C.3       3 GLL5        0.0000 
     13 CA         11.1040   74.9600    9.6430 C.3       2 GLP5        0.0000 
     14 CA          9.9538   78.5370   11.4090 C.3       1 GLC5        0.0000 
     15 CA         11.7780   78.7990   10.9360 C.3       3 GLL5        0.0000 
     16 CA          8.1690   78.2260   11.1930 C.3       2 GLP5        0.0000 
     17 CA         12.1430   79.7360   14.3415 C.3       1 GLC5        0.0000 
     18 CA         11.6990   78.8970   12.3140 C.3       3 GLL5        0.0000 
     19 CA         12.0400   80.7440   15.9920 C.3       2 GLP5        0.0000 
     20 CA         10.7215   78.2885   13.9910 C.3       1 GLC5        0.0000 
     21 CA         12.7930   78.5590   13.0680 C.3       3 GLL5        0.0000 
     22 CA          9.1970   77.8490   15.2910 C.3       2 GLP5        0.0000 
     23 CA         14.1292   80.3405   12.5753 C.3       1 GLC5        0.0000 
     24 CA         14.8700   82.3380   12.3790 C.3       2 GLP5        0.0000 
     25 CA         14.6913   81.5640    7.0287 C.3       1 GLC5        0.0000 
     26 CA         14.4030   80.1600    6.6680 C.3       3 GLL5        0.0000 
     27 CA         14.8180   82.9830    8.1520 C.3       2 GLP5        0.0000 
     28 CA         15.1875   77.7848    1.3003 C.3       1 GLC5        0.0000 
     29 CA         14.2700   78.4530    3.1480 C.3       3 GLL5        0.0000 
     30 CA         16.0750   76.6590    0.0640 C.3       2 GLP5        0.0000 
@<TRIPOS>BOND
@<TRIPOS>SUBSTRUCTURE
     1 GLC5        1 GROUP        1 X    GLC  0     ROOT GLC X 6
     2 GLP5        3 GROUP        1 Y    GLP  0     ROOT GLP Y 13
     3 GLL5        2 GROUP        1 Z    GLL  0     ROOT GLL Z 20
@<TRIPOS>SET

