#    Name: 2z71_PNV_2_ligand
#    Modification time : Mon Apr  7 18:36:25 2014

@<TRIPOS>MOLECULE
2z71_PNV_2_ligand
   41    43     1     0     0
SMALL
NO_CHARGES


@<TRIPOS>ATOM
      1 C24        12.9540   78.3690   10.3200 C.ar      1 PNV904      0.0000 
      2 C23        11.7780   78.7990   10.9360 C.ar      1 PNV904      0.0000 
      3 C22        11.6990   78.8970   12.3140 C.ar      1 PNV904      0.0000 
      4 C21        12.7930   78.5590   13.0680 C.ar      1 PNV904      0.0000 
      5 C20        13.9840   78.1270   12.4750 C.ar      1 PNV904      0.0000 
      6 C19        14.0940   78.0360   11.0780 C.ar      1 PNV904      0.0000 
      7 O1         15.2840   77.5890   10.5160 O.3       1 PNV904      0.0000 
      8 C2         16.0110   78.0960    9.3770 C.3       1 PNV904      0.0000 
      9 C3         15.1870   78.1940    8.1100 C.2       1 PNV904      0.0000 
     10 O18        14.7020   77.2500    7.5230 O.2       1 PNV904      0.0000 
     11 N4         15.1200   79.4480    7.7220 N.am      1 PNV904      0.0000 
     12 C5         14.4030   80.1600    6.6680 C.3       1 PNV904      0.0000 
     13 C6         13.0750   79.5630    6.3730 C.2       1 PNV904      0.0000 
     14 O17        12.0770   79.3650    7.0690 O.2       1 PNV904      0.0000 
     15 C8         14.7260   80.1300    5.1430 C.3       1 PNV904      0.0000 
     16 N7         13.4600   79.4010    5.1280 N.am      1 PNV904      0.0000 
     17 S11        15.6010   78.9130    4.2230 S.3       1 PNV904      0.0000 
     18 C10        14.2700   78.4530    3.1480 C.3       1 PNV904      0.0000 
     19 C12        14.3300   79.3680    1.9250 C.3       1 PNV904      0.0000 
     20 C15        14.4020   76.9990    2.7700 C.3       1 PNV904      0.0000 
     21 C9         13.0110   78.5580    4.0300 C.3       1 PNV904      0.0000 
     22 C13        11.6560   78.8510    3.4180 C.2       1 PNV904      0.0000 
     23 O14        11.1840   77.9860    2.6520 O.co2     1 PNV904      0.0000 
     24 O16        11.0310   79.8970    3.7380 O.co2     1 PNV904      0.0000 
     25 H          12.9953   78.2916    9.2912 H         1 PNV904      0.0000 
     26 H          10.9614   79.0453   10.3532 H         1 PNV904      0.0000 
     27 H          10.8325   79.2183   12.7590 H         1 PNV904      0.0000 
     28 H          12.7485   78.6212   14.1059 H         1 PNV904      0.0000 
     29 H          14.7873   77.8733   13.0651 H         1 PNV904      0.0000 
     30 H          16.8963   77.4555    9.1593 H         1 PNV904      0.0000 
     31 H          16.4249   79.1075    9.5937 H         1 PNV904      0.0000 
     32 H          15.7508   80.1834    8.3173 H         1 PNV904      0.0000 
     33 H          14.1750   81.2040    6.8850 H         1 PNV904      0.0000 
     34 H          14.6133   80.9526    4.6631 H         1 PNV904      0.0000 
     35 H          12.9462   77.4959    4.5024 H         1 PNV904      0.0000 
     36 H          15.2521   79.4146    1.5409 H         1 PNV904      0.0000 
     37 H          13.7239   79.0523    1.1949 H         1 PNV904      0.0000 
     38 H          14.0577   80.3041    2.1478 H         1 PNV904      0.0000 
     39 H          15.2630   76.8153    2.2957 H         1 PNV904      0.0000 
     40 H          14.3765   76.4028    3.5725 H         1 PNV904      0.0000 
     41 H          13.6641   76.7047    2.1626 H         1 PNV904      0.0000 
@<TRIPOS>BOND
     1    2    1 ar   
     2    6    1 ar   
     3   25    1 1    
     4    3    2 ar   
     5   26    2 1    
     6    4    3 ar   
     7   27    3 1    
     8    5    4 ar   
     9   28    4 1    
    10    6    5 ar   
    11   29    5 1    
    12    7    6 1    
    13    8    7 1    
    14    9    8 1    
    15   30    8 1    
    16   31    8 1    
    17   10    9 2    
    18   11    9 am   
    19   12   11 1    
    20   32   11 1    
    21   13   12 1    
    22   15   12 1    
    23   33   12 1    
    24   14   13 2    
    25   16   13 am   
    26   16   15 1    
    27   17   15 1    
    28   34   15 1    
    29   21   16 1    
    30   18   17 1    
    31   19   18 1    
    32   20   18 1    
    33   21   18 1    
    34   36   19 1    
    35   37   19 1    
    36   38   19 1    
    37   39   20 1    
    38   40   20 1    
    39   41   20 1    
    40   22   21 1    
    41   35   21 1    
    42   23   22 ar   
    43   24   22 ar   
@<TRIPOS>SUBSTRUCTURE
     1 PNV904      1 GROUP   
@<TRIPOS>SET

