#    Name: 1ZUA_1_CAVITY_N1_6.mol2
#    Modification time : Mon Mar 10 23:31:56 2014

@<TRIPOS>MOLECULE
1ZUA_1_CAVITY_N1_6.mol2
   84     0     5     0     0
SMALL
NO_CHARGES


@<TRIPOS>ATOM
      1 OD1       -26.3659   19.1836   16.8493 O.3       2 ASP3        0.0000 
      2 OD1       -25.4472   21.0160   16.3033 O.3       2 ASP3        0.0000 
      3 O         -27.4483   20.6184   15.7224 O.2       1 ALA2        0.0000 
      4 OD1       -26.1357   19.9113   15.5580 O.3       2 ASP3        0.0000 
      5 OD1       -24.8231   19.2042   15.3936 O.3       2 ASP3        0.0000 
      6 CA        -24.5284   22.8485   15.7573 C.3       4 GLY6        0.0000 
      7 CA        -26.5295   22.4508   15.1764 C.3       4 GLY6        0.0000 
      8 CZ        -25.2169   21.7437   15.0120 C.ar      3 PHE5        0.0000 
      9 O         -28.5307   22.0532   14.5955 O.2       1 ALA2        0.0000 
     10 O         -27.2180   21.3461   14.4311 O.2       1 ALA2        0.0000 
     11 CZ        -25.9054   20.6390   14.2667 C.ar      3 PHE5        0.0000 
     12 CA        -24.9223   25.3880   15.3757 C.3       4 GLY6        0.0000 
     13 CZ        -23.6097   24.6809   15.2113 C.ar      3 PHE5        0.0000 
     14 CA        -25.6108   24.2833   14.6304 C.3       4 GLY6        0.0000 
     15 CZ        -24.2982   23.5762   14.4660 C.ar      3 PHE5        0.0000 
     16 CA        -26.2993   23.1785   13.8851 C.3       4 GLY6        0.0000 
     17 CZ        -24.9867   22.4714   13.7207 C.ar      3 PHE5        0.0000 
     18 CZ        -28.3004   22.7809   13.3042 C.ar      3 PHE5        0.0000 
     19 DU        -26.9878   22.0738   13.1398 H         5 CUB7        0.0000 
     20 CZ        -25.6752   21.3666   12.9754 C.ar      3 PHE5        0.0000 
     21 CZ        -27.6763   20.9690   12.3945 C.ar      3 PHE5        0.0000 
     22 CZ        -22.6910   26.5133   14.6653 C.ar      3 PHE5        0.0000 
     23 CZ        -23.3794   25.4086   13.9200 C.ar      3 PHE5        0.0000 
     24 CZ        -22.0668   24.7015   13.7556 C.ar      3 PHE5        0.0000 
     25 CA        -24.0679   24.3038   13.1747 C.3       4 GLY6        0.0000 
     26 CZ        -22.7553   23.5967   13.0103 C.ar      3 PHE5        0.0000 
     27 CA        -26.0690   23.9062   12.5938 C.3       4 GLY6        0.0000 
     28 CZ        -24.7564   23.1991   12.4294 C.ar      3 PHE5        0.0000 
     29 CZ        -28.0701   23.5085   12.0129 C.ar      3 PHE5        0.0000 
     30 CZ        -26.7575   22.8014   11.8485 C.ar      3 PHE5        0.0000 
     31 CZ        -25.4449   22.0943   11.6841 C.ar      3 PHE5        0.0000 
     32 CZ        -27.4460   21.6967   11.1032 C.ar      3 PHE5        0.0000 
     33 CZ        -26.1334   20.9896   10.9388 C.ar      3 PHE5        0.0000 
     34 CZ        -24.8208   20.2825   10.7743 C.ar      3 PHE5        0.0000 
     35 CZ        -23.1492   26.1363   12.6287 C.ar      3 PHE5        0.0000 
     36 CZ        -21.8366   25.4292   12.4643 C.ar      3 PHE5        0.0000 
     37 CA        -23.8377   25.0315   11.8834 C.3       4 GLY6        0.0000 
     38 CZ        -22.5251   24.3244   11.7190 C.ar      3 PHE5        0.0000 
     39 CA        -25.8388   24.6339   11.3025 C.3       4 GLY6        0.0000 
     40 CA        -24.5262   23.9268   11.1381 C.3       4 GLY6        0.0000 
     41 CZ        -23.2135   23.2196   10.9737 C.ar      3 PHE5        0.0000 
     42 CZ        -27.8399   24.2362   10.7216 C.ar      3 PHE5        0.0000 
     43 CZ        -26.5273   23.5291   10.5572 C.ar      3 PHE5        0.0000 
     44 DU        -25.2147   22.8220   10.3928 H         5 CUB7        0.0000 
     45 CZ        -23.9020   22.1149   10.2284 C.ar      3 PHE5        0.0000 
     46 CZ        -25.9031   21.7172    9.6474 C.ar      3 PHE5        0.0000 
     47 CZ        -24.5905   21.0101    9.4830 C.ar      3 PHE5        0.0000 
     48 CZ        -23.2779   20.3030    9.3186 C.ar      3 PHE5        0.0000 
     49 CA        -21.9653   19.5959    9.1542 C.3       4 GLY6        0.0000 
     50 CZ        -26.5916   20.6125    8.9021 C.ar      3 PHE5        0.0000 
     51 O         -25.2790   19.9054    8.7377 O.2       1 ALA2        0.0000 
     52 CZ        -23.9664   19.1983    8.5733 C.ar      3 PHE5        0.0000 
     53 N         -22.6538   18.4912    8.4089 N.2       1 ALA2        0.0000 
     54 O         -25.9675   18.8006    7.9924 O.2       1 ALA2        0.0000 
     55 O         -24.6549   18.0935    7.8280 O.2       1 ALA2        0.0000 
     56 O         -23.6074   25.7592   10.5921 O.2       1 ALA2        0.0000 
     57 CA        -25.6085   25.3615   10.0112 C.3       4 GLY6        0.0000 
     58 O         -24.2959   24.6544    9.8468 O.2       1 ALA2        0.0000 
     59 CZ        -22.9833   23.9473    9.6824 C.ar      3 PHE5        0.0000 
     60 CZ        -27.6096   24.9639    9.4303 C.ar      3 PHE5        0.0000 
     61 CZ        -26.2970   24.2568    9.2659 C.ar      3 PHE5        0.0000 
     62 DU        -24.9844   23.5497    9.1015 H         5 CUB7        0.0000 
     63 CZ        -23.6718   22.8426    8.9370 C.ar      3 PHE5        0.0000 
     64 CZ        -22.3592   22.1355    8.7726 C.ar      3 PHE5        0.0000 
     65 CZ        -26.9855   23.1520    8.5206 C.ar      3 PHE5        0.0000 
     66 CZ        -25.6729   22.4449    8.3561 C.ar      3 PHE5        0.0000 
     67 O         -24.3603   21.7378    8.1917 O.2       1 ALA2        0.0000 
     68 CA        -23.0477   21.0307    8.0273 C.3       4 GLY6        0.0000 
     69 O         -23.7361   19.9259    7.2820 O.2       1 ALA2        0.0000 
     70 N         -22.4235   19.2188    7.1176 N.2       1 ALA2        0.0000 
     71 CZ        -25.3783   26.0892    8.7199 C.ar      3 PHE5        0.0000 
     72 O         -24.0657   25.3821    8.5555 O.2       1 ALA2        0.0000 
     73 O         -22.7530   24.6750    8.3911 O.2       1 ALA2        0.0000 
     74 CA        -26.0668   24.9845    7.9746 C.3       4 GLY6        0.0000 
     75 DU        -24.7541   24.2773    7.8102 H         5 CUB7        0.0000 
     76 DU        -23.4415   23.5702    7.6457 H         5 CUB7        0.0000 
     77 CA        -22.1289   22.8631    7.4813 C.3       4 GLY6        0.0000 
     78 CZ        -25.4426   23.1726    7.0648 C.ar      3 PHE5        0.0000 
     79 O         -24.1300   22.4655    6.9004 O.2       1 ALA2        0.0000 
     80 CA        -22.8174   21.7584    6.7360 C.3       4 GLY6        0.0000 
     81 CZ        -24.5239   25.0050    6.5188 C.ar      3 PHE5        0.0000 
     82 N         -23.2113   24.2979    6.3544 N.2       1 ALA2        0.0000 
     83 CZ        -25.2124   23.9003    5.7735 C.ar      3 PHE5        0.0000 
     84 CZ        -23.8998   23.1932    5.6091 C.ar      3 PHE5        0.0000 
@<TRIPOS>BOND
@<TRIPOS>SUBSTRUCTURE
     1 ALA2        3 GROUP   
     2 ASP3        1 GROUP   
     3 PHE5        8 GROUP   
     4 GLY6        6 GROUP   
     5 CUB7       19 GROUP   
@<TRIPOS>SET

