#    Name: 1zua_TOL_1_INTS_M
#    Modification time : Mon Mar 24 17:52:05 2014

@<TRIPOS>MOLECULE
1zua_TOL_1_INTS_M
   65     0     6     0     0
SMALL
NO_CHARGES


@<TRIPOS>ATOM
      1 CA        -23.7935   22.2485   13.8810 C.3       2 GLC5        0.0000 
      2 CA        -24.9180   23.8560   14.9570 C.3       6 GLL5        0.0000 
      3 CA        -22.6690   20.6410   12.8050 C.3       4 GLP5        0.0000 
      4 CA        -23.4650   21.4600   14.7445 C.3       2 GLC5        0.0000 
      5 CA        -24.6340   22.6530   15.3900 C.3       6 GLL5        0.0000 
      6 CA        -22.2960   20.2670   14.0990 C.3       4 GLP5        0.0000 
      7 CA        -22.4480   24.7140   15.9100 C.3       2 GLC5        0.0000 
      8 CA        -24.4990   24.7310   15.8390 C.3       6 GLL5        0.0000 
      9 CA        -20.3970   24.6970   15.9810 C.3       4 GLP5        0.0000 
     10 CA        -23.9675   26.2285   16.7880 C.3       2 GLC5        0.0000 
     11 CA        -23.4360   27.7260   17.7370 C.3       4 GLP5        0.0000 
     12 CA        -21.4165   27.6970   12.2905 C.3       2 GLC5        0.0000 
     13 CA        -22.0920   26.8310   13.8110 C.3       6 GLL5        0.0000 
     14 CA        -20.7410   28.5630   10.7700 C.3       4 GLP5        0.0000 
     15 CA        -21.2150   28.3595   15.0035 C.3       2 GLC5        0.0000 
     16 CA        -20.3380   29.8880   16.1960 C.3       4 GLP5        0.0000 
     17 CA        -21.2445   25.7640   14.8960 C.3       2 GLC5        0.0000 
     18 CA        -24.0230   27.8240   13.7490 C.3       2 GLC5        0.0000 
     19 CA        -25.9540   28.8170   13.6870 C.3       4 GLP5        0.0000 
     20 CA        -22.7640   27.2785   15.7740 C.3       2 GLC5        0.0000 
     21 CA        -26.2530   22.3165    7.5265 C.3       2 GLC5        0.0000 
     22 CA        -24.7170   22.7990    8.7070 C.3       6 GLL5        0.0000 
     23 CA        -27.7890   21.8340    6.3460 C.3       4 GLP5        0.0000 
     24 CA        -25.1250   21.7235    6.7690 C.3       2 GLC5        0.0000 
     25 CA        -23.4080   21.9010    8.1590 C.3       6 GLL5        0.0000 
     26 CA        -26.8420   21.5460    5.3790 C.3       4 GLP5        0.0000 
     27 CA        -21.6620   21.7605    7.4410 C.3       2 GLC5        0.0000 
     28 CA        -19.9160   21.6200    6.7230 C.3       4 GLP5        0.0000 
     29 CA        -21.7270   22.7770    8.9965 C.3       2 GLC5        0.0000 
     30 CA        -20.0460   23.6530    9.8340 C.3       4 GLP5        0.0000 
     31 CA        -22.8515   20.8835    9.9625 C.3       2 GLC5        0.0000 
     32 CA        -22.2950   19.8660   11.7660 C.3       4 GLP5        0.0000 
     33 CA        -27.4915   23.7605    7.3160 C.3       2 GLC5        0.0000 
     34 CA        -26.3670   24.6430    8.5080 C.3       6 GLL5        0.0000 
     35 CA        -28.6160   22.8780    6.1240 C.3       4 GLP5        0.0000 
     36 CA        -27.9870   23.5960    9.1125 C.3       2 GLC5        0.0000 
     37 CA        -29.6070   22.5490    9.7170 C.3       4 GLP5        0.0000 
     38 CA        -27.8010   25.8015    7.9200 C.3       2 GLC5        0.0000 
     39 CA        -29.2350   26.9600    7.3320 C.3       4 GLP5        0.0000 
     40 CA        -25.8540   22.7940    5.9930 C.3       2 GLC5        0.0000 
     41 CA        -24.8660   24.0420    6.6070 C.3       6 GLL5        0.0000 
     42 CA        -23.5080   23.3365    5.2310 C.3       2 GLC5        0.0000 
     43 CA        -22.1500   22.6310    3.8550 C.3       4 GLP5        0.0000 
     44 CA        -25.2235   25.6945    5.7540 C.3       2 GLC5        0.0000 
     45 CA        -25.5810   27.3470    4.9010 C.3       4 GLP5        0.0000 
     46 N         -22.8015   25.0455    4.2390 N.am      1 SEC2        0.0000 
     47 N         -23.1610   25.2250    5.4930 N.am      5 SEL2        0.0000 
     48 N         -22.4420   24.8660    2.9850 N.am      3 SEP2        0.0000 
     49 N         -21.9280   25.6710    5.7610 N.am      1 SEC2        0.0000 
     50 N         -20.6950   26.1170    6.0290 N.am      3 SEP2        0.0000 
     51 N         -22.6190   26.3580    8.5500 N.am      1 SEC2        0.0000 
     52 N         -23.2530   25.4260    7.7130 N.am      5 SEL2        0.0000 
     53 N         -21.9850   27.2900    9.3870 N.am      3 SEP2        0.0000 
     54 CA        -26.0236   25.7856   14.5682 C.3       2 GLC5        0.0000 
     55 CA        -26.2400   23.9870   15.1230 C.3       6 GLL5        0.0000 
     56 CA        -26.5730   27.4310   13.8760 C.3       4 GLP5        0.0000 
     57 CA        -26.1784   23.8879   16.5153 C.3       2 GLC5        0.0000 
     58 CA        -26.9180   23.7860   17.7160 C.3       4 GLP5        0.0000 
     59 CA        -25.3577   25.6583   12.9685 C.3       2 GLC5        0.0000 
     60 CA        -24.5220   24.0800   13.5540 C.3       6 GLL5        0.0000 
     61 CA        -26.6560   26.7270   12.5570 C.3       4 GLP5        0.0000 
     62 CA        -25.0805   25.8280   11.9655 C.3       2 GLC5        0.0000 
     63 CA        -23.2390   25.3300   11.8640 C.3       6 GLL5        0.0000 
     64 CA        -25.7538   25.0508   12.1947 C.3       2 GLC5        0.0000 
     65 CA        -24.6510   23.4900   11.1480 C.3       6 GLL5        0.0000 
@<TRIPOS>BOND
@<TRIPOS>SUBSTRUCTURE
     1 SEC2       46 GROUP        1 X    SEC  0     ROOT SEC X 2
     2 GLC5        1 GROUP        1 X    GLC  0     **** GLC X 6
     3 SEP2       48 GROUP        1 Y    SEP  0     ROOT SEP Y 9
     4 GLP5        3 GROUP        1 Y    GLP  0     **** GLP Y 13
     5 SEL2       47 GROUP        1 Z    SEL  0     ROOT SEL Z 16
     6 GLL5        2 GROUP        1 Z    GLL  0     **** GLL Z 20
@<TRIPOS>SET

