#    Name: 1zua_TOL_1_ligand
#    Modification time : Mon Mar 24 17:52:05 2014

@<TRIPOS>MOLECULE
1zua_TOL_1_ligand
   37    38     1     0     0
SMALL
NO_CHARGES


@<TRIPOS>ATOM
      1 C1        -24.9180   23.8560   14.9570 C.3       1 TOL1320     0.0000 
      2 F1        -24.6340   22.6530   15.3900 F         1 TOL1320     0.0000 
      3 F2        -24.4990   24.7310   15.8390 F         1 TOL1320     0.0000 
      4 F3        -26.2400   23.9870   15.1230 F         1 TOL1320     0.0000 
      5 C2        -24.5220   24.0800   13.5540 C.ar      1 TOL1320     0.0000 
      6 C3        -23.5970   25.0990   13.2060 C.ar      1 TOL1320     0.0000 
      7 O1        -23.0760   25.8580   14.1790 O.3       1 TOL1320     0.0000 
      8 C4        -22.0920   26.8310   13.8110 C.3       1 TOL1320     0.0000 
      9 C5        -23.2390   25.3300   11.8640 C.ar      1 TOL1320     0.0000 
     10 C6        -23.7710   24.5280   10.8840 C.ar      1 TOL1320     0.0000 
     11 C7        -24.6510   23.4900   11.1480 C.ar      1 TOL1320     0.0000 
     12 C8        -25.1830   22.6190   10.1160 C.ar      1 TOL1320     0.0000 
     13 C9        -26.0490   21.5730   10.4090 C.ar      1 TOL1320     0.0000 
     14 C10       -26.4240   21.3950   11.7500 C.ar      1 TOL1320     0.0000 
     15 C11       -25.9520   22.2150   12.7790 C.ar      1 TOL1320     0.0000 
     16 C12       -25.0520   23.2590   12.5170 C.ar      1 TOL1320     0.0000 
     17 C13       -24.7170   22.7990    8.7070 C.2       1 TOL1320     0.0000 
     18 S1        -23.4080   21.9010    8.1590 S.2       1 TOL1320     0.0000 
     19 N1        -25.3220   23.7160    7.9860 N.am      1 TOL1320     0.0000 
     20 C14       -26.3670   24.6430    8.5080 C.3       1 TOL1320     0.0000 
     21 C15       -24.8660   24.0420    6.6070 C.3       1 TOL1320     0.0000 
     22 C16       -23.6350   24.9860    6.6150 C.2       1 TOL1320     0.0000 
     23 O2        -23.1610   25.2250    5.4930 O.co2     1 TOL1320     0.0000 
     24 O3        -23.2530   25.4260    7.7130 O.co2     1 TOL1320     0.0000 
     25 H         -22.5914   26.0875   11.6385 H         1 TOL1320     0.0000 
     26 H         -23.5003   24.7062    9.8810 H         1 TOL1320     0.0000 
     27 H         -26.3999   20.9591    9.6883 H         1 TOL1320     0.0000 
     28 H         -27.0809   20.6195   11.9854 H         1 TOL1320     0.0000 
     29 H         -26.2693   22.0517   13.7477 H         1 TOL1320     0.0000 
     30 H         -25.6663   24.5353    6.0456 H         1 TOL1320     0.0000 
     31 H         -24.5882   23.1292    6.0697 H         1 TOL1320     0.0000 
     32 H         -21.7627   27.3443   14.6035 H         1 TOL1320     0.0000 
     33 H         -21.2932   26.4080   13.3833 H         1 TOL1320     0.0000 
     34 H         -22.4544   27.4978   13.1598 H         1 TOL1320     0.0000 
     35 H         -26.0200   25.2117    9.2538 H         1 TOL1320     0.0000 
     36 H         -26.7018   25.2627    7.7982 H         1 TOL1320     0.0000 
     37 H         -27.1600   24.1472    8.8621 H         1 TOL1320     0.0000 
@<TRIPOS>BOND
     1    2    1 1    
     2    3    1 1    
     3    4    1 1    
     4    5    1 1    
     5    6    5 ar   
     6   16    5 ar   
     7    7    6 1    
     8    9    6 ar   
     9    8    7 1    
    10   32    8 1    
    11   33    8 1    
    12   34    8 1    
    13   10    9 ar   
    14   25    9 1    
    15   11   10 ar   
    16   26   10 1    
    17   12   11 ar   
    18   16   11 ar   
    19   13   12 ar   
    20   17   12 1    
    21   14   13 ar   
    22   27   13 1    
    23   15   14 ar   
    24   28   14 1    
    25   16   15 ar   
    26   29   15 1    
    27   18   17 2    
    28   19   17 am   
    29   20   19 1    
    30   21   19 1    
    31   35   20 1    
    32   36   20 1    
    33   37   20 1    
    34   22   21 1    
    35   30   21 1    
    36   31   21 1    
    37   23   22 ar   
    38   24   22 ar   
@<TRIPOS>SUBSTRUCTURE
     1 TOL1320     1 GROUP   
@<TRIPOS>SET

