#    Name: 4KXB_1_CAVITY_N1_6.mol2
#    Modification time : Tue Mar 11 12:19:39 2014

@<TRIPOS>MOLECULE
4KXB_1_CAVITY_N1_6.mol2
  146     0     6     0     0
SMALL
NO_CHARGES


@<TRIPOS>ATOM
      1 NZ        -16.1600   44.4173   49.3101 N.2       3 LYS4        0.0000 
      2 N         -16.7650   43.2027   48.6707 N.2       2 ALA2        0.0000 
      3 NZ        -17.3700   41.9881   48.0314 N.2       3 LYS4        0.0000 
      4 N         -16.0180   41.5814   47.5247 N.2       2 ALA2        0.0000 
      5 N         -14.6660   41.1747   47.0180 N.2       2 ALA2        0.0000 
      6 N         -13.3140   40.7679   46.5114 N.2       2 ALA2        0.0000 
      7 NZ        -17.9750   40.7736   47.3920 N.2       3 LYS4        0.0000 
      8 OG        -13.9190   39.5534   45.8720 O.2       1 SER1        0.0000 
      9 CA        -12.5671   39.1466   45.3653 C.3       5 GLY6        0.0000 
     10 NZ        -11.2151   38.7399   44.8587 N.2       3 LYS4        0.0000 
     11 OG        -16.3969   45.1979   48.0514 O.2       1 SER1        0.0000 
     12 OG        -15.0449   44.7912   47.5447 O.2       1 SER1        0.0000 
     13 DU        -18.3539   44.3901   47.9186 H         6 CUB7        0.0000 
     14 DU        -17.0019   43.9833   47.4120 H         6 CUB7        0.0000 
     15 N         -15.6499   43.5766   46.9053 N.2       2 ALA2        0.0000 
     16 N         -14.2979   43.1699   46.3987 N.2       2 ALA2        0.0000 
     17 N         -12.9459   42.7631   45.8920 N.2       2 ALA2        0.0000 
     18 O         -18.9589   43.1755   47.2792 O.2       2 ALA2        0.0000 
     19 CA        -17.6069   42.7688   46.7726 C.3       5 GLY6        0.0000 
     20 CA        -16.2549   42.3620   46.2659 C.3       5 GLY6        0.0000 
     21 CA        -14.9029   41.9553   45.7593 C.3       5 GLY6        0.0000 
     22 CA        -13.5509   41.5486   45.2526 C.3       5 GLY6        0.0000 
     23 CZ        -12.1989   41.1419   44.7460 C.ar      4 PHE5        0.0000 
     24 CZ        -10.8469   40.7351   44.2393 C.ar      4 PHE5        0.0000 
     25 CA        -18.2119   41.5542   46.1332 C.3       5 GLY6        0.0000 
     26 CA        -14.1559   40.3340   44.6132 C.3       5 GLY6        0.0000 
     27 N         -12.8039   39.9273   44.1066 N.2       2 ALA2        0.0000 
     28 OG        -11.4519   39.5206   43.5999 O.2       1 SER1        0.0000 
     29 N         -13.4089   38.7127   43.4672 N.2       2 ALA2        0.0000 
     30 N         -12.0569   38.3060   42.9605 N.2       2 ALA2        0.0000 
     31 O         -18.5907   45.1707   46.6599 O.2       2 ALA2        0.0000 
     32 CA        -17.2388   44.7640   46.1532 C.3       5 GLY6        0.0000 
     33 CA        -15.8868   44.3572   45.6466 C.3       5 GLY6        0.0000 
     34 CA        -14.5348   43.9505   45.1399 C.3       5 GLY6        0.0000 
     35 CZ        -13.1828   43.5438   44.6332 C.ar      4 PHE5        0.0000 
     36 O         -19.1957   43.9561   46.0205 O.2       2 ALA2        0.0000 
     37 CA        -17.8438   43.5494   45.5138 C.3       5 GLY6        0.0000 
     38 CA        -16.4918   43.1427   45.0072 C.3       5 GLY6        0.0000 
     39 CA        -15.1398   42.7360   44.5005 C.3       5 GLY6        0.0000 
     40 CA        -13.7878   42.3292   43.9939 C.3       5 GLY6        0.0000 
     41 CZ        -12.4358   41.9225   43.4872 C.ar      4 PHE5        0.0000 
     42 CA        -18.4488   42.3349   44.8744 C.3       5 GLY6        0.0000 
     43 CA        -14.3928   41.1147   43.3545 C.3       5 GLY6        0.0000 
     44 OG        -13.0408   40.7079   42.8478 O.2       1 SER1        0.0000 
     45 CA        -13.6458   39.4934   42.2084 C.3       5 GLY6        0.0000 
     46 OG        -12.2938   39.0866   41.7018 O.2       1 SER1        0.0000 
     47 OG        -10.9418   38.6799   41.1951 O.2       1 SER1        0.0000 
     48 N         -12.8988   37.8721   41.0624 N.2       2 ALA2        0.0000 
     49 NZ        -11.5468   37.4653   40.5557 N.2       3 LYS4        0.0000 
     50 O         -13.5038   36.6575   40.4230 O.2       2 ALA2        0.0000 
     51 CZ        -11.5212   43.7977   35.5407 C.ar      4 PHE5        0.0000 
     52 CA        -10.1692   43.3910   35.0340 C.3       5 GLY6        0.0000 
     53 DU        -12.1262   42.5831   34.9013 H         6 CUB7        0.0000 
     54 CA        -10.7742   42.1764   34.3946 C.3       5 GLY6        0.0000 
     55 NZ         -9.4222   41.7697   33.8880 N.2       3 LYS4        0.0000 
     56 DU        -12.7312   41.3686   34.2619 H         6 CUB7        0.0000 
     57 DU        -11.3792   40.9618   33.7553 H         6 CUB7        0.0000 
     58 NZ        -10.0272   40.5551   33.2486 N.2       3 LYS4        0.0000 
     59 O         -13.3362   40.1540   33.6225 O.2       2 ALA2        0.0000 
     60 O         -11.9842   39.7473   33.1159 O.2       2 ALA2        0.0000 
     61 NZ        -10.6322   39.3405   32.6092 N.2       3 LYS4        0.0000 
     62 NZ         -9.2802   38.9338   32.1026 N.2       3 LYS4        0.0000 
     63 O         -12.5892   38.5327   32.4765 O.2       2 ALA2        0.0000 
     64 NZ        -11.2372   38.1260   31.9698 N.2       3 LYS4        0.0000 
     65 NZ         -9.8852   37.7192   31.4632 N.2       3 LYS4        0.0000 
     66 NZ        -11.8422   36.9114   31.3304 N.2       3 LYS4        0.0000 
     67 NZ        -10.4902   36.5047   30.8238 N.2       3 LYS4        0.0000 
     68 OG        -11.0111   42.9570   33.1359 O.2       1 SER1        0.0000 
     69 NZ        -11.6161   41.7425   32.4965 N.2       3 LYS4        0.0000 
     70 NZ        -10.2641   41.3357   31.9898 N.2       3 LYS4        0.0000 
     71 DU        -12.2211   40.5279   31.8571 H         6 CUB7        0.0000 
     72 N         -10.8691   40.1212   31.3504 N.2       2 ALA2        0.0000 
     73 OG        -13.2777   41.4886   41.5891 O.2       1 SER1        0.0000 
     74 CA        -15.2347   40.6807   41.4563 C.3       5 GLY6        0.0000 
     75 OG        -13.8827   40.2740   40.9497 O.2       1 SER1        0.0000 
     76 OG        -12.5307   39.8673   40.4430 O.2       1 SER1        0.0000 
     77 OG        -11.1787   39.4605   39.9364 O.2       1 SER1        0.0000 
     78 O         -14.4877   39.0594   40.3103 O.2       2 ALA2        0.0000 
     79 DU        -13.1357   38.6527   39.8036 H         6 CUB7        0.0000 
     80 CZ        -11.7837   38.2460   39.2970 C.ar      4 PHE5        0.0000 
     81 N         -10.4317   37.8393   38.7903 N.2       2 ALA2        0.0000 
     82 CA        -15.0927   37.8449   39.6709 C.3       5 GLY6        0.0000 
     83 CA        -13.7407   37.4382   39.1642 C.3       5 GLY6        0.0000 
     84 NZ        -12.3887   37.0314   38.6576 N.2       3 LYS4        0.0000 
     85 CA        -11.0367   36.6247   38.1509 C.3       5 GLY6        0.0000 
     86 CA        -14.3457   36.2236   38.5249 C.3       5 GLY6        0.0000 
     87 CA        -12.9937   35.8169   38.0182 C.3       5 GLY6        0.0000 
     88 CA        -11.6417   35.4101   37.5115 C.3       5 GLY6        0.0000 
     89 O         -13.5146   42.2692   40.3303 O.2       2 ALA2        0.0000 
     90 O         -15.4715   41.4614   40.1976 O.2       2 ALA2        0.0000 
     91 O         -14.1196   41.0547   39.6909 O.2       2 ALA2        0.0000 
     92 OG        -12.7676   40.6479   39.1842 O.2       1 SER1        0.0000 
     93 O         -16.0765   40.2468   39.5582 O.2       2 ALA2        0.0000 
     94 DU        -14.7246   39.8401   39.0515 H         6 CUB7        0.0000 
     95 DU        -13.3726   39.4334   38.5449 H         6 CUB7        0.0000 
     96 CZ        -12.0206   39.0266   38.0382 C.ar      4 PHE5        0.0000 
     97 CZ        -10.6686   38.6199   37.5315 C.ar      4 PHE5        0.0000 
     98 O         -16.6815   39.0323   38.9188 O.2       2 ALA2        0.0000 
     99 CA        -15.3295   38.6255   38.4121 C.3       5 GLY6        0.0000 
    100 O         -13.9776   38.2188   37.9055 O.2       2 ALA2        0.0000 
    101 O         -12.6256   37.8121   37.3988 O.2       2 ALA2        0.0000 
    102 O         -11.2736   37.4053   36.8922 O.2       2 ALA2        0.0000 
    103 O          -9.9216   36.9986   36.3855 O.2       2 ALA2        0.0000 
    104 O         -13.2306   36.5975   36.7594 O.2       2 ALA2        0.0000 
    105 CA        -11.8786   36.1908   36.2528 C.3       5 GLY6        0.0000 
    106 NZ        -10.5266   35.7840   35.7461 N.2       3 LYS4        0.0000 
    107 O         -13.7514   43.0499   39.0715 O.2       2 ALA2        0.0000 
    108 O         -15.7084   42.2420   38.9388 O.2       2 ALA2        0.0000 
    109 O         -14.3564   41.8353   38.4321 O.2       2 ALA2        0.0000 
    110 CZ        -13.0044   41.4286   37.9255 C.ar      4 PHE5        0.0000 
    111 CZ        -11.6525   41.0218   37.4188 C.ar      4 PHE5        0.0000 
    112 DU        -16.3134   41.0275   38.2994 H         6 CUB7        0.0000 
    113 DU        -14.9614   40.6207   37.7928 H         6 CUB7        0.0000 
    114 DU        -13.6094   40.2140   37.2861 H         6 CUB7        0.0000 
    115 CZ        -12.2575   39.8073   36.7794 C.ar      4 PHE5        0.0000 
    116 CZ        -10.9055   39.4005   36.2728 C.ar      4 PHE5        0.0000 
    117 OG         -9.5535   38.9938   35.7661 O.2       1 SER1        0.0000 
    118 O         -16.9184   39.8129   37.6600 O.2       2 ALA2        0.0000 
    119 O         -15.5664   39.4062   37.1534 O.2       2 ALA2        0.0000 
    120 O         -14.2144   38.9994   36.6467 O.2       2 ALA2        0.0000 
    121 O         -12.8624   38.5927   36.1401 O.2       2 ALA2        0.0000 
    122 O         -11.5105   38.1860   35.6334 O.2       2 ALA2        0.0000 
    123 NZ        -10.1585   37.7792   35.1267 N.2       3 LYS4        0.0000 
    124 O         -12.1155   36.9714   34.9940 O.2       2 ALA2        0.0000 
    125 NZ        -10.7635   36.5647   34.4874 N.2       3 LYS4        0.0000 
    126 O         -12.6363   43.4238   37.3061 O.2       2 ALA2        0.0000 
    127 CZ        -11.2843   43.0170   36.7994 C.ar      4 PHE5        0.0000 
    128 O         -15.9453   43.0227   37.6800 O.2       2 ALA2        0.0000 
    129 O         -14.5933   42.6159   37.1734 O.2       2 ALA2        0.0000 
    130 DU        -13.2413   42.2092   36.6667 H         6 CUB7        0.0000 
    131 CZ        -11.8893   41.8025   36.1601 C.ar      4 PHE5        0.0000 
    132 CZ        -10.5373   41.3958   35.6534 C.ar      4 PHE5        0.0000 
    133 CZ         -9.1854   40.9890   35.1467 C.ar      4 PHE5        0.0000 
    134 DU        -15.1983   41.4014   36.5340 H         6 CUB7        0.0000 
    135 DU        -13.8463   40.9946   36.0273 H         6 CUB7        0.0000 
    136 DU        -12.4943   40.5879   35.5207 H         6 CUB7        0.0000 
    137 DU        -11.1423   40.1812   35.0140 H         6 CUB7        0.0000 
    138 OG         -9.7904   39.7745   34.5074 O.2       1 SER1        0.0000 
    139 OG         -8.4384   39.3677   34.0007 O.2       1 SER1        0.0000 
    140 O         -14.4513   39.7801   35.3879 O.2       2 ALA2        0.0000 
    141 O         -13.0993   39.3734   34.8813 O.2       2 ALA2        0.0000 
    142 O         -11.7473   38.9666   34.3746 O.2       2 ALA2        0.0000 
    143 NZ        -10.3953   38.5599   33.8680 N.2       3 LYS4        0.0000 
    144 NZ        -11.0003   37.3453   33.2286 N.2       3 LYS4        0.0000 
    145 O         -11.6053   36.1308   32.5892 O.2       2 ALA2        0.0000 
    146 CA        -12.2103   34.9162   31.9498 C.3       5 GLY6        0.0000 
@<TRIPOS>BOND
@<TRIPOS>SUBSTRUCTURE
     1 SER1        8 GROUP   
     2 ALA2        2 GROUP   
     3 LYS4        1 GROUP   
     4 PHE5       23 GROUP   
     5 GLY6        9 GROUP   
     6 CUB7       13 GROUP   
@<TRIPOS>SET

