#    Name: 4kxb_BES_1_INTS_M
#    Modification time : Tue Mar 25 09:12:19 2014

@<TRIPOS>MOLECULE
4kxb_BES_1_INTS_M
   68     0    15     0     0
SMALL
NO_CHARGES


@<TRIPOS>ATOM
      1 OD1        -9.7850   39.1265   45.9415 O.co2     3 ASC3        0.0000 
      2 OD1        -9.9300   38.6770   44.7080 O.co2    13 ASL3        0.0000 
      3 OD1        -9.6400   39.5760   47.1750 O.co2     8 ASP3        0.0000 
      4 OD1        -9.5065   37.4595   45.1135 O.co2     3 ASC3        0.0000 
      5 OD1        -9.0830   36.2420   45.5190 O.co2     8 ASP3        0.0000 
      6 OD1        -8.5335   37.9035   45.3740 O.co2     3 ASC3        0.0000 
      7 OD1        -7.1370   37.1300   46.0400 O.co2     8 ASP3        0.0000 
      8 OD1        -8.7505   39.5685   44.0235 O.co2     3 ASC3        0.0000 
      9 OD1        -7.5710   40.4600   43.3390 O.co2     8 ASP3        0.0000 
     10 O          -9.7850   39.1265   45.9415 O.2       1 ALC1        0.0000 
     11 O          -9.9300   38.6770   44.7080 O.2      11 ALL1        0.0000 
     12 O          -9.6400   39.5760   47.1750 O.2       6 ALP1        0.0000 
     13 O          -9.5065   37.4595   45.1135 O.2       1 ALC1        0.0000 
     14 O          -9.0830   36.2420   45.5190 O.2       6 ALP1        0.0000 
     15 O          -8.7505   39.5685   44.0235 O.2       1 ALC1        0.0000 
     16 O          -7.5710   40.4600   43.3390 O.2       6 ALP1        0.0000 
     17 CA        -14.5435   39.0225   44.0240 C.3       5 GLC5        0.0000 
     18 CA        -12.3350   38.9540   44.2950 C.3      15 GLL5        0.0000 
     19 CA        -16.7520   39.0910   43.7530 C.3      10 GLP5        0.0000 
     20 CA        -12.8880   43.5465   47.6580 C.3       5 GLC5        0.0000 
     21 CA        -13.0540   42.3650   45.8120 C.3      15 GLL5        0.0000 
     22 CA        -12.7220   44.7280   49.5040 C.3      10 GLP5        0.0000 
     23 Zn         -8.7470   37.5870   42.0280 Zn        4 ZIC7        0.0000 
     24 Zn         -9.5030   37.2150   42.7190 Zn       14 ZIL7        0.0000 
     25 Zn         -7.9910   37.9590   41.3370 Zn        9 ZIP7        0.0000 
     26 N          -9.6690   35.6430   42.7400 N.am      2 SEC2        0.0000 
     27 N          -9.5030   37.2150   42.7190 N.am     12 SEL2        0.0000 
     28 N          -9.8350   34.0710   42.7610 N.am      7 SEP2        0.0000 
     29 O          -9.2930   36.7285   44.1190 O.2       1 ALC1        0.0000 
     30 O          -9.5030   37.2150   42.7190 O.2      11 ALL1        0.0000 
     31 O         -12.9240   36.8950   42.1035 O.2       1 ALC1        0.0000 
     32 O         -12.3320   37.6560   40.7860 O.2      11 ALL1        0.0000 
     33 O         -13.5160   36.1340   43.4210 O.2       6 ALP1        0.0000 
     34 CA        -12.9895   34.9405   38.3365 C.3       5 GLC5        0.0000 
     35 CA        -12.7630   37.1410   38.4390 C.3      15 GLL5        0.0000 
     36 CA        -13.2160   32.7400   38.2340 C.3      10 GLP5        0.0000 
     37 CA         -9.8190   36.5130   38.5285 C.3       5 GLC5        0.0000 
     38 CA        -11.4090   37.2180   37.7350 C.3      15 GLL5        0.0000 
     39 CA         -8.2290   35.8080   39.3220 C.3      10 GLP5        0.0000 
     40 CA        -12.5055   34.7065   36.2995 C.3       5 GLC5        0.0000 
     41 CA        -11.2700   36.0930   36.7200 C.3      15 GLL5        0.0000 
     42 CA        -13.7410   33.3200   35.8790 C.3      10 GLP5        0.0000 
     43 CA         -9.6550   35.7130   37.3945 C.3       5 GLC5        0.0000 
     44 CA         -8.0400   35.3330   38.0690 C.3      10 GLP5        0.0000 
     45 CA        -10.1760   39.7805   38.0035 C.3       5 GLC5        0.0000 
     46 CA        -11.1810   38.5580   37.0450 C.3      15 GLL5        0.0000 
     47 CA         -9.1710   41.0030   38.9620 C.3      10 GLP5        0.0000 
     48 N         -16.0275   38.0000   41.1240 N.am      2 SEC2        0.0000 
     49 N         -14.8390   38.4160   40.8730 N.am     12 SEL2        0.0000 
     50 N         -17.2160   37.5840   41.3750 N.am      7 SEP2        0.0000 
     51 N         -15.2080   36.9175   41.3930 N.am      2 SEC2        0.0000 
     52 N         -15.5770   35.4190   41.9130 N.am      7 SEP2        0.0000 
     53 CA        -11.5780   37.9183   45.7040 C.3       5 GLC5        0.0000 
     54 CA        -11.5190   36.9250   47.4180 C.3      10 GLP5        0.0000 
     55 CA        -14.8625   40.5743   44.1895 C.3       5 GLC5        0.0000 
     56 CA        -12.7730   40.3920   44.4410 C.3      15 GLL5        0.0000 
     57 CA        -16.6890   40.4140   44.4820 C.3      10 GLP5        0.0000 
     58 CA        -12.0637   41.0782   47.4800 C.3       5 GLC5        0.0000 
     59 CA        -12.6550   41.0360   45.6700 C.3      15 GLL5        0.0000 
     60 CA        -11.2730   40.4560   49.2190 C.3      10 GLP5        0.0000 
     61 CA        -14.7718   41.0572   45.1115 C.3       5 GLC5        0.0000 
     62 CA        -15.1653   41.5715   44.2960 C.3       5 GLC5        0.0000 
     63 CA        -13.5820   43.0540   44.7230 C.3      15 GLL5        0.0000 
     64 CA        -12.4582   44.1035   43.4445 C.3       5 GLC5        0.0000 
     65 CA        -13.7010   42.4040   43.4970 C.3      15 GLL5        0.0000 
     66 CA        -11.2750   45.4780   42.7790 C.3      10 GLP5        0.0000 
     67 CA        -14.5147   44.3055   43.6675 C.3       5 GLC5        0.0000 
     68 CA        -15.3880   45.8820   43.2250 C.3      10 GLP5        0.0000 
@<TRIPOS>BOND
@<TRIPOS>SUBSTRUCTURE
     1 ALC1       10 GROUP        1 X    ALC  0     ROOT ALC X 1
     2 SEC2       26 GROUP        1 X    SEC  0     **** SEC X 2
     3 ASC3        1 GROUP        1 X    ASC  0     **** ASC X 3
     4 ZIC7       23 GROUP        1 X    ZIC  0     **** ZIC X 5
     5 GLC5       17 GROUP        1 X    GLC  0     **** GLC X 6
     6 ALP1       12 GROUP        1 Y    ALP  0     ROOT ALP Y 8
     7 SEP2       28 GROUP        1 Y    SEP  0     **** SEP Y 9
     8 ASP3        3 GROUP        1 Y    ASP  0     **** ASP Y 10
     9 ZIP7       25 GROUP        1 Y    ZIP  0     **** ZIP Y 12
    10 GLP5       19 GROUP        1 Y    GLP  0     **** GLP Y 13
    11 ALL1       11 GROUP        1 Z    ALL  0     ROOT ALL Z 15
    12 SEL2       27 GROUP        1 Z    SEL  0     **** SEL Z 16
    13 ASL3        2 GROUP        1 Z    ASL  0     **** ASL Z 17
    14 ZIL7       24 GROUP        1 Z    ZIL  0     **** ZIL Z 19
    15 GLL5       18 GROUP        1 Z    GLL  0     **** GLL Z 20
@<TRIPOS>SET

