#    Name: 4kxb_BES_1_ligand
#    Modification time : Tue Mar 25 09:12:19 2014

@<TRIPOS>MOLECULE
4kxb_BES_1_ligand
   46    46     1     0     0
SMALL
NO_CHARGES


@<TRIPOS>ATOM
      1 N2         -9.9300   38.6770   44.7080 N.4       1 BES1017     0.0000 
      2 C1        -10.9390   38.8690   43.6850 C.3       1 BES1017     0.0000 
      3 C6        -12.3350   38.9540   44.2950 C.3       1 BES1017     0.0000 
      4 C7        -12.7730   40.3920   44.4410 C.ar      1 BES1017     0.0000 
      5 C8        -13.2990   41.0770   43.3530 C.ar      1 BES1017     0.0000 
      6 C12       -12.6550   41.0360   45.6700 C.ar      1 BES1017     0.0000 
      7 C9        -13.7010   42.4040   43.4970 C.ar      1 BES1017     0.0000 
      8 C11       -13.0540   42.3650   45.8120 C.ar      1 BES1017     0.0000 
      9 C10       -13.5820   43.0540   44.7230 C.ar      1 BES1017     0.0000 
     10 C2        -10.8520   37.7070   42.7110 C.3       1 BES1017     0.0000 
     11 O2         -9.5030   37.2150   42.7190 O.3       1 BES1017     0.0000 
     12 C3        -11.2530   38.1880   41.3460 C.2       1 BES1017     0.0000 
     13 O3        -10.6060   39.0440   40.7930 O.2       1 BES1017     0.0000 
     14 N1        -12.3320   37.6560   40.7860 N.am      1 BES1017     0.0000 
     15 C4        -12.9010   38.1710   39.5570 C.3       1 BES1017     0.0000 
     16 C13       -12.7630   37.1410   38.4390 C.3       1 BES1017     0.0000 
     17 C14       -11.4090   37.2180   37.7350 C.3       1 BES1017     0.0000 
     18 C15       -11.2700   36.0930   36.7200 C.3       1 BES1017     0.0000 
     19 C16       -11.1810   38.5580   37.0450 C.3       1 BES1017     0.0000 
     20 C5        -14.3300   38.5840   39.7460 C.2       1 BES1017     0.0000 
     21 O1        -14.8390   38.4160   40.8730 O.co2     1 BES1017     0.0000 
     22 O4        -14.9570   39.0870   38.7850 O.co2     1 BES1017     0.0000 
     23 H         -10.7475   39.7806   43.1349 H         1 BES1017     0.0000 
     24 H         -12.3252   38.4723   45.2742 H         1 BES1017     0.0000 
     25 H         -13.0371   38.4202   43.6523 H         1 BES1017     0.0000 
     26 H         -13.3924   40.6089   42.4438 H         1 BES1017     0.0000 
     27 H         -12.2708   40.5286   46.4800 H         1 BES1017     0.0000 
     28 H         -14.0910   42.9098   42.6860 H         1 BES1017     0.0000 
     29 H         -12.9580   42.8348   46.7205 H         1 BES1017     0.0000 
     30 H         -13.8794   44.0276   44.8225 H         1 BES1017     0.0000 
     31 H         -11.5444   36.9507   43.0376 H         1 BES1017     0.0000 
     32 H         -12.8268   36.8348   41.2067 H         1 BES1017     0.0000 
     33 H         -12.3310   39.0610   39.2410 H         1 BES1017     0.0000 
     34 H         -13.5590   37.3017   37.7024 H         1 BES1017     0.0000 
     35 H         -12.8916   36.1363   38.8585 H         1 BES1017     0.0000 
     36 H         -10.6248   37.0849   38.4853 H         1 BES1017     0.0000 
     37 H          -9.7650   37.7075   44.8897 H         1 BES1017     0.0000 
     38 H          -9.0531   39.0792   44.4449 H         1 BES1017     0.0000 
     39 H         -10.1963   39.0966   45.5758 H         1 BES1017     0.0000 
     40 H         -10.3884   36.1245   36.2491 H         1 BES1017     0.0000 
     41 H         -11.3401   35.1933   37.1508 H         1 BES1017     0.0000 
     42 H         -11.9797   36.1374   36.0169 H         1 BES1017     0.0000 
     43 H         -10.2907   38.5953   36.5912 H         1 BES1017     0.0000 
     44 H         -11.8737   38.7388   36.3468 H         1 BES1017     0.0000 
     45 H         -11.2120   39.3193   37.6927 H         1 BES1017     0.0000 
     46 H          -9.1733   37.3794   43.6487 H         1 BES1017     0.0000 
@<TRIPOS>BOND
     1    2    1 1    
     2   37    1 1    
     3   38    1 1    
     4   39    1 1    
     5    3    2 1    
     6   10    2 1    
     7   23    2 1    
     8    4    3 1    
     9   24    3 1    
    10   25    3 1    
    11    5    4 ar   
    12    6    4 ar   
    13    7    5 ar   
    14   26    5 1    
    15    8    6 ar   
    16   27    6 1    
    17    9    7 ar   
    18   28    7 1    
    19    9    8 ar   
    20   29    8 1    
    21   30    9 1    
    22   11   10 1    
    23   12   10 1    
    24   31   10 1    
    25   46   11 1    
    26   13   12 2    
    27   14   12 am   
    28   15   14 1    
    29   32   14 1    
    30   16   15 1    
    31   20   15 1    
    32   33   15 1    
    33   17   16 1    
    34   34   16 1    
    35   35   16 1    
    36   18   17 1    
    37   19   17 1    
    38   36   17 1    
    39   40   18 1    
    40   41   18 1    
    41   42   18 1    
    42   43   19 1    
    43   44   19 1    
    44   45   19 1    
    45   21   20 ar   
    46   22   20 ar   
@<TRIPOS>SUBSTRUCTURE
     1 BES1017     1 GROUP   
@<TRIPOS>SET

