#    Name: 1pk8_ATP_3_INTS_M
#    Modification time : Mon Mar 24 21:46:45 2014

@<TRIPOS>MOLECULE
1pk8_ATP_3_INTS_M
   63     0    12     0     0
SMALL
NO_CHARGES


@<TRIPOS>ATOM
      1 N          21.1975   61.3350   49.2535 N.am      2 SEC2        0.0000 
      2 N          21.0170   62.2910   50.2470 N.am     10 SEL2        0.0000 
      3 N          21.3780   60.3790   48.2600 N.am      6 SEP2        0.0000 
      4 NZ         18.3415   59.7725   52.1970 N.4       3 LYC4        0.0000 
      5 NZ         18.1300   61.2380   51.7180 N.4      11 LYL4        0.0000 
      6 NZ         18.5530   58.3070   52.6760 N.4       7 LYP4        0.0000 
      7 N          18.3415   59.7725   52.1970 N.am      2 SEC2        0.0000 
      8 N          18.1300   61.2380   51.7180 N.am     10 SEL2        0.0000 
      9 N          18.5530   58.3070   52.6760 N.am      6 SEP2        0.0000 
     10 N          17.6690   62.0110   53.0085 N.am      2 SEC2        0.0000 
     11 N          17.2080   62.7840   54.2990 N.am      6 SEP2        0.0000 
     12 NZ         18.5595   59.3205   51.0170 N.4       3 LYC4        0.0000 
     13 NZ         18.5660   60.3340   49.3580 N.4      11 LYL4        0.0000 
     14 NZ         17.9965   58.9635   49.5050 N.4       3 LYC4        0.0000 
     15 NZ         17.4270   57.5930   49.6520 N.4       7 LYP4        0.0000 
     16 N          18.7630   60.4150   48.0605 N.am      2 SEC2        0.0000 
     17 N          18.5660   60.3340   49.3580 N.am     10 SEL2        0.0000 
     18 N          18.9600   60.4960   46.7630 N.am      6 SEP2        0.0000 
     19 N          17.9965   58.9635   49.5050 N.am      2 SEC2        0.0000 
     20 N          17.4270   57.5930   49.6520 N.am      6 SEP2        0.0000 
     21 NZ         13.3225   60.7095   51.9015 N.4       3 LYC4        0.0000 
     22 NZ         14.6480   61.1100   51.3940 N.4      11 LYL4        0.0000 
     23 NZ         11.9970   60.3090   52.4090 N.4       7 LYP4        0.0000 
     24 N          13.3225   60.7095   51.9015 N.am      2 SEC2        0.0000 
     25 N          14.6480   61.1100   51.3940 N.am     10 SEL2        0.0000 
     26 N          11.9970   60.3090   52.4090 N.am      6 SEP2        0.0000 
     27 CA         13.2835   65.0360   46.1215 C.3       4 GLC5        0.0000 
     28 CA         13.7800   64.6640   48.1460 C.3      12 GLL5        0.0000 
     29 CA         12.7870   65.4080   44.0970 C.3       8 GLP5        0.0000 
     30 CA         11.2805   66.9535   50.5835 C.3       4 GLC5        0.0000 
     31 CA         11.9800   66.0380   48.8340 C.3      12 GLL5        0.0000 
     32 CA         10.5810   67.8690   52.3330 C.3       8 GLP5        0.0000 
     33 O          11.1865   66.6830   46.4885 O.2       1 ALC1        0.0000 
     34 O          12.0210   67.1280   47.9330 O.2       9 ALL1        0.0000 
     35 O          10.3520   66.2380   45.0440 O.2       5 ALP1        0.0000 
     36 CA         10.8045   63.5020   47.1285 C.3       4 GLC5        0.0000 
     37 CA         11.4370   64.7780   48.1560 C.3      12 GLL5        0.0000 
     38 CA         10.1720   62.2260   46.1010 C.3       8 GLP5        0.0000 
     39 CA         12.1120   65.0930   46.1265 C.3       4 GLC5        0.0000 
     40 CA          5.7270   62.5395   50.0110 C.3       4 GLC5        0.0000 
     41 CA          7.6680   62.9330   50.6160 C.3      12 GLL5        0.0000 
     42 CA          3.7860   62.1460   49.4060 C.3       8 GLP5        0.0000 
     43 CA          6.1975   64.0930   51.7335 C.3       4 GLC5        0.0000 
     44 CA          4.7270   65.2530   52.8510 C.3       8 GLP5        0.0000 
     45 O           8.2070   61.3520   52.4040 O.2       1 ALC1        0.0000 
     46 O           7.2420   62.0840   51.5510 O.2       9 ALL1        0.0000 
     47 O           9.1720   60.6200   53.2570 O.2       5 ALP1        0.0000 
     48 O           5.8770   61.8580   51.7680 O.2       1 ALC1        0.0000 
     49 O           4.5120   61.6320   51.9850 O.2       5 ALP1        0.0000 
     50 N           5.4585   64.0785   50.0760 N.am      2 SEC2        0.0000 
     51 N           6.7630   63.7230   49.9980 N.am     10 SEL2        0.0000 
     52 N           4.1540   64.4340   50.1540 N.am      6 SEP2        0.0000 
     53 CA          7.2485   62.4755   48.7005 C.3       4 GLC5        0.0000 
     54 CA          7.1900   64.5780   49.0620 C.3      12 GLL5        0.0000 
     55 CA          7.3070   60.3730   48.3390 C.3       8 GLP5        0.0000 
     56 CA          5.4880   63.3620   49.2340 C.3       4 GLC5        0.0000 
     57 CA          5.4670   65.1690   49.8270 C.3       4 GLC5        0.0000 
     58 CA          3.7440   65.7600   50.5920 C.3       8 GLP5        0.0000 
     59 CA          7.9800   65.3885   50.5270 C.3       4 GLC5        0.0000 
     60 CA          8.7700   66.1990   51.9920 C.3       8 GLP5        0.0000 
     61 CA          8.0636   61.9339   49.0886 C.3       4 GLC5        0.0000 
     62 CA          9.0130   63.0600   50.2330 C.3      12 GLL5        0.0000 
     63 CA          8.7951   64.8469   50.9151 C.3       4 GLC5        0.0000 
@<TRIPOS>BOND
@<TRIPOS>SUBSTRUCTURE
     1 ALC1       33 GROUP        1 X    ALC  0     ROOT ALC X 1
     2 SEC2        1 GROUP        1 X    SEC  0     **** SEC X 2
     3 LYC4        4 GROUP        1 X    LYC  0     **** LYC X 4
     4 GLC5       27 GROUP        1 X    GLC  0     **** GLC X 6
     5 ALP1       35 GROUP        1 Y    ALP  0     ROOT ALP Y 8
     6 SEP2        3 GROUP        1 Y    SEP  0     **** SEP Y 9
     7 LYP4        6 GROUP        1 Y    LYP  0     **** LYP Y 11
     8 GLP5       29 GROUP        1 Y    GLP  0     **** GLP Y 13
     9 ALL1       34 GROUP        1 Z    ALL  0     ROOT ALL Z 15
    10 SEL2        2 GROUP        1 Z    SEL  0     **** SEL Z 16
    11 LYL4        5 GROUP        1 Z    LYL  0     **** LYL Z 18
    12 GLL5       28 GROUP        1 Z    GLL  0     **** GLL Z 20
@<TRIPOS>SET

