#    Name: 1pk8_ATP_3_ligand
#    Modification time : Mon Mar 24 21:46:45 2014

@<TRIPOS>MOLECULE
1pk8_ATP_3_ligand
   43    45     1     0     0
SMALL
NO_CHARGES


@<TRIPOS>ATOM
      1 PG         20.0910   63.4180   49.9580 P.3       1 ATP802      0.0000 
      2 O1G        20.2940   64.2160   48.7200 O.co2     1 ATP802      0.0000 
      3 O2G        21.0170   62.2910   50.2470 O.co2     1 ATP802      0.0000 
      4 O3G        20.1450   64.1070   51.2700 O.co2     1 ATP802      0.0000 
      5 PB         18.0250   61.3910   50.2430 P.3       1 ATP802      0.0000 
      6 O1B        18.1300   61.2380   51.7180 O.co2     1 ATP802      0.0000 
      7 O2B        18.5660   60.3340   49.3580 O.co2     1 ATP802      0.0000 
      8 O3B        18.6250   62.8060   49.8100 O.3       1 ATP802      0.0000 
      9 PA         15.2910   62.2540   50.6960 P.3       1 ATP802      0.0000 
     10 O1A        14.6480   61.1100   51.3940 O.co2     1 ATP802      0.0000 
     11 O2A        15.7300   63.4430   51.4760 O.co2     1 ATP802      0.0000 
     12 O3A        16.5120   61.6860   49.8360 O.3       1 ATP802      0.0000 
     13 O5'        14.3440   62.7290   49.4990 O.3       1 ATP802      0.0000 
     14 C5'        14.8200   63.6130   48.4740 C.3       1 ATP802      0.0000 
     15 C4'        13.7800   64.6640   48.1460 C.3       1 ATP802      0.0000 
     16 O4'        12.5500   64.0350   47.6920 O.3       1 ATP802      0.0000 
     17 C3'        13.3560   65.5710   49.2910 C.3       1 ATP802      0.0000 
     18 O3'        14.2580   66.6630   49.4250 O.3       1 ATP802      0.0000 
     19 C2'        11.9800   66.0380   48.8340 C.3       1 ATP802      0.0000 
     20 O2'        12.0210   67.1280   47.9330 O.3       1 ATP802      0.0000 
     21 C1'        11.4370   64.7780   48.1560 C.3       1 ATP802      0.0000 
     22 N9         10.6610   63.9380   49.0690 N.pl3     1 ATP802      0.0000 
     23 C8         11.1150   62.9640   49.9300 C.2       1 ATP802      0.0000 
     24 N7         10.1690   62.4140   50.6510 N.2       1 ATP802      0.0000 
     25 C5          9.0130   63.0600   50.2330 C.ar      1 ATP802      0.0000 
     26 C6          7.6680   62.9330   50.6160 C.ar      1 ATP802      0.0000 
     27 N6          7.2420   62.0840   51.5510 N.pl3     1 ATP802      0.0000 
     28 N1          6.7630   63.7230   49.9980 N.ar      1 ATP802      0.0000 
     29 C2          7.1900   64.5780   49.0620 C.ar      1 ATP802      0.0000 
     30 N3          8.4240   64.7920   48.6190 N.ar      1 ATP802      0.0000 
     31 C4          9.3000   63.9930   49.2520 C.ar      1 ATP802      0.0000 
     32 H          15.0538   63.0635   47.5493 H         1 ATP802      0.0000 
     33 H          15.7404   64.1292   48.7873 H         1 ATP802      0.0000 
     34 H          14.1525   65.3013   47.3398 H         1 ATP802      0.0000 
     35 H          13.2420   64.9847   50.1570 H         1 ATP802      0.0000 
     36 H          11.3856   66.2059   49.7043 H         1 ATP802      0.0000 
     37 H          10.8227   65.0914   47.3239 H         1 ATP802      0.0000 
     38 H          12.0873   62.7228   49.9752 H         1 ATP802      0.0000 
     39 H           6.2526   62.0432   51.6905 H         1 ATP802      0.0000 
     40 H           7.9501   61.5643   52.0289 H         1 ATP802      0.0000 
     41 H           6.3968   65.1960   48.5895 H         1 ATP802      0.0000 
     42 H          13.8986   67.3715   48.8176 H         1 ATP802      0.0000 
     43 H          11.5169   66.8168   47.1274 H         1 ATP802      0.0000 
@<TRIPOS>BOND
     1    2    1 ar   
     2    3    1 ar   
     3    4    1 ar   
     4    8    1 1    
     5    6    5 ar   
     6    7    5 ar   
     7    8    5 1    
     8   12    5 1    
     9   10    9 ar   
    10   11    9 ar   
    11   12    9 1    
    12   13    9 1    
    13   14   13 1    
    14   15   14 1    
    15   32   14 1    
    16   33   14 1    
    17   16   15 1    
    18   17   15 1    
    19   34   15 1    
    20   21   16 1    
    21   18   17 1    
    22   19   17 1    
    23   35   17 1    
    24   42   18 1    
    25   20   19 1    
    26   21   19 1    
    27   36   19 1    
    28   43   20 1    
    29   22   21 1    
    30   37   21 1    
    31   23   22 1    
    32   31   22 1    
    33   24   23 2    
    34   38   23 1    
    35   25   24 1    
    36   26   25 ar   
    37   31   25 ar   
    38   27   26 1    
    39   28   26 ar   
    40   39   27 1    
    41   40   27 1    
    42   29   28 ar   
    43   30   29 ar   
    44   41   29 1    
    45   31   30 ar   
@<TRIPOS>SUBSTRUCTURE
     1 ATP802      1 GROUP   
@<TRIPOS>SET

