#    Name: 3drr_R8E_1_INTS_M
#    Modification time : Tue Mar 25 00:01:06 2014

@<TRIPOS>MOLECULE
3drr_R8E_1_INTS_M
   79     0     9     0     0
SMALL
NO_CHARGES


@<TRIPOS>ATOM
      1 CA         13.5530   13.9420   16.1965 C.3       3 GLC5        0.0000 
      2 CA         13.0100   12.0850   15.4700 C.3       9 GLL5        0.0000 
      3 CA         14.0960   15.7990   16.9230 C.3       6 GLP5        0.0000 
      4 CA         13.5240   11.9900   17.3870 C.3       3 GLC5        0.0000 
      5 CA         14.0380   11.8950   19.3040 C.3       6 GLP5        0.0000 
      6 CA         14.3605   10.6210   15.5580 C.3       3 GLC5        0.0000 
      7 CA         15.7110    9.1570   15.6460 C.3       6 GLP5        0.0000 
      8 CA         13.2860   10.4915   14.0210 C.3       3 GLC5        0.0000 
      9 CA         13.5620    8.8980   12.5720 C.3       6 GLP5        0.0000 
     10 CA         10.3200    9.9945   18.3040 C.3       3 GLC5        0.0000 
     11 CA         10.5220   11.6790   19.6610 C.3       9 GLL5        0.0000 
     12 CA         10.1180    8.3100   16.9470 C.3       6 GLP5        0.0000 
     13 CA         11.5415   11.3280   22.3475 C.3       3 GLC5        0.0000 
     14 CA          9.9950   11.4250   21.7820 C.3       9 GLL5        0.0000 
     15 CA         13.0880   11.2310   22.9130 C.3       6 GLP5        0.0000 
     16 CA          8.4390   10.1710   22.0380 C.3       3 GLC5        0.0000 
     17 CA          6.8830    8.9170   22.2940 C.3       6 GLP5        0.0000 
     18 CA         12.4560   14.8060   17.8730 C.3       3 GLC5        0.0000 
     19 CA         10.8160   13.8130   18.8230 C.3       9 GLL5        0.0000 
     20 CA         10.9145   17.9995   19.8675 C.3       3 GLC5        0.0000 
     21 CA         10.5630   16.1340   19.9710 C.3       9 GLL5        0.0000 
     22 CA         11.2660   19.8650   19.7640 C.3       6 GLP5        0.0000 
     23 CA          9.3935   16.0155   18.4485 C.3       3 GLC5        0.0000 
     24 CA          8.2240   15.8970   16.9260 C.3       6 GLP5        0.0000 
     25 CA         10.0825   16.9685   21.7935 C.3       3 GLC5        0.0000 
     26 CA          9.6020   17.8030   23.6160 C.3       6 GLP5        0.0000 
     27 CA         12.8460   13.1880   13.4695 C.3       3 GLC5        0.0000 
     28 CA         10.9100   12.8050   13.7610 C.3       9 GLL5        0.0000 
     29 CA         14.7820   13.5710   13.1780 C.3       6 GLP5        0.0000 
     30 CA          8.6170   14.9415   14.1355 C.3       3 GLC5        0.0000 
     31 CA          9.5590   13.0700   13.5820 C.3       9 GLL5        0.0000 
     32 CA          7.6750   16.8130   14.6890 C.3       6 GLP5        0.0000 
     33 CA          7.1125   14.8370   14.0540 C.3       3 GLC5        0.0000 
     34 CA          6.5500   12.8610   13.4190 C.3       9 GLL5        0.0000 
     35 CA          6.3875   13.0370   11.5750 C.3       3 GLC5        0.0000 
     36 CA          6.2250   13.2130    9.7310 C.3       6 GLP5        0.0000 
     37 CA          4.8120   13.2880   13.1905 C.3       3 GLC5        0.0000 
     38 CA          3.0740   13.7150   12.9620 C.3       6 GLP5        0.0000 
     39 N           7.2625   10.9060   11.1690 N.am      2 SEC2        0.0000 
     40 N           6.8270   10.4970   12.4500 N.am      8 SEL2        0.0000 
     41 N           7.6980   11.3150    9.8880 N.am      5 SEP2        0.0000 
     42 O           6.9780    8.8635   11.4790 O.2       1 ALC1        0.0000 
     43 O           6.6640    9.1960   12.9070 O.2       7 ALL1        0.0000 
     44 O           7.2920    8.5310   10.0510 O.2       4 ALP1        0.0000 
     45 O           4.6930    8.1970   18.2740 O.2       1 ALC1        0.0000 
     46 O           5.4530    7.2800   17.0600 O.2       7 ALL1        0.0000 
     47 O           3.9330    9.1140   19.4880 O.2       4 ALP1        0.0000 
     48 CA         13.4755   12.9250   14.2210 C.3       3 GLC5        0.0000 
     49 CA         11.3280   12.4730   15.0580 C.3       9 GLL5        0.0000 
     50 CA         10.6475   10.3975   15.5105 C.3       3 GLC5        0.0000 
     51 CA         10.3850    8.3570   15.4300 C.3       6 GLP5        0.0000 
     52 CA         12.2349   12.0312   19.6631 C.3       3 GLC5        0.0000 
     53 CA         10.8090   12.4970   18.6100 C.3       9 GLL5        0.0000 
     54 CA          8.2957   12.6710   21.1103 C.3       3 GLC5        0.0000 
     55 CA          6.4950   13.5060   20.8750 C.3       6 GLP5        0.0000 
     56 CA          9.4440   14.9960   18.1827 C.3       3 GLC5        0.0000 
     57 CA         10.5120   14.3770   20.0560 C.3       9 GLL5        0.0000 
     58 CA         12.3510   12.9950   19.3717 C.3       3 GLC5        0.0000 
     59 CA          8.4202   13.7580   20.7480 C.3       3 GLC5        0.0000 
     60 CA          9.0609   12.7643   22.9454 C.3       3 GLC5        0.0000 
     61 CA         10.1790   13.6430   21.1860 C.3       9 GLL5        0.0000 
     62 CA          7.9840   12.7890   24.6250 C.3       6 GLP5        0.0000 
     63 CA         10.0783   11.7118   12.0972 C.3       3 GLC5        0.0000 
     64 CA          9.9220   10.4860   10.5230 C.3       6 GLP5        0.0000 
     65 CA          8.7301   14.3298   16.1273 C.3       3 GLC5        0.0000 
     66 CA          8.6630   12.9970   14.6390 C.3       9 GLL5        0.0000 
     67 CA          8.9995   10.7170   14.9802 C.3       3 GLC5        0.0000 
     68 CA          9.1270   12.6530   15.9120 C.3       9 GLL5        0.0000 
     69 CA          9.1040    8.6090   14.6850 C.3       6 GLP5        0.0000 
     70 CA          3.7172    9.0100   17.0900 C.3       3 GLC5        0.0000 
     71 CA          5.7130    8.4670   16.2640 C.3       9 GLL5        0.0000 
     72 CA          1.7510    8.9170   17.6370 C.3       6 GLP5        0.0000 
     73 CA          5.3383   11.0177   18.1810 C.3       3 GLC5        0.0000 
     74 CA          5.6540    9.7390   16.8220 C.3       9 GLL5        0.0000 
     75 CA          4.9190   11.7610   19.9770 C.3       6 GLP5        0.0000 
     76 CA          7.4876    9.1637   15.2719 C.3       3 GLC5        0.0000 
     77 CA          4.3936    8.9202   14.9664 C.3       3 GLC5        0.0000 
     78 CA          6.2990    9.2130   14.1750 C.3       9 GLL5        0.0000 
     79 CA          2.9160    8.1220   14.0740 C.3       6 GLP5        0.0000 
@<TRIPOS>BOND
@<TRIPOS>SUBSTRUCTURE
     1 ALC1       42 GROUP        1 X    ALC  0     ROOT ALC X 1
     2 SEC2       39 GROUP        1 X    SEC  0     **** SEC X 2
     3 GLC5        1 GROUP        1 X    GLC  0     **** GLC X 6
     4 ALP1       44 GROUP        1 Y    ALP  0     ROOT ALP Y 8
     5 SEP2       41 GROUP        1 Y    SEP  0     **** SEP Y 9
     6 GLP5        3 GROUP        1 Y    GLP  0     **** GLP Y 13
     7 ALL1       43 GROUP        1 Z    ALL  0     ROOT ALL Z 15
     8 SEL2       40 GROUP        1 Z    SEL  0     **** SEL Z 16
     9 GLL5        2 GROUP        1 Z    GLL  0     **** GLL Z 20
@<TRIPOS>SET

