#    Name: 3drr_R8E_1_ligand
#    Modification time : Tue Mar 25 00:01:06 2014

@<TRIPOS>MOLECULE
3drr_R8E_1_ligand
   42    45     1     0     0
SMALL
NO_CHARGES


@<TRIPOS>ATOM
      1 CL29       13.0100   12.0850   15.4700 Cl        1 R8E601      0.0000 
      2 C13        11.3280   12.4730   15.0580 C.ar      1 R8E601      0.0000 
      3 C8         10.4920   12.4030   16.1240 C.ar      1 R8E601      0.0000 
      4 O7         11.0970   12.0340   17.3620 O.3       1 R8E601      0.0000 
      5 C4         10.8090   12.4970   18.6100 C.ar      1 R8E601      0.0000 
      6 C3         10.5220   11.6790   19.6610 C.ar      1 R8E601      0.0000 
      7 C2         10.1980   12.2470   20.9090 C.ar      1 R8E601      0.0000 
      8 C26         9.9950   11.4250   21.7820 C.1       1 R8E601      0.0000 
      9 N27         9.8160   10.6890   22.5610 N.1       1 R8E601      0.0000 
     10 C5         10.8160   13.8130   18.8230 C.ar      1 R8E601      0.0000 
     11 C6         10.5120   14.3770   20.0560 C.ar      1 R8E601      0.0000 
     12 CL28       10.5630   16.1340   19.9710 Cl        1 R8E601      0.0000 
     13 C1         10.1790   13.6430   21.1860 C.ar      1 R8E601      0.0000 
     14 C12        10.9100   12.8050   13.7610 C.ar      1 R8E601      0.0000 
     15 C11         9.5590   13.0700   13.5820 C.ar      1 R8E601      0.0000 
     16 C10         8.6630   12.9970   14.6390 C.ar      1 R8E601      0.0000 
     17 C9          9.1270   12.6530   15.9120 C.ar      1 R8E601      0.0000 
     18 O14         7.3170   13.2470   14.4890 O.3       1 R8E601      0.0000 
     19 C15         6.5500   12.8610   13.4190 C.3       1 R8E601      0.0000 
     20 C16         6.5460   11.3600   13.4680 C.2       1 R8E601      0.0000 
     21 N20         6.8270   10.4970   12.4500 N.2       1 R8E601      0.0000 
     22 N19         6.6640    9.1960   12.9070 N.pl3     1 R8E601      0.0000 
     23 C18         6.2990    9.2130   14.1750 C.ar      1 R8E601      0.0000 
     24 N24         6.0480    8.2270   15.0050 N.ar      1 R8E601      0.0000 
     25 C23         5.7130    8.4670   16.2640 C.ar      1 R8E601      0.0000 
     26 N25         5.4530    7.2800   17.0600 N.pl3     1 R8E601      0.0000 
     27 C22         5.6540    9.7390   16.8220 C.ar      1 R8E601      0.0000 
     28 C21         5.8610   10.8100   15.9480 C.ar      1 R8E601      0.0000 
     29 C17         6.2140   10.5020   14.6270 C.ar      1 R8E601      0.0000 
     30 H          10.5359   10.6581   19.5664 H         1 R8E601      0.0000 
     31 H          11.0600   14.4755   18.0357 H         1 R8E601      0.0000 
     32 H           9.9620   14.0094   22.0471 H         1 R8E601      0.0000 
     33 H          11.5652   12.8474   12.9989 H         1 R8E601      0.0000 
     34 H           9.2123   13.3281   12.6377 H         1 R8E601      0.0000 
     35 H           8.4688   12.5822   16.6969 H         1 R8E601      0.0000 
     36 H           6.9657   13.1633   12.4612 H         1 R8E601      0.0000 
     37 H           5.5195   13.2006   13.4844 H         1 R8E601      0.0000 
     38 H           6.8070    8.4149   12.3456 H         1 R8E601      0.0000 
     39 H           5.5928    6.4028   16.6006 H         1 R8E601      0.0000 
     40 H           5.1557    7.4381   18.0016 H         1 R8E601      0.0000 
     41 H           5.4733    9.8839   17.7966 H         1 R8E601      0.0000 
     42 H           5.7611   11.7636   16.2529 H         1 R8E601      0.0000 
@<TRIPOS>BOND
     1    2    1 1    
     2    3    2 ar   
     3   14    2 ar   
     4    4    3 1    
     5   17    3 ar   
     6    5    4 1    
     7    6    5 ar   
     8   10    5 ar   
     9    7    6 ar   
    10   30    6 1    
    11    8    7 1    
    12   13    7 ar   
    13    9    8 3    
    14   11   10 ar   
    15   31   10 1    
    16   12   11 1    
    17   13   11 ar   
    18   32   13 1    
    19   15   14 ar   
    20   33   14 1    
    21   16   15 ar   
    22   34   15 1    
    23   17   16 ar   
    24   18   16 1    
    25   35   17 1    
    26   19   18 1    
    27   20   19 1    
    28   36   19 1    
    29   37   19 1    
    30   21   20 2    
    31   29   20 1    
    32   22   21 1    
    33   23   22 1    
    34   38   22 1    
    35   24   23 ar   
    36   29   23 ar   
    37   25   24 ar   
    38   26   25 1    
    39   27   25 ar   
    40   39   26 1    
    41   40   26 1    
    42   28   27 ar   
    43   41   27 1    
    44   29   28 ar   
    45   42   28 1    
@<TRIPOS>SUBSTRUCTURE
     1 R8E601      1 GROUP   
@<TRIPOS>SET

