#    Name: 3efv_NAD_1_INTS_M
#    Modification time : Tue Mar 25 01:45:52 2014

@<TRIPOS>MOLECULE
3efv_NAD_1_INTS_M
   92     0     9     0     0
SMALL
NO_CHARGES


@<TRIPOS>ATOM
      1 N          83.2760   40.5030   49.7980 N.am      2 SEC2        0.0000 
      2 N          82.4210   41.3910   49.1500 N.am      8 SEL2        0.0000 
      3 N          84.1310   39.6150   50.4460 N.am      5 SEP2        0.0000 
      4 N          82.8845   41.8345   50.3205 N.am      2 SEC2        0.0000 
      5 N          83.3480   42.2780   51.4910 N.am      5 SEP2        0.0000 
      6 CA         82.2775   38.9305   45.1000 C.3       3 GLC5        0.0000 
      7 CA         81.3610   39.8950   46.6740 C.3       9 GLL5        0.0000 
      8 CA         83.1940   37.9660   43.5260 C.3       6 GLP5        0.0000 
      9 CA         82.5435   38.8290   47.8160 C.3       3 GLC5        0.0000 
     10 CA         83.7260   37.7630   48.9580 C.3       6 GLP5        0.0000 
     11 CA         79.6680   40.6865   43.0100 C.3       3 GLC5        0.0000 
     12 CA         79.5340   40.6250   45.0140 C.3       9 GLL5        0.0000 
     13 CA         79.8020   40.7480   41.0060 C.3       6 GLP5        0.0000 
     14 N          77.5130   40.5705   43.6165 N.am      2 SEC2        0.0000 
     15 N          78.6370   39.9240   44.1640 N.am      8 SEL2        0.0000 
     16 N          76.3890   41.2170   43.0690 N.am      5 SEP2        0.0000 
     17 O          79.5205   38.8950   43.7515 O.2       1 ALC1        0.0000 
     18 O          78.6370   39.9240   44.1640 O.2       7 ALL1        0.0000 
     19 O          80.4040   37.8660   43.3390 O.2       4 ALP1        0.0000 
     20 N          77.0840   41.7620   43.9485 N.am      2 SEC2        0.0000 
     21 N          77.7790   42.3070   44.8280 N.am      8 SEL2        0.0000 
     22 CA         77.4165   39.4045   46.8320 C.3       3 GLC5        0.0000 
     23 CA         78.1010   41.0290   46.8180 C.3       9 GLL5        0.0000 
     24 CA         76.7320   37.7800   46.8460 C.3       6 GLP5        0.0000 
     25 CA         73.7215   44.2925   49.1580 C.3       3 GLC5        0.0000 
     26 CA         75.2300   43.1540   50.1590 C.3       9 GLL5        0.0000 
     27 CA         72.2130   45.4310   48.1570 C.3       6 GLP5        0.0000 
     28 CA         72.7110   43.0960   47.9670 C.3       3 GLC5        0.0000 
     29 CA         74.0090   41.7310   48.6540 C.3       9 GLL5        0.0000 
     30 CA         71.4130   44.4610   47.2800 C.3       6 GLP5        0.0000 
     31 CA         72.4805   40.8885   48.0610 C.3       3 GLC5        0.0000 
     32 CA         70.9520   40.0460   47.4680 C.3       6 GLP5        0.0000 
     33 CA         75.1250   40.2030   49.6270 C.3       3 GLC5        0.0000 
     34 CA         76.2410   38.6750   50.6000 C.3       6 GLP5        0.0000 
     35 CA         76.5515   39.8780   47.6285 C.3       3 GLC5        0.0000 
     36 CA         76.3710   41.9760   48.4110 C.3       9 GLL5        0.0000 
     37 N          84.1240   40.4015   48.9130 N.am      2 SEC2        0.0000 
     38 N          84.1170   41.1880   47.3800 N.am      8 SEL2        0.0000 
     39 N          85.8215   42.7465   44.5170 N.am      2 SEC2        0.0000 
     40 N          85.5730   42.6960   45.9760 N.am      8 SEL2        0.0000 
     41 N          86.0700   42.7970   43.0580 N.am      5 SEP2        0.0000 
     42 CA         88.9525   40.4655   46.3270 C.3       3 GLC5        0.0000 
     43 CA         87.2100   40.3400   46.9270 C.3       9 GLL5        0.0000 
     44 CA         90.6950   40.5910   45.7270 C.3       6 GLP5        0.0000 
     45 CA         85.3870   38.6630   48.5945 C.3       3 GLC5        0.0000 
     46 CA         87.0480   39.5630   48.2310 C.3       9 GLL5        0.0000 
     47 CA         88.9445   39.4405   47.2610 C.3       3 GLC5        0.0000 
     48 CA         90.8410   39.3180   46.2910 C.3       6 GLP5        0.0000 
     49 O          89.3080   40.0490   51.1000 O.2       1 ALC1        0.0000 
     50 O          88.1970   39.7440   50.3700 O.2       7 ALL1        0.0000 
     51 O          90.4190   40.3540   51.8300 O.2       4 ALP1        0.0000 
     52 CA         88.8545   37.6415   50.9015 C.3       3 GLC5        0.0000 
     53 CA         88.7050   37.9810   48.7940 C.3       9 GLL5        0.0000 
     54 CA         89.0040   37.3020   53.0090 C.3       6 GLP5        0.0000 
     55 O          90.6810   38.0875   50.4015 O.2       1 ALC1        0.0000 
     56 O          89.5710   37.3750   49.7240 O.2       7 ALL1        0.0000 
     57 O          91.7910   38.8000   51.0790 O.2       4 ALP1        0.0000 
     58 CA         85.5280   37.5545   48.8845 C.3       3 GLC5        0.0000 
     59 CA         87.3300   37.3460   48.8110 C.3       9 GLL5        0.0000 
     60 CA         86.5150   35.1460   51.0640 C.3       3 GLC5        0.0000 
     61 CA         87.3170   34.9050   49.1800 C.3       9 GLL5        0.0000 
     62 CA         85.7130   35.3870   52.9480 C.3       6 GLP5        0.0000 
     63 CA         85.9490   32.3795   49.7615 C.3       3 GLC5        0.0000 
     64 CA         87.4840   33.6030   48.6910 C.3       9 GLL5        0.0000 
     65 CA         84.4140   31.1560   50.8320 C.3       6 GLP5        0.0000 
     66 O          86.7300   30.2970   50.2030 O.2       1 ALC1        0.0000 
     67 O          87.1160   31.2600   48.8740 O.2       7 ALL1        0.0000 
     68 O          86.3440   29.3340   51.5320 O.2       4 ALP1        0.0000 
     69 CA         89.2510   33.0800   47.8215 C.3       3 GLC5        0.0000 
     70 CA         87.8010   33.4110   47.3490 C.3       9 GLL5        0.0000 
     71 CA         90.7010   32.7490   48.2940 C.3       6 GLP5        0.0000 
     72 CA         78.2300   38.9760   46.2258 C.3       3 GLC5        0.0000 
     73 CA         79.9220   39.7190   46.1970 C.3       9 GLL5        0.0000 
     74 CA         76.3150   40.5440   49.7755 C.3       3 GLC5        0.0000 
     75 CA         86.2537   39.9177   50.0673 C.3       3 GLC5        0.0000 
     76 CA         84.8000   40.3280   51.5190 C.3       6 GLP5        0.0000 
     77 CA         90.0670   38.9412   48.1795 C.3       3 GLC5        0.0000 
     78 CA         88.3670   39.4520   49.0000 C.3       9 GLL5        0.0000 
     79 CA         91.5980   39.1660   47.4620 C.3       6 GLP5        0.0000 
     80 CA         89.2732   36.0418   48.9463 C.3       3 GLC5        0.0000 
     81 CA         90.5290   34.4200   49.0900 C.3       6 GLP5        0.0000 
     82 CA         86.0112   33.8310   48.1153 C.3       3 GLC5        0.0000 
     83 CA         84.6220   33.4080   47.2950 C.3       6 GLP5        0.0000 
     84 CA         88.9647   34.3370   49.0128 C.3       3 GLC5        0.0000 
     85 CA         86.8635   33.1017   45.2195 C.3       3 GLC5        0.0000 
     86 CA         85.8480   32.2420   43.5070 C.3       6 GLP5        0.0000 
     87 CA         86.1880   35.7220   45.6540 C.3       3 GLC5        0.0000 
     88 CA         87.9570   34.5120   46.5150 C.3       9 GLL5        0.0000 
     89 CA         84.5060   36.2930   44.5500 C.3       6 GLP5        0.0000 
     90 CA         89.1995   34.7855   47.9240 C.3       3 GLC5        0.0000 
     91 CA         87.7830   35.7900   47.0010 C.3       9 GLL5        0.0000 
     92 CA         86.2265   34.1419   47.1307 C.3       3 GLC5        0.0000 
@<TRIPOS>BOND
@<TRIPOS>SUBSTRUCTURE
     1 ALC1       17 GROUP        1 X    ALC  0     ROOT ALC X 1
     2 SEC2        1 GROUP        1 X    SEC  0     **** SEC X 2
     3 GLC5        6 GROUP        1 X    GLC  0     **** GLC X 6
     4 ALP1       19 GROUP        1 Y    ALP  0     ROOT ALP Y 8
     5 SEP2        3 GROUP        1 Y    SEP  0     **** SEP Y 9
     6 GLP5        8 GROUP        1 Y    GLP  0     **** GLP Y 13
     7 ALL1       18 GROUP        1 Z    ALL  0     ROOT ALL Z 15
     8 SEL2        2 GROUP        1 Z    SEL  0     **** SEL Z 16
     9 GLL5        7 GROUP        1 Z    GLL  0     **** GLL Z 20
@<TRIPOS>SET

