#    Name: 3efv_NAD_1_ligand
#    Modification time : Tue Mar 25 01:45:52 2014

@<TRIPOS>MOLECULE
3efv_NAD_1_ligand
   70    74     1     0     0
SMALL
NO_CHARGES


@<TRIPOS>ATOM
      1 PA         82.7100   41.8900   47.7860 P.3       1 NAD463      0.0000 
      2 O1A        82.4210   41.3910   49.1500 O.co2     1 NAD463      0.0000 
      3 O2A        82.6890   43.3640   47.7350 O.co2     1 NAD463      0.0000 
      4 O5B        81.5840   41.2920   46.8000 O.3       1 NAD463      0.0000 
      5 C5B        81.3610   39.8950   46.6740 C.3       1 NAD463      0.0000 
      6 C4B        79.9220   39.7190   46.1970 C.3       1 NAD463      0.0000 
      7 O4B        79.0740   40.0980   47.2720 O.3       1 NAD463      0.0000 
      8 C3B        79.5340   40.6250   45.0140 C.3       1 NAD463      0.0000 
      9 O3B        78.6370   39.9240   44.1640 O.3       1 NAD463      0.0000 
     10 C2B        78.7680   41.7670   45.6650 C.3       1 NAD463      0.0000 
     11 O2B        77.7790   42.3070   44.8280 O.3       1 NAD463      0.0000 
     12 C1B        78.1010   41.0290   46.8180 C.3       1 NAD463      0.0000 
     13 N9A        77.6660   41.8690   47.9400 N.pl3     1 NAD463      0.0000 
     14 C8A        78.4710   42.6420   48.7390 C.2       1 NAD463      0.0000 
     15 N7A        77.6930   43.2400   49.6800 N.2       1 NAD463      0.0000 
     16 C5A        76.4070   42.8500   49.4910 C.ar      1 NAD463      0.0000 
     17 C6A        75.2300   43.1540   50.1590 C.ar      1 NAD463      0.0000 
     18 N6A        75.2750   43.9170   51.2500 N.pl3     1 NAD463      0.0000 
     19 N1A        74.0330   42.5920   49.7340 N.ar      1 NAD463      0.0000 
     20 C2A        74.0090   41.7310   48.6540 C.ar      1 NAD463      0.0000 
     21 N3A        75.1870   41.4380   47.9930 N.ar      1 NAD463      0.0000 
     22 C4A        76.3710   41.9760   48.4110 C.ar      1 NAD463      0.0000 
     23 O3         84.1170   41.1880   47.3800 O.3       1 NAD463      0.0000 
     24 PN         84.9200   41.3390   45.9780 P.3       1 NAD463      0.0000 
     25 O1N        85.5730   42.6960   45.9760 O.co2     1 NAD463      0.0000 
     26 O2N        84.0090   40.9580   44.8390 O.co2     1 NAD463      0.0000 
     27 O5D        86.0690   40.1900   46.1080 O.3       1 NAD463      0.0000 
     28 C5D        87.2100   40.3400   46.9270 C.3       1 NAD463      0.0000 
     29 C4D        87.0480   39.5630   48.2310 C.3       1 NAD463      0.0000 
     30 O4D        86.6160   38.2290   47.9620 O.3       1 NAD463      0.0000 
     31 C3D        88.3670   39.4520   49.0000 C.3       1 NAD463      0.0000 
     32 O3D        88.1970   39.7440   50.3700 O.3       1 NAD463      0.0000 
     33 C2D        88.7050   37.9810   48.7940 C.3       1 NAD463      0.0000 
     34 O2D        89.5710   37.3750   49.7240 O.3       1 NAD463      0.0000 
     35 C1D        87.3300   37.3460   48.8110 C.3       1 NAD463      0.0000 
     36 N1N        87.4720   35.9690   48.3230 N.pl3     1 NAD463      0.0000 
     37 C2N        87.3170   34.9050   49.1800 C.ar      1 NAD463      0.0000 
     38 C3N        87.4840   33.6030   48.6910 C.ar      1 NAD463      0.0000 
     39 C7N        87.3770   32.3670   49.5370 C.2       1 NAD463      0.0000 
     40 O7N        87.5510   32.3560   50.9350 O.2       1 NAD463      0.0000 
     41 N7N        87.1160   31.2600   48.8740 N.am      1 NAD463      0.0000 
     42 C4N        87.8010   33.4110   47.3490 C.ar      1 NAD463      0.0000 
     43 C5N        87.9570   34.5120   46.5150 C.ar      1 NAD463      0.0000 
     44 C6N        87.7830   35.7900   47.0010 C.ar      1 NAD463      0.0000 
     45 H          81.4653   39.3749   47.6210 H         1 NAD463      0.0000 
     46 H          82.0154   39.4389   45.9378 H         1 NAD463      0.0000 
     47 H          79.7555   38.7020   45.9230 H         1 NAD463      0.0000 
     48 H          80.3857   40.9856   44.5566 H         1 NAD463      0.0000 
     49 H          79.4508   42.4494   46.0684 H         1 NAD463      0.0000 
     50 H          77.2536   40.4807   46.4057 H         1 NAD463      0.0000 
     51 H          79.4202   42.7388   48.6435 H         1 NAD463      0.0000 
     52 H          76.1730   44.2831   51.4942 H         1 NAD463      0.0000 
     53 H          74.4068   44.0550   51.7266 H         1 NAD463      0.0000 
     54 H          73.1237   41.3120   48.3446 H         1 NAD463      0.0000 
     55 H          87.3927   41.3948   47.1918 H         1 NAD463      0.0000 
     56 H          88.1242   39.9700   46.4336 H         1 NAD463      0.0000 
     57 H          86.3390   40.0747   48.8594 H         1 NAD463      0.0000 
     58 H          89.0892   40.0302   48.5007 H         1 NAD463      0.0000 
     59 H          89.0541   37.8861   47.7577 H         1 NAD463      0.0000 
     60 H          86.9843   37.3860   49.8117 H         1 NAD463      0.0000 
     61 H          87.0823   35.0503   50.1659 H         1 NAD463      0.0000 
     62 H          87.0288   31.3514   47.8820 H         1 NAD463      0.0000 
     63 H          87.0288   30.4286   49.4228 H         1 NAD463      0.0000 
     64 H          87.9186   32.4618   46.9787 H         1 NAD463      0.0000 
     65 H          88.2059   34.3655   45.5217 H         1 NAD463      0.0000 
     66 H          87.8866   36.5994   46.3736 H         1 NAD463      0.0000 
     67 H          79.2194   39.4803   43.4829 H         1 NAD463      0.0000 
     68 H          78.2572   42.9792   44.2628 H         1 NAD463      0.0000 
     69 H          89.1168   39.9433   50.7081 H         1 NAD463      0.0000 
     70 H          90.1859   38.1062   50.0194 H         1 NAD463      0.0000 
@<TRIPOS>BOND
     1    2    1 ar   
     2    3    1 ar   
     3    4    1 1    
     4   23    1 1    
     5    5    4 1    
     6    6    5 1    
     7   45    5 1    
     8   46    5 1    
     9    7    6 1    
    10    8    6 1    
    11   47    6 1    
    12   12    7 1    
    13    9    8 1    
    14   10    8 1    
    15   48    8 1    
    16   67    9 1    
    17   11   10 1    
    18   12   10 1    
    19   49   10 1    
    20   68   11 1    
    21   13   12 1    
    22   50   12 1    
    23   14   13 1    
    24   22   13 1    
    25   15   14 2    
    26   51   14 1    
    27   16   15 1    
    28   17   16 ar   
    29   22   16 ar   
    30   18   17 1    
    31   19   17 ar   
    32   52   18 1    
    33   53   18 1    
    34   20   19 ar   
    35   21   20 ar   
    36   54   20 1    
    37   22   21 ar   
    38   24   23 1    
    39   25   24 ar   
    40   26   24 ar   
    41   27   24 1    
    42   28   27 1    
    43   29   28 1    
    44   55   28 1    
    45   56   28 1    
    46   30   29 1    
    47   31   29 1    
    48   57   29 1    
    49   35   30 1    
    50   32   31 1    
    51   33   31 1    
    52   58   31 1    
    53   69   32 1    
    54   34   33 1    
    55   35   33 1    
    56   59   33 1    
    57   70   34 1    
    58   36   35 1    
    59   60   35 1    
    60   37   36 ar   
    61   44   36 ar   
    62   38   37 ar   
    63   61   37 1    
    64   39   38 1    
    65   42   38 ar   
    66   40   39 2    
    67   41   39 am   
    68   62   41 1    
    69   63   41 1    
    70   43   42 ar   
    71   64   42 1    
    72   44   43 ar   
    73   65   43 1    
    74   66   44 1    
@<TRIPOS>SUBSTRUCTURE
     1 NAD463      1 GROUP   
@<TRIPOS>SET

