#    Name: 3dtw_A96_1_INTS_M
#    Modification time : Tue Mar 25 00:20:05 2014

@<TRIPOS>MOLECULE
3dtw_A96_1_INTS_M
   96     0     9     0     0
SMALL
NO_CHARGES


@<TRIPOS>ATOM
      1 N          41.0285   27.0130   10.7190 N.am      2 SEC2        0.0000 
      2 N          40.5560   28.0730   11.8050 N.am      8 SEL2        0.0000 
      3 N          41.5010   25.9530    9.6330 N.am      5 SEP2        0.0000 
      4 CA         39.4510   30.7490   10.4210 C.3       3 GLC5        0.0000 
      5 CA         39.5770   29.0240   11.7100 C.3       9 GLL5        0.0000 
      6 CA         39.3250   32.4740    9.1320 C.3       6 GLP5        0.0000 
      7 CA         39.4080   27.3215   10.2965 C.3       3 GLC5        0.0000 
      8 CA         39.2390   25.6190    8.8830 C.3       6 GLP5        0.0000 
      9 CA         41.2670   28.8670   10.2660 C.3       3 GLC5        0.0000 
     10 CA         42.9570   28.7100    8.8220 C.3       6 GLP5        0.0000 
     11 CA         38.8865   27.1600   14.8860 C.3       3 GLC5        0.0000 
     12 CA         39.3550   29.0000   14.0820 C.3       9 GLL5        0.0000 
     13 CA         38.4180   25.3200   15.6900 C.3       6 GLP5        0.0000 
     14 CA         37.6665   28.7230   15.2110 C.3       3 GLC5        0.0000 
     15 CA         35.9780   28.4460   16.3400 C.3       6 GLP5        0.0000 
     16 CA         39.6520   26.4750   14.3665 C.3       3 GLC5        0.0000 
     17 CA         40.8860   27.6300   13.0430 C.3       9 GLL5        0.0000 
     18 CA         42.1930   27.4825   11.4785 C.3       3 GLC5        0.0000 
     19 CA         43.5000   27.3350    9.9140 C.3       6 GLP5        0.0000 
     20 CA         41.5975   29.2395   12.4640 C.3       3 GLC5        0.0000 
     21 CA         42.3090   30.8490   11.8850 C.3       6 GLP5        0.0000 
     22 O          37.1800   30.3900   11.4355 O.2       1 ALC1        0.0000 
     23 O          37.9240   30.5090   12.8000 O.2       7 ALL1        0.0000 
     24 O          36.4360   30.2710   10.0710 O.2       4 ALP1        0.0000 
     25 CA         33.8400   34.2445   14.6265 C.3       3 GLC5        0.0000 
     26 CA         34.6490   34.4210   12.6470 C.3       9 GLL5        0.0000 
     27 CA         33.0310   34.0680   16.6060 C.3       6 GLP5        0.0000 
     28 N          39.3580   35.5135   13.7140 N.am      2 SEC2        0.0000 
     29 N          38.1550   34.4850   13.1480 N.am      8 SEL2        0.0000 
     30 N          40.5610   36.5420   14.2800 N.am      5 SEP2        0.0000 
     31 N          39.3260   36.1575   13.5870 N.am      2 SEC2        0.0000 
     32 N          38.0910   35.7730   12.8940 N.am      8 SEL2        0.0000 
     33 CA         35.3240   29.4555   14.8840 C.3       3 GLC5        0.0000 
     34 CA         34.6700   30.4650   13.4280 C.3       9 GLL5        0.0000 
     35 CA         35.4965   28.8400   12.8640 C.3       3 GLC5        0.0000 
     36 CA         36.3230   27.2150   12.3000 C.3       6 GLP5        0.0000 
     37 CA         33.2655   29.0235   13.4945 C.3       3 GLC5        0.0000 
     38 CA         31.8610   27.5820   13.5610 C.3       6 GLP5        0.0000 
     39 CA         33.4660   31.1680   14.5525 C.3       3 GLC5        0.0000 
     40 CA         32.2620   31.8710   15.6770 C.3       6 GLP5        0.0000 
     41 CA         34.8600   31.3410   11.5615 C.3       3 GLC5        0.0000 
     42 CA         35.0500   32.2170    9.6950 C.3       6 GLP5        0.0000 
     43 CA         35.2695   38.9830   10.9665 C.3       3 GLC5        0.0000 
     44 CA         36.0560   39.6320   12.7720 C.3       9 GLL5        0.0000 
     45 CA         34.4830   38.3340    9.1610 C.3       6 GLP5        0.0000 
     46 CA         35.5885   42.2790   11.2930 C.3       3 GLC5        0.0000 
     47 CA         36.6730   40.9010   12.6600 C.3       9 GLL5        0.0000 
     48 CA         34.5040   43.6570    9.9260 C.3       6 GLP5        0.0000 
     49 CA         37.6655   41.7650    9.8650 C.3       3 GLC5        0.0000 
     50 CA         37.8990   41.0430   11.9800 C.3       9 GLL5        0.0000 
     51 CA         37.4320   42.4870    7.7500 C.3       6 GLP5        0.0000 
     52 CA         38.5990   36.8020   10.4365 C.3       3 GLC5        0.0000 
     53 CA         37.9080   38.6350   11.5120 C.3       9 GLL5        0.0000 
     54 CA         39.2900   34.9690    9.3610 C.3       6 GLP5        0.0000 
     55 CA         39.9440   36.9685   10.0690 C.3       3 GLC5        0.0000 
     56 CA         40.5980   38.9680   10.7770 C.3       9 GLL5        0.0000 
     57 CA         42.4685   39.0135   10.7895 C.3       3 GLC5        0.0000 
     58 CA         44.3390   39.0590   10.8020 C.3       6 GLP5        0.0000 
     59 CA         41.1785   37.4195   11.5325 C.3       3 GLC5        0.0000 
     60 CA         41.7590   35.8710   12.2880 C.3       6 GLP5        0.0000 
     61 CA         40.1540   38.8110   12.9590 C.3       3 GLC5        0.0000 
     62 CA         39.7100   38.6540   15.1410 C.3       6 GLP5        0.0000 
     63 CA         42.0265   41.3475   12.2445 C.3       3 GLC5        0.0000 
     64 CA         40.5350   41.0970   11.1890 C.3       9 GLL5        0.0000 
     65 CA         43.5180   41.5980   13.3000 C.3       6 GLP5        0.0000 
     66 CA         42.4370   40.0780   10.9955 C.3       3 GLC5        0.0000 
     67 CA         37.7455   39.1805    8.9990 C.3       3 GLC5        0.0000 
     68 CA         39.6120   40.3080    9.4000 C.3       9 GLL5        0.0000 
     69 CA         35.8790   38.0530    8.5980 C.3       6 GLP5        0.0000 
     70 CA         38.5220   41.3975    8.5750 C.3       3 GLC5        0.0000 
     71 CA         40.3225   41.6620    8.1355 C.3       3 GLC5        0.0000 
     72 CA         41.0330   43.0160    6.8710 C.3       6 GLP5        0.0000 
     73 CA         37.8119   28.1790   12.7396 C.3       3 GLC5        0.0000 
     74 CA         38.9160   29.5480   12.8430 C.3       9 GLL5        0.0000 
     75 CA         40.8049   29.9960   12.5321 C.3       3 GLC5        0.0000 
     76 CA         35.9258   32.6698   11.4538 C.3       3 GLC5        0.0000 
     77 CA         36.6290   32.4490   13.3160 C.3       9 GLL5        0.0000 
     78 CA         34.6285   35.8693   11.3195 C.3       3 GLC5        0.0000 
     79 CA         33.9400   37.1360    9.9300 C.3       6 GLP5        0.0000 
     80 CA         35.1835   33.4098   11.2020 C.3       3 GLC5        0.0000 
     81 CA         32.7665   33.8573   11.9245 C.3       3 GLC5        0.0000 
     82 CA         31.0750   33.9770   11.0980 C.3       6 GLP5        0.0000 
     83 CA         33.5100   32.2182   14.3498 C.3       3 GLC5        0.0000 
     84 CA         34.2670   33.0540   12.8550 C.3       9 GLL5        0.0000 
     85 CA         34.9040   32.3912   11.3588 C.3       3 GLC5        0.0000 
     86 CA         34.5910   39.0020   13.2815 C.3       3 GLC5        0.0000 
     87 CA         36.6640   38.4900   12.2020 C.3       9 GLL5        0.0000 
     88 CA         32.8220   38.9430   14.0760 C.3       6 GLP5        0.0000 
     89 CA         36.8958   38.6466   10.1122 C.3       3 GLC5        0.0000 
     90 CA         38.5390   39.9180   11.3960 C.3       9 GLL5        0.0000 
     91 CA         41.4462   41.6778    9.8425 C.3       3 GLC5        0.0000 
     92 CA         39.8760   40.0720   10.6630 C.3       9 GLL5        0.0000 
     93 CA         42.6870   42.7710    8.7590 C.3       6 GLP5        0.0000 
     94 CA         40.3328   39.1310    8.4365 C.3       3 GLC5        0.0000 
     95 CA         40.7410   38.3480    6.8130 C.3       6 GLP5        0.0000 
     96 CA         38.6932   39.1591   13.4924 C.3       3 GLC5        0.0000 
@<TRIPOS>BOND
@<TRIPOS>SUBSTRUCTURE
     1 ALC1       22 GROUP        1 X    ALC  0     ROOT ALC X 1
     2 SEC2        1 GROUP        1 X    SEC  0     **** SEC X 2
     3 GLC5        4 GROUP        1 X    GLC  0     **** GLC X 6
     4 ALP1       24 GROUP        1 Y    ALP  0     ROOT ALP Y 8
     5 SEP2        3 GROUP        1 Y    SEP  0     **** SEP Y 9
     6 GLP5        6 GROUP        1 Y    GLP  0     **** GLP Y 13
     7 ALL1       23 GROUP        1 Z    ALL  0     ROOT ALL Z 15
     8 SEL2        2 GROUP        1 Z    SEL  0     **** SEL Z 16
     9 GLL5        5 GROUP        1 Z    GLL  0     **** GLL Z 20
@<TRIPOS>SET

