#    Name: 3dtw_A96_1_ligand
#    Modification time : Tue Mar 25 00:20:05 2014

@<TRIPOS>MOLECULE
3dtw_A96_1_ligand
   41    44     1     0     0
SMALL
NO_CHARGES


@<TRIPOS>ATOM
      1 N1         40.5560   28.0730   11.8050 N.ar      1 A96501      0.0000 
      2 C2         39.5770   29.0240   11.7100 C.ar      1 A96501      0.0000 
      3 C3         38.9160   29.5480   12.8430 C.ar      1 A96501      0.0000 
      4 C4         39.3550   29.0000   14.0820 C.ar      1 A96501      0.0000 
      5 N5         40.3230   28.0570   14.1920 N.ar      1 A96501      0.0000 
      6 C6         40.8860   27.6300   13.0430 C.ar      1 A96501      0.0000 
      7 N10        37.9240   30.5090   12.8000 N.am      1 A96501      0.0000 
      8 C11        37.7330   31.5440   13.6670 C.2       1 A96501      0.0000 
      9 C12        36.6290   32.4490   13.3160 C.ar      1 A96501      0.0000 
     10 O13        38.4570   31.7310   14.6400 O.2       1 A96501      0.0000 
     11 C14        36.9740   33.7960   13.1090 C.ar      1 A96501      0.0000 
     12 C15        35.9850   34.7840   12.7710 C.ar      1 A96501      0.0000 
     13 C16        34.6490   34.4210   12.6470 C.ar      1 A96501      0.0000 
     14 C17        34.2670   33.0540   12.8550 C.ar      1 A96501      0.0000 
     15 C18        35.2490   32.0770   13.1900 C.ar      1 A96501      0.0000 
     16 O21        38.1550   34.4850   13.1480 O.3       1 A96501      0.0000 
     17 N22        38.0910   35.7730   12.8940 N.2       1 A96501      0.0000 
     18 C23        36.7740   36.0070   12.6550 C.2       1 A96501      0.0000 
     19 CL24       34.6700   30.4650   13.4280 Cl        1 A96501      0.0000 
     20 N25        36.0430   37.2580   12.3100 N.pl3     1 A96501      0.0000 
     21 C26        36.6640   38.4900   12.2020 C.ar      1 A96501      0.0000 
     22 C27        36.0560   39.6320   12.7720 C.ar      1 A96501      0.0000 
     23 C28        36.6730   40.9010   12.6600 C.ar      1 A96501      0.0000 
     24 C29        37.8990   41.0430   11.9800 C.ar      1 A96501      0.0000 
     25 C30        38.5390   39.9180   11.3960 C.ar      1 A96501      0.0000 
     26 C31        37.9080   38.6350   11.5120 C.ar      1 A96501      0.0000 
     27 C36        39.8760   40.0720   10.6630 C.3       1 A96501      0.0000 
     28 F37        40.5980   38.9680   10.7770 F         1 A96501      0.0000 
     29 F38        40.5350   41.0970   11.1890 F         1 A96501      0.0000 
     30 F39        39.6120   40.3080    9.4000 F         1 A96501      0.0000 
     31 H          39.2940   29.3888   10.7714 H         1 A96501      0.0000 
     32 H          38.8809   29.3684   14.9516 H         1 A96501      0.0000 
     33 H          41.6550   26.8817   13.1113 H         1 A96501      0.0000 
     34 H          37.2180   30.4243   11.9778 H         1 A96501      0.0000 
     35 H          33.9328   35.1042   12.4114 H         1 A96501      0.0000 
     36 H          33.2906   32.7851   12.7621 H         1 A96501      0.0000 
     37 H          35.0240   37.1559   12.1517 H         1 A96501      0.0000 
     38 H          35.1662   39.5416   13.2677 H         1 A96501      0.0000 
     39 H          36.2224   41.7211   13.0776 H         1 A96501      0.0000 
     40 H          38.3376   41.9667   11.9035 H         1 A96501      0.0000 
     41 H          38.3540   37.8168   11.0963 H         1 A96501      0.0000 
@<TRIPOS>BOND
     1    2    1 ar   
     2    6    1 ar   
     3    3    2 ar   
     4   31    2 1    
     5    4    3 ar   
     6    7    3 1    
     7    5    4 ar   
     8   32    4 1    
     9    6    5 ar   
    10   33    6 1    
    11    8    7 am   
    12   34    7 1    
    13    9    8 1    
    14   10    8 2    
    15   11    9 ar   
    16   15    9 ar   
    17   12   11 ar   
    18   16   11 1    
    19   13   12 ar   
    20   18   12 1    
    21   14   13 ar   
    22   35   13 1    
    23   15   14 ar   
    24   36   14 1    
    25   19   15 1    
    26   17   16 1    
    27   18   17 2    
    28   20   18 1    
    29   21   20 1    
    30   37   20 1    
    31   22   21 ar   
    32   26   21 ar   
    33   23   22 ar   
    34   38   22 1    
    35   24   23 ar   
    36   39   23 1    
    37   25   24 ar   
    38   40   24 1    
    39   26   25 ar   
    40   27   25 1    
    41   41   26 1    
    42   28   27 1    
    43   29   27 1    
    44   30   27 1    
@<TRIPOS>SUBSTRUCTURE
     1 A96501      1 GROUP   
@<TRIPOS>SET

