#    Name: 3C7K_2_CAVITY_N1_6.mol2
#    Modification time : Tue Mar 11 13:03:39 2014

@<TRIPOS>MOLECULE
3C7K_2_CAVITY_N1_6.mol2
   55     0     6     0     0
SMALL
NO_CHARGES


@<TRIPOS>ATOM
      1 N          73.9145   39.3859  -67.1654 N.2       2 ALA2        0.0000 
      2 N          73.1612   40.3232  -68.9130 N.2       2 ALA2        0.0000 
      3 OG         73.6367   38.9422  -68.5711 O.2       1 SER1        0.0000 
      4 OD1        72.8834   39.8795  -70.3187 O.3       3 ASP3        0.0000 
      5 OD1        72.2415   38.5599  -68.1748 O.3       3 ASP3        0.0000 
      6 OD1        72.4392   36.7353  -69.2386 O.3       3 ASP3        0.0000 
      7 CA         75.0868   44.2820  -75.3449 C.3       5 GLY6        0.0000 
      8 CA         75.5624   42.9011  -75.0030 C.3       5 GLY6        0.0000 
      9 O          76.0379   41.5201  -74.6612 O.2       2 ALA2        0.0000 
     10 O          76.5135   40.1392  -74.3193 O.2       2 ALA2        0.0000 
     11 O          76.9890   38.7583  -73.9774 O.2       2 ALA2        0.0000 
     12 NZ         75.2846   42.4574  -76.4087 N.2       4 LYS4        0.0000 
     13 OD1        75.7601   41.0765  -76.0669 O.3       3 ASP3        0.0000 
     14 CA         75.0068   42.0138  -77.8144 C.3       5 GLY6        0.0000 
     15 N          76.2843   46.4890  -74.6774 N.2       2 ALA2        0.0000 
     16 N          74.2786   40.2618  -70.7151 N.2       2 ALA2        0.0000 
     17 N          73.5253   41.1991  -72.4627 N.2       2 ALA2        0.0000 
     18 OD1        74.0008   39.8182  -72.1208 O.3       3 ASP3        0.0000 
     19 N          73.2475   40.7555  -73.8684 N.2       2 ALA2        0.0000 
     20 OG         73.7230   39.3745  -73.5265 O.2       1 SER1        0.0000 
     21 OG         72.0186   43.0737  -75.9578 O.2       1 SER1        0.0000 
     22 N          72.4941   41.6928  -75.6159 N.2       2 ALA2        0.0000 
     23 OG         72.2163   41.2491  -77.0216 O.2       1 SER1        0.0000 
     24 OG         72.6919   39.8682  -76.6798 O.2       1 SER1        0.0000 
     25 OG         71.4630   42.1864  -78.7692 O.2       1 SER1        0.0000 
     26 CA         71.9385   40.8054  -78.4273 C.3       5 GLY6        0.0000 
     27 CA         72.4141   39.4245  -78.0855 C.3       5 GLY6        0.0000 
     28 O          71.1852   41.7427  -80.1749 O.2       2 ALA2        0.0000 
     29 CA         71.6607   40.3618  -79.8330 C.3       5 GLY6        0.0000 
     30 CA         72.1363   38.9809  -79.4912 C.3       5 GLY6        0.0000 
     31 OG         71.3829   39.9181  -81.2388 O.2       1 SER1        0.0000 
     32 O          71.8585   38.5372  -80.8969 O.2       2 ALA2        0.0000 
     33 CA         74.9205   41.5815  -72.8591 C.3       5 GLY6        0.0000 
     34 O          75.3960   40.2005  -72.5172 O.2       2 ALA2        0.0000 
     35 CA         75.8716   38.8196  -72.1753 C.3       5 GLY6        0.0000 
     36 CA         73.6916   43.8997  -74.9485 C.3       5 GLY6        0.0000 
     37 CA         74.1672   42.5187  -74.6066 C.3       5 GLY6        0.0000 
     38 CA         74.6427   41.1378  -74.2648 C.3       5 GLY6        0.0000 
     39 CA         75.1182   39.7569  -73.9229 C.3       5 GLY6        0.0000 
     40 CA         75.5938   38.3759  -73.5811 C.3       5 GLY6        0.0000 
     41 CA         73.4138   43.4560  -76.3542 C.3       5 GLY6        0.0000 
     42 DU         73.8894   42.0751  -76.0123 H         6 CUB7        0.0000 
     43 OG         74.3649   40.6942  -75.6705 O.2       1 SER1        0.0000 
     44 CA         74.8404   39.3132  -75.3286 C.3       5 GLY6        0.0000 
     45 CA         73.1360   43.0124  -77.7599 C.3       5 GLY6        0.0000 
     46 CA         73.6116   41.6314  -77.4180 C.3       5 GLY6        0.0000 
     47 CA         74.0871   40.2505  -77.0762 C.3       5 GLY6        0.0000 
     48 CA         72.8582   42.5687  -79.1656 C.3       5 GLY6        0.0000 
     49 CA         73.3338   41.1878  -78.8237 C.3       5 GLY6        0.0000 
     50 OD1        73.8093   39.8068  -78.4819 O.3       3 ASP3        0.0000 
     51 CA         72.5804   42.1251  -80.5713 C.3       5 GLY6        0.0000 
     52 CA         73.0560   40.7441  -80.2294 C.3       5 GLY6        0.0000 
     53 N          73.5315   39.3632  -79.8876 N.2       2 ALA2        0.0000 
     54 CA         72.7782   40.3005  -81.6351 C.3       5 GLY6        0.0000 
     55 OD1        77.2668   39.2019  -72.5717 O.3       3 ASP3        0.0000 
@<TRIPOS>BOND
@<TRIPOS>SUBSTRUCTURE
     1 SER1        3 GROUP   
     2 ALA2        1 GROUP   
     3 ASP3        4 GROUP   
     4 LYS4       12 GROUP   
     5 GLY6        7 GROUP   
     6 CUB7       42 GROUP   
@<TRIPOS>SET

