#    Name: 3c7k_GDP_2_INTS_M
#    Modification time : Mon Mar 24 20:34:07 2014

@<TRIPOS>MOLECULE
3c7k_GDP_2_INTS_M
   71     0    15     0     0
SMALL
NO_CHARGES


@<TRIPOS>ATOM
      1 NZ         80.0060   37.2895  -73.6315 N.4       3 LYC4        0.0000 
      2 NZ         78.8630   37.4650  -74.1080 N.4      13 LYL4        0.0000 
      3 NZ         81.1490   37.1140  -73.1550 N.4       8 LYP4        0.0000 
      4 N          80.0060   37.2895  -73.6315 N.am      2 SEC2        0.0000 
      5 N          78.8630   37.4650  -74.1080 N.am     12 SEL2        0.0000 
      6 N          81.1490   37.1140  -73.1550 N.am      7 SEP2        0.0000 
      7 Zn         77.3725   38.0585  -71.0470 Zn        4 ZIC7        0.0000 
      8 Zn         77.2920   38.2990  -72.1180 Zn       14 ZIL7        0.0000 
      9 Zn         77.4530   37.8180  -69.9760 Zn        9 ZIP7        0.0000 
     10 N          76.6750   36.8415  -72.4090 N.am      2 SEC2        0.0000 
     11 N          77.2920   38.2990  -72.1180 N.am     12 SEL2        0.0000 
     12 N          76.0580   35.3840  -72.7000 N.am      7 SEP2        0.0000 
     13 NZ         80.0110   38.5135  -73.1560 N.4       3 LYC4        0.0000 
     14 NZ         78.8730   39.9130  -73.1570 N.4      13 LYL4        0.0000 
     15 NZ         78.3180   41.0920  -72.6670 N.4       3 LYC4        0.0000 
     16 NZ         78.0130   43.5310  -71.8210 N.4       8 LYP4        0.0000 
     17 N          78.3180   41.0920  -72.6670 N.am      2 SEC2        0.0000 
     18 N          78.8730   39.9130  -73.1570 N.am     12 SEL2        0.0000 
     19 N          77.7630   42.2710  -72.1770 N.am      7 SEP2        0.0000 
     20 N          77.3610   38.6325  -75.5180 N.am      2 SEC2        0.0000 
     21 N          77.0750   39.2820  -74.4550 N.am     12 SEL2        0.0000 
     22 N          77.6470   37.9830  -76.5810 N.am      7 SEP2        0.0000 
     23 N          74.0670   37.1495  -73.6865 N.am      2 SEC2        0.0000 
     24 N          74.7850   38.3450  -73.9320 N.am     12 SEL2        0.0000 
     25 N          73.3490   35.9540  -73.4410 N.am      7 SEP2        0.0000 
     26 N          73.2825   38.2760  -74.3110 N.am      2 SEC2        0.0000 
     27 N          71.7800   38.2070  -74.6900 N.am      7 SEP2        0.0000 
     28 NZ         76.7120   41.3990  -72.4240 N.4       3 LYC4        0.0000 
     29 NZ         75.6610   40.5270  -72.6710 N.4      13 LYL4        0.0000 
     30 N          76.7120   41.3990  -72.4240 N.am      2 SEC2        0.0000 
     31 N          75.6610   40.5270  -72.6710 N.am     12 SEL2        0.0000 
     32 CA         74.2110   43.8750  -77.7410 C.3       5 GLC5        0.0000 
     33 CA         74.4370   42.6940  -76.0140 C.3      15 GLL5        0.0000 
     34 CA         73.9850   45.0560  -79.4680 C.3      10 GLP5        0.0000 
     35 CA         73.2380   43.8955  -73.7320 C.3       5 GLC5        0.0000 
     36 CA         73.0430   42.4390  -75.3460 C.3      15 GLL5        0.0000 
     37 CA         73.4330   45.3520  -72.1180 C.3      10 GLP5        0.0000 
     38 N          71.2165   44.0845  -76.4565 N.am      2 SEC2        0.0000 
     39 N          72.3390   43.7390  -75.4120 N.am     12 SEL2        0.0000 
     40 N          70.0940   44.4300  -77.5010 N.am      7 SEP2        0.0000 
     41 O          70.0430   40.8200  -75.4255 O.2       1 ALC1        0.0000 
     42 O          70.8390   41.4890  -76.2630 O.2      11 ALL1        0.0000 
     43 O          69.2470   40.1510  -74.5880 O.2       6 ALP1        0.0000 
     44 CA         73.4320   43.3365  -78.5470 C.3       5 GLC5        0.0000 
     45 CA         72.8790   41.6170  -77.6260 C.3      15 GLL5        0.0000 
     46 CA         74.5490   41.5780  -78.9315 C.3       5 GLC5        0.0000 
     47 CA         76.2190   41.5390  -80.2370 C.3      10 GLP5        0.0000 
     48 N          74.7025   37.8295  -79.6695 N.am      2 SEC2        0.0000 
     49 N          73.6780   38.4720  -79.0860 N.am     12 SEL2        0.0000 
     50 N          75.7270   37.1870  -80.2530 N.am      7 SEP2        0.0000 
     51 CA         74.3915   39.4700  -81.1450 C.3       5 GLC5        0.0000 
     52 CA         73.0040   38.9670  -80.1180 C.3      15 GLL5        0.0000 
     53 CA         75.7790   39.9730  -82.1720 C.3      10 GLP5        0.0000 
     54 CA         72.5960   37.0365  -79.3755 C.3       5 GLC5        0.0000 
     55 CA         72.1880   35.1060  -78.6330 C.3      10 GLP5        0.0000 
     56 N          74.0705   37.4765  -82.7960 N.am      2 SEC2        0.0000 
     57 N          72.8830   37.5840  -81.9500 N.am     12 SEL2        0.0000 
     58 N          75.2580   37.3690  -83.6420 N.am      7 SEP2        0.0000 
     59 O          71.7080   39.6885  -83.5210 O.2       1 ALC1        0.0000 
     60 O          71.8360   39.6180  -82.1490 O.2      11 ALL1        0.0000 
     61 O          71.5800   39.7590  -84.8930 O.2       6 ALP1        0.0000 
     62 O          71.1860   40.6820  -83.6540 O.2       1 ALC1        0.0000 
     63 O          70.7920   41.6050  -82.4150 O.2      11 ALL1        0.0000 
     64 O          70.4300   41.4765  -83.6970 O.2       1 ALC1        0.0000 
     65 O          70.0680   41.3480  -84.9790 O.2       6 ALP1        0.0000 
     66 CA         74.4030   40.9075  -79.9650 C.3       5 GLC5        0.0000 
     67 CA         72.5870   40.2760  -79.6930 C.3      15 GLL5        0.0000 
     68 CA         75.3105   43.2542  -73.9483 C.3       5 GLC5        0.0000 
     69 CA         75.6520   44.2120  -72.1510 C.3      10 GLP5        0.0000 
     70 CA         70.8822   39.4447  -79.4262 C.3       5 GLC5        0.0000 
     71 CA         68.9690   39.2680  -78.9470 C.3      10 GLP5        0.0000 
@<TRIPOS>BOND
@<TRIPOS>SUBSTRUCTURE
     1 ALC1       41 GROUP        1 X    ALC  0     ROOT ALC X 1
     2 SEC2        4 GROUP        1 X    SEC  0     **** SEC X 2
     3 LYC4        1 GROUP        1 X    LYC  0     **** LYC X 4
     4 ZIC7        7 GROUP        1 X    ZIC  0     **** ZIC X 5
     5 GLC5       32 GROUP        1 X    GLC  0     **** GLC X 6
     6 ALP1       43 GROUP        1 Y    ALP  0     ROOT ALP Y 8
     7 SEP2        6 GROUP        1 Y    SEP  0     **** SEP Y 9
     8 LYP4        3 GROUP        1 Y    LYP  0     **** LYP Y 11
     9 ZIP7        9 GROUP        1 Y    ZIP  0     **** ZIP Y 12
    10 GLP5       34 GROUP        1 Y    GLP  0     **** GLP Y 13
    11 ALL1       42 GROUP        1 Z    ALL  0     ROOT ALL Z 15
    12 SEL2        5 GROUP        1 Z    SEL  0     **** SEL Z 16
    13 LYL4        2 GROUP        1 Z    LYL  0     **** LYL Z 18
    14 ZIL7        8 GROUP        1 Z    ZIL  0     **** ZIL Z 19
    15 GLL5       33 GROUP        1 Z    GLL  0     **** GLL Z 20
@<TRIPOS>SET

