#    Name: 3c7k_GDP_2_ligand
#    Modification time : Mon Mar 24 20:34:07 2014

@<TRIPOS>MOLECULE
3c7k_GDP_2_ligand
   40    42     1     0     0
SMALL
NO_CHARGES


@<TRIPOS>ATOM
      1 PB         78.0070   38.5510  -73.3760 P.3       1 GDP361      0.0000 
      2 O1B        78.8630   37.4650  -74.1080 O.co2     1 GDP361      0.0000 
      3 O2B        77.2920   38.2990  -72.1180 O.co2     1 GDP361      0.0000 
      4 O3B        78.8730   39.9130  -73.1570 O.co2     1 GDP361      0.0000 
      5 O3A        77.0750   39.2820  -74.4550 O.3       1 GDP361      0.0000 
      6 PA         75.5450   39.7120  -74.0620 P.3       1 GDP361      0.0000 
      7 O1A        74.7850   38.3450  -73.9320 O.co2     1 GDP361      0.0000 
      8 O2A        75.6610   40.5270  -72.6710 O.co2     1 GDP361      0.0000 
      9 O5'        75.1930   40.4750  -75.4080 O.3       1 GDP361      0.0000 
     10 C5'        75.5010   41.8990  -75.4770 C.3       1 GDP361      0.0000 
     11 C4'        74.4370   42.6940  -76.0140 C.3       1 GDP361      0.0000 
     12 O4'        74.2260   42.1800  -77.3940 O.3       1 GDP361      0.0000 
     13 C3'        73.0430   42.4390  -75.3460 C.3       1 GDP361      0.0000 
     14 O3'        72.3390   43.7390  -75.4120 O.3       1 GDP361      0.0000 
     15 C2'        72.2740   41.4020  -76.2100 C.3       1 GDP361      0.0000 
     16 O2'        70.8390   41.4890  -76.2630 O.3       1 GDP361      0.0000 
     17 C1'        72.8790   41.6170  -77.6260 C.3       1 GDP361      0.0000 
     18 N9         73.0710   40.3910  -78.4480 N.pl3     1 GDP361      0.0000 
     19 C8         73.8440   39.2220  -77.9020 C.2       1 GDP361      0.0000 
     20 N7         73.6780   38.4720  -79.0860 N.2       1 GDP361      0.0000 
     21 C5         73.0040   38.9670  -80.1180 C.2       1 GDP361      0.0000 
     22 C6         72.5570   38.7490  -81.4180 C.2       1 GDP361      0.0000 
     23 O6         72.8830   37.5840  -81.9500 O.2       1 GDP361      0.0000 
     24 N1         71.8360   39.6180  -82.1490 N.am      1 GDP361      0.0000 
     25 C2         71.4890   40.9210  -81.5420 C.2       1 GDP361      0.0000 
     26 N2         70.7920   41.6050  -82.4150 N.pl3     1 GDP361      0.0000 
     27 N3         71.8660   41.1810  -80.3830 N.2       1 GDP361      0.0000 
     28 C4         72.5870   40.2760  -79.6930 C.2       1 GDP361      0.0000 
     29 H          76.4305   42.0418  -76.0844 H         1 GDP361      0.0000 
     30 H          75.7729   42.2631  -74.4539 H         1 GDP361      0.0000 
     31 H          74.6216   43.7135  -76.0475 H         1 GDP361      0.0000 
     32 H          73.1747   42.1014  -74.3850 H         1 GDP361      0.0000 
     33 H          72.6256   40.4145  -75.9039 H         1 GDP361      0.0000 
     34 H          72.2917   42.3430  -78.1437 H         1 GDP361      0.0000 
     35 H          74.2053   39.1235  -77.1695 H         1 GDP361      0.0000 
     36 H          71.5117   39.4443  -83.0896 H         1 GDP361      0.0000 
     37 H          70.5831   41.1381  -83.2743 H         1 GDP361      0.0000 
     38 H          70.5326   42.5315  -82.1423 H         1 GDP361      0.0000 
     39 H          71.5439   43.6332  -74.8149 H         1 GDP361      0.0000 
     40 H          70.5154   40.8581  -75.5578 H         1 GDP361      0.0000 
@<TRIPOS>BOND
     1    2    1 ar   
     2    3    1 ar   
     3    4    1 ar   
     4    5    1 1    
     5    6    5 1    
     6    7    6 ar   
     7    8    6 ar   
     8    9    6 1    
     9   10    9 1    
    10   11   10 1    
    11   29   10 1    
    12   30   10 1    
    13   12   11 1    
    14   13   11 1    
    15   31   11 1    
    16   17   12 1    
    17   14   13 1    
    18   15   13 1    
    19   32   13 1    
    20   39   14 1    
    21   16   15 1    
    22   17   15 1    
    23   33   15 1    
    24   40   16 1    
    25   18   17 1    
    26   34   17 1    
    27   19   18 1    
    28   28   18 1    
    29   20   19 2    
    30   35   19 1    
    31   21   20 1    
    32   22   21 1    
    33   28   21 2    
    34   23   22 2    
    35   24   22 am   
    36   25   24 1    
    37   36   24 1    
    38   26   25 1    
    39   27   25 2    
    40   37   26 1    
    41   38   26 1    
    42   28   27 1    
@<TRIPOS>SUBSTRUCTURE
     1 GDP361      1 GROUP   
@<TRIPOS>SET

