#    Name: 4eqg_A5A_1_INTS_M
#    Modification time : Mon Mar 24 18:24:39 2014

@<TRIPOS>MOLECULE
4eqg_A5A_1_INTS_M
   59     0     9     0     0
SMALL
NO_CHARGES


@<TRIPOS>ATOM
      1 CA         32.0370    9.6470   24.2000 C.3       3 GLC5        0.0000 
      2 CA         33.1630    8.1420   25.2570 C.3       9 GLL5        0.0000 
      3 CA         30.9110   11.1520   23.1430 C.3       6 GLP5        0.0000 
      4 O          33.4515    4.9265   25.4310 O.2       1 ALC1        0.0000 
      5 O          32.6580    5.1360   24.2970 O.2       7 ALL1        0.0000 
      6 O          34.2450    4.7170   26.5650 O.2       4 ALP1        0.0000 
      7 N          30.9925    4.4195   21.6090 N.am      2 SEC2        0.0000 
      8 N          31.1820    3.7000   22.8280 N.am      8 SEL2        0.0000 
      9 N          30.8030    5.1390   20.3900 N.am      5 SEP2        0.0000 
     10 N          30.2835    2.6900   23.4980 N.am      2 SEC2        0.0000 
     11 N          29.3850    1.6800   24.1680 N.am      5 SEP2        0.0000 
     12 N          29.6130    4.0445   22.8710 N.am      2 SEC2        0.0000 
     13 N          28.0440    4.3890   22.9140 N.am      5 SEP2        0.0000 
     14 N          33.7035    2.9215   24.4820 N.am      2 SEC2        0.0000 
     15 N          32.2880    2.7010   24.6860 N.am      8 SEL2        0.0000 
     16 N          35.1190    3.1420   24.2780 N.am      5 SEP2        0.0000 
     17 N          33.2665    3.7090   25.6255 N.am      2 SEC2        0.0000 
     18 N          34.2450    4.7170   26.5650 N.am      5 SEP2        0.0000 
     19 N          33.3920    2.0630   25.5030 N.am      2 SEC2        0.0000 
     20 N          34.4960    1.4250   26.3200 N.am      5 SEP2        0.0000 
     21 N          29.9160    2.9600   24.6020 N.am      2 SEC2        0.0000 
     22 N          30.4470    4.2400   25.0360 N.am      8 SEL2        0.0000 
     23 N          29.2455    4.3145   23.9750 N.am      2 SEC2        0.0000 
     24 CA         31.6805    2.7800   27.6145 C.3       3 GLC5        0.0000 
     25 CA         30.4510    3.8740   26.4080 C.3       9 GLL5        0.0000 
     26 CA         32.9100    1.6860   28.8210 C.3       6 GLP5        0.0000 
     27 CA         30.2955    2.2410   25.3800 C.3       3 GLC5        0.0000 
     28 CA         30.1400    0.6080   24.3520 C.3       6 GLP5        0.0000 
     29 CA         27.6945    3.8130   27.5300 C.3       3 GLC5        0.0000 
     30 CA         29.3920    4.7300   27.0750 C.3       9 GLL5        0.0000 
     31 CA         25.9970    2.8960   27.9850 C.3       6 GLP5        0.0000 
     32 O          27.6100    6.8095   26.9335 O.2       1 ALC1        0.0000 
     33 O          28.7780    7.0060   26.4890 O.2       7 ALL1        0.0000 
     34 O          26.4420    6.6130   27.3780 O.2       4 ALP1        0.0000 
     35 O          28.1190    7.9670   28.9765 O.2       1 ALC1        0.0000 
     36 O          29.3930    7.7580   29.0800 O.2       7 ALL1        0.0000 
     37 O          26.8450    8.1760   28.8730 O.2       4 ALP1        0.0000 
     38 CA         27.5005    4.1355   28.6080 C.3       3 GLC5        0.0000 
     39 CA         29.0040    5.3750   29.2310 C.3       9 GLL5        0.0000 
     40 CA         30.5905    3.1940   32.7660 C.3       3 GLC5        0.0000 
     41 CA         29.1210    4.5030   32.7700 C.3       9 GLL5        0.0000 
     42 CA         32.0600    1.8850   32.7620 C.3       6 GLP5        0.0000 
     43 CA         27.5245    2.3900   34.1975 C.3       3 GLC5        0.0000 
     44 CA         28.3200    4.2560   33.9780 C.3       9 GLL5        0.0000 
     45 CA         26.7290    0.5240   34.4170 C.3       6 GLP5        0.0000 
     46 CA         25.3090    5.8730   31.3295 C.3       3 GLC5        0.0000 
     47 CA         26.3690    4.6950   32.6950 C.3       9 GLL5        0.0000 
     48 CA         24.2490    7.0510   29.9640 C.3       6 GLP5        0.0000 
     49 CA         26.8125    6.5350   33.1260 C.3       3 GLC5        0.0000 
     50 CA         27.2560    8.3750   33.5570 C.3       6 GLP5        0.0000 
     51 N          26.3705    6.4730   31.6220 N.am      2 SEC2        0.0000 
     52 N          27.0470    4.9340   31.5530 N.am      8 SEL2        0.0000 
     53 N          25.6940    8.0120   31.6910 N.am      5 SEP2        0.0000 
     54 CA         34.4440    6.1810   25.4088 C.3       3 GLC5        0.0000 
     55 CA         35.6130    4.5990   26.2160 C.3       6 GLP5        0.0000 
     56 CA         29.3847    2.5685   27.8128 C.3       3 GLC5        0.0000 
     57 CA         28.8480    0.8350   28.8840 C.3       6 GLP5        0.0000 
     58 CA         28.5694    6.4819   32.6273 C.3       3 GLC5        0.0000 
     59 CA         28.5810    8.3510   32.7930 C.3       6 GLP5        0.0000 
@<TRIPOS>BOND
@<TRIPOS>SUBSTRUCTURE
     1 ALC1        4 GROUP        1 X    ALC  0     ROOT ALC X 1
     2 SEC2        7 GROUP        1 X    SEC  0     **** SEC X 2
     3 GLC5        1 GROUP        1 X    GLC  0     **** GLC X 6
     4 ALP1        6 GROUP        1 Y    ALP  0     ROOT ALP Y 8
     5 SEP2        9 GROUP        1 Y    SEP  0     **** SEP Y 9
     6 GLP5        3 GROUP        1 Y    GLP  0     **** GLP Y 13
     7 ALL1        5 GROUP        1 Z    ALL  0     ROOT ALL Z 15
     8 SEL2        8 GROUP        1 Z    SEL  0     **** SEL Z 16
     9 GLL5        2 GROUP        1 Z    GLL  0     **** GLL Z 20
@<TRIPOS>SET

