#    Name: 4eqg_A5A_1_ligand
#    Modification time : Mon Mar 24 18:24:39 2014

@<TRIPOS>MOLECULE
4eqg_A5A_1_ligand
   48    50     1     0     0
SMALL
NO_CHARGES


@<TRIPOS>ATOM
      1 N          33.2980    8.2700   22.8000 N.4       1 A5A201      0.0000 
      2 CA         33.3870    7.3840   23.9460 C.3       1 A5A201      0.0000 
      3 CB         33.1630    8.1420   25.2570 C.3       1 A5A201      0.0000 
      4 C          32.3490    6.3210   23.7800 C.2       1 A5A201      0.0000 
      5 O          31.2950    6.5570   23.2020 O.2       1 A5A201      0.0000 
      6 N3S        32.6580    5.1360   24.2970 N.am      1 A5A201      0.0000 
      7 S          31.6630    3.8970   24.1570 S.o2      1 A5A201      0.0000 
      8 O1S        31.1820    3.7000   22.8280 O.2       1 A5A201      0.0000 
      9 O2S        32.2880    2.7010   24.6860 O.2       1 A5A201      0.0000 
     10 O5'        30.4470    4.2400   25.0360 O.3       1 A5A201      0.0000 
     11 C5'        30.4510    3.8740   26.4080 C.3       1 A5A201      0.0000 
     12 C4'        29.3920    4.7300   27.0750 C.3       1 A5A201      0.0000 
     13 O4'        29.2550    4.2490   28.4070 O.3       1 A5A201      0.0000 
     14 C3'        29.7760    6.2080   27.1570 C.3       1 A5A201      0.0000 
     15 O3'        28.7780    7.0060   26.4890 O.3       1 A5A201      0.0000 
     16 C2'        29.8720    6.4790   28.6580 C.3       1 A5A201      0.0000 
     17 O2'        29.3930    7.7580   29.0800 O.3       1 A5A201      0.0000 
     18 C1'        29.0040    5.3750   29.2310 C.3       1 A5A201      0.0000 
     19 N9         29.3280    5.0250   30.6230 N.pl3     1 A5A201      0.0000 
     20 C8         30.5440    4.8090   31.1490 C.2       1 A5A201      0.0000 
     21 N7         30.4350    4.4970   32.4640 N.2       1 A5A201      0.0000 
     22 C5         29.1210    4.5030   32.7700 C.ar      1 A5A201      0.0000 
     23 C6         28.3200    4.2560   33.9780 C.ar      1 A5A201      0.0000 
     24 N6         28.9380    3.9300   35.1420 N.pl3     1 A5A201      0.0000 
     25 N1         26.9760    4.3700   33.8650 N.ar      1 A5A201      0.0000 
     26 C2         26.3690    4.6950   32.6950 C.ar      1 A5A201      0.0000 
     27 N3         27.0470    4.9340   31.5530 N.ar      1 A5A201      0.0000 
     28 C4         28.3950    4.8460   31.5490 C.ar      1 A5A201      0.0000 
     29 H          34.3581    6.9149   23.9834 H         1 A5A201      0.0000 
     30 H          33.5070    4.9006   24.8063 H         1 A5A201      0.0000 
     31 H          31.4027    4.0800   26.8836 H         1 A5A201      0.0000 
     32 H          30.1875    2.8331   26.5545 H         1 A5A201      0.0000 
     33 H          28.4715    4.6360   26.5404 H         1 A5A201      0.0000 
     34 H          30.7485    6.3100   26.7316 H         1 A5A201      0.0000 
     35 H          30.8795    6.2744   28.9642 H         1 A5A201      0.0000 
     36 H          27.9755    5.6750   29.1424 H         1 A5A201      0.0000 
     37 H          31.3887    4.8663   30.6619 H         1 A5A201      0.0000 
     38 H          29.9359    3.8731   35.1095 H         1 A5A201      0.0000 
     39 H          28.3407    3.7755   35.9290 H         1 A5A201      0.0000 
     40 H          25.3089    4.7636   32.6813 H         1 A5A201      0.0000 
     41 H          32.9694    7.7919   21.9855 H         1 A5A201      0.0000 
     42 H          32.6706    9.0307   22.9665 H         1 A5A201      0.0000 
     43 H          34.1858    8.6677   22.5682 H         1 A5A201      0.0000 
     44 H          33.2186    7.5360   26.0505 H         1 A5A201      0.0000 
     45 H          33.8434    8.8626   25.3903 H         1 A5A201      0.0000 
     46 H          32.2640    8.5790   25.2844 H         1 A5A201      0.0000 
     47 H          27.9408    6.4607   26.5301 H         1 A5A201      0.0000 
     48 H          28.5741    7.9220   28.5299 H         1 A5A201      0.0000 
@<TRIPOS>BOND
     1    2    1 1    
     2   41    1 1    
     3   42    1 1    
     4   43    1 1    
     5    3    2 1    
     6    4    2 1    
     7   29    2 1    
     8   44    3 1    
     9   45    3 1    
    10   46    3 1    
    11    5    4 2    
    12    6    4 am   
    13    7    6 1    
    14   30    6 1    
    15    8    7 2    
    16    9    7 2    
    17   10    7 1    
    18   11   10 1    
    19   12   11 1    
    20   31   11 1    
    21   32   11 1    
    22   13   12 1    
    23   14   12 1    
    24   33   12 1    
    25   18   13 1    
    26   15   14 1    
    27   16   14 1    
    28   34   14 1    
    29   47   15 1    
    30   17   16 1    
    31   18   16 1    
    32   35   16 1    
    33   48   17 1    
    34   19   18 1    
    35   36   18 1    
    36   20   19 1    
    37   28   19 1    
    38   21   20 2    
    39   37   20 1    
    40   22   21 1    
    41   23   22 ar   
    42   28   22 ar   
    43   24   23 1    
    44   25   23 ar   
    45   38   24 1    
    46   39   24 1    
    47   26   25 ar   
    48   27   26 ar   
    49   40   26 1    
    50   28   27 ar   
@<TRIPOS>SUBSTRUCTURE
     1 A5A201      1 GROUP   
@<TRIPOS>SET

