#    Name: 1jsc_FAD_4_INTS_M
#    Modification time : Tue Mar 25 09:24:29 2014

@<TRIPOS>MOLECULE
1jsc_FAD_4_INTS_M
  104     0    12     0     0
SMALL
NO_CHARGES


@<TRIPOS>ATOM
      1 N          93.7465   96.2240  162.5235 N.am      2 SEC2        0.0000 
      2 N          93.8990   96.9720  163.8160 N.am     10 SEL2        0.0000 
      3 N          93.5940   95.4760  161.2310 N.am      6 SEP2        0.0000 
      4 NZ         90.1850   97.2155  162.7890 N.4       3 LYC4        0.0000 
      5 NZ         91.3490   97.1420  163.6550 N.4      11 LYL4        0.0000 
      6 NZ         87.7360   96.9580  162.0300 N.4       7 LYP4        0.0000 
      7 N          90.1850   97.2155  162.7890 N.am      2 SEC2        0.0000 
      8 N          91.3490   97.1420  163.6550 N.am     10 SEL2        0.0000 
      9 N          89.0210   97.2890  161.9230 N.am      6 SEP2        0.0000 
     10 O          93.4140  102.1125  158.5810 O.2       1 ALC1        0.0000 
     11 O          92.5530  101.2830  159.6590 O.2       9 ALL1        0.0000 
     12 O          94.2750  102.9420  157.5030 O.2       5 ALP1        0.0000 
     13 O          93.1780  102.7320  159.4540 O.2       1 ALC1        0.0000 
     14 O          93.8030  104.1810  159.2490 O.2       5 ALP1        0.0000 
     15 CA         95.8535   98.9170  159.1605 C.3       4 GLC5        0.0000 
     16 CA         94.8850  100.4460  159.9180 C.3      12 GLL5        0.0000 
     17 CA         96.8220   97.3880  158.4030 C.3       8 GLP5        0.0000 
     18 O          94.6265  101.6980  157.9990 O.2       1 ALC1        0.0000 
     19 O          94.9780  100.4540  158.4950 O.2       9 ALL1        0.0000 
     20 CA         95.6125  103.0795  162.2875 C.3       4 GLC5        0.0000 
     21 CA         95.4710  101.6630  160.5870 C.3      12 GLL5        0.0000 
     22 CA         95.7540  104.4960  163.9880 C.3       8 GLP5        0.0000 
     23 N          99.5890   99.7680  161.9910 N.am      2 SEC2        0.0000 
     24 N          99.0170  100.6940  161.0930 N.am     10 SEL2        0.0000 
     25 N         100.1610   98.8420  162.8890 N.am      6 SEP2        0.0000 
     26 CA         99.4915  103.2150  159.1110 C.3       4 GLC5        0.0000 
     27 CA        100.2460  103.0010  160.9350 C.3      12 GLL5        0.0000 
     28 CA         98.7370  103.4290  157.2870 C.3       8 GLP5        0.0000 
     29 CA        101.3430  104.6260  159.9780 C.3       4 GLC5        0.0000 
     30 CA        102.4400  106.2510  159.0210 C.3       8 GLP5        0.0000 
     31 O         102.5150  103.5420  161.1280 O.2       1 ALC1        0.0000 
     32 O         101.5070  102.5840  161.1190 O.2       9 ALL1        0.0000 
     33 O         103.5230  104.5000  161.1370 O.2       5 ALP1        0.0000 
     34 N         100.6205  105.6015  160.8910 N.am      2 SEC2        0.0000 
     35 N          99.9830  104.3540  160.7380 N.am     10 SEL2        0.0000 
     36 N         101.2580  106.8490  161.0440 N.am      6 SEP2        0.0000 
     37 CA         97.0590  105.7200  159.6040 C.3       4 GLC5        0.0000 
     38 CA         98.6700  104.7570  160.5490 C.3      12 GLL5        0.0000 
     39 CA         95.4480  106.6830  158.6590 C.3       8 GLP5        0.0000 
     40 CA         98.7035  104.0930  158.9180 C.3       4 GLC5        0.0000 
     41 CA        100.5550  105.5040  159.7850 C.3       4 GLC5        0.0000 
     42 CA         99.3050  105.8515  161.8190 C.3       4 GLC5        0.0000 
     43 CA         99.9400  106.9460  163.0890 C.3       8 GLP5        0.0000 
     44 CA         96.7790  103.5605  162.3555 C.3       4 GLC5        0.0000 
     45 CA         97.8040  102.6250  160.7230 C.3      12 GLL5        0.0000 
     46 N          89.0070   99.0810  171.3190 N.am      2 SEC2        0.0000 
     47 N          87.6460   99.5190  170.7460 N.am     10 SEL2        0.0000 
     48 N          90.3680   98.6430  171.8920 N.am      6 SEP2        0.0000 
     49 O          85.9535   99.9865  173.0550 O.2       1 ALC1        0.0000 
     50 O          85.8980   98.8930  172.1400 O.2       9 ALL1        0.0000 
     51 O          86.0090  101.0800  173.9700 O.2       5 ALP1        0.0000 
     52 N          83.0345   98.1725  174.3165 N.am      2 SEC2        0.0000 
     53 N          84.1530   98.1450  173.4940 N.am     10 SEL2        0.0000 
     54 N          81.9160   98.2000  175.1390 N.am      6 SEP2        0.0000 
     55 CA         82.6260   94.1895  174.0100 C.3       4 GLC5        0.0000 
     56 CA         83.4350   93.2940  172.3200 C.3      12 GLL5        0.0000 
     57 CA         81.8170   95.0850  175.7000 C.3       8 GLP5        0.0000 
     58 CA         84.3325   89.5620  168.7295 C.3       4 GLC5        0.0000 
     59 CA         84.5530   90.1650  170.1600 C.3      12 GLL5        0.0000 
     60 CA         84.1120   88.9590  167.2990 C.3       8 GLP5        0.0000 
     61 CA         87.5065   93.9150  171.1855 C.3       4 GLC5        0.0000 
     62 CA         85.3630   93.9810  170.7480 C.3      12 GLL5        0.0000 
     63 CA         89.6500   93.8490  171.6230 C.3       8 GLP5        0.0000 
     64 CA         88.4700   94.3750  170.4445 C.3       4 GLC5        0.0000 
     65 CA         87.2900   94.9010  169.2660 C.3      12 GLL5        0.0000 
     66 O          85.2505   95.5580  166.6065 O.2       1 ALC1        0.0000 
     67 O          85.9740   94.4920  167.2710 O.2       9 ALL1        0.0000 
     68 O          84.5270   96.6240  165.9420 O.2       5 ALP1        0.0000 
     69 O          88.3105   92.9250  166.7780 O.2       1 ALC1        0.0000 
     70 O          88.7290   94.6070  166.6210 O.2       9 ALL1        0.0000 
     71 O          87.8920   91.2430  166.9350 O.2       5 ALP1        0.0000 
     72 N          91.2960   99.3500  168.2435 N.am      2 SEC2        0.0000 
     73 N          90.7110   98.4470  166.9820 N.am     10 SEL2        0.0000 
     74 N          91.8810  100.2530  169.5050 N.am      6 SEP2        0.0000 
     75 N          90.5670  101.2910  164.2215 N.am      2 SEC2        0.0000 
     76 N          90.8930  100.1260  165.1630 N.am     10 SEL2        0.0000 
     77 N          90.2410  102.4560  163.2800 N.am      6 SEP2        0.0000 
     78 N          93.9625  100.3045  167.2535 N.am      2 SEC2        0.0000 
     79 N          92.4810  100.0890  167.1050 N.am     10 SEL2        0.0000 
     80 N          95.4440  100.5200  167.4020 N.am      6 SEP2        0.0000 
     81 N          92.1810  100.1710  168.3050 N.am      2 SEC2        0.0000 
     82 CA         92.9247  101.9033  163.4288 C.3       4 GLC5        0.0000 
     83 CA         93.8240   99.8720  162.8810 C.3      12 GLL5        0.0000 
     84 CA         92.1390  103.3940  164.4930 C.3       8 GLP5        0.0000 
     85 CA         91.5832  100.8555  161.2527 C.3       4 GLC5        0.0000 
     86 CA         93.5970  100.9530  161.8480 C.3      12 GLL5        0.0000 
     87 CA         89.6460  101.0140  161.3790 C.3       8 GLP5        0.0000 
     88 CA         96.5405  101.6062  158.8222 C.3       4 GLC5        0.0000 
     89 CA         97.9030  102.1580  157.3920 C.3       8 GLP5        0.0000 
     90 CA         98.1880  102.2553  159.1095 C.3       4 GLC5        0.0000 
     91 CA         99.1420  102.0800  160.9310 C.3      12 GLL5        0.0000 
     92 CA         98.4580  102.1449  162.5785 C.3       4 GLC5        0.0000 
     93 CA         98.1670  101.7070  164.3290 C.3       8 GLP5        0.0000 
     94 CA         84.6928   92.8900  173.5256 C.3       4 GLC5        0.0000 
     95 CA         84.3550   94.2980  171.8170 C.3      12 GLL5        0.0000 
     96 CA         85.7090   92.9200  175.1140 C.3       8 GLP5        0.0000 
     97 CA         83.5020   95.0272  170.4536 C.3       4 GLC5        0.0000 
     98 CA         82.3750   96.1660  169.4990 C.3       8 GLP5        0.0000 
     99 CA         86.3500   97.2037  166.3465 C.3       4 GLC5        0.0000 
    100 CA         86.8030   95.4590  167.9060 C.3      12 GLL5        0.0000 
    101 CA         85.3180   98.7680  165.2770 C.3       8 GLP5        0.0000 
    102 CA         91.0943   96.3420  167.6630 C.3       4 GLC5        0.0000 
    103 CA         88.9660   96.8780  167.4970 C.3      12 GLL5        0.0000 
    104 CA         92.8370   95.5060  168.3950 C.3       8 GLP5        0.0000 
@<TRIPOS>BOND
@<TRIPOS>SUBSTRUCTURE
     1 ALC1       10 GROUP        1 X    ALC  0     ROOT ALC X 1
     2 SEC2        1 GROUP        1 X    SEC  0     **** SEC X 2
     3 LYC4        4 GROUP        1 X    LYC  0     **** LYC X 4
     4 GLC5       15 GROUP        1 X    GLC  0     **** GLC X 6
     5 ALP1       12 GROUP        1 Y    ALP  0     ROOT ALP Y 8
     6 SEP2        3 GROUP        1 Y    SEP  0     **** SEP Y 9
     7 LYP4        6 GROUP        1 Y    LYP  0     **** LYP Y 11
     8 GLP5       17 GROUP        1 Y    GLP  0     **** GLP Y 13
     9 ALL1       11 GROUP        1 Z    ALL  0     ROOT ALL Z 15
    10 SEL2        2 GROUP        1 Z    SEL  0     **** SEL Z 16
    11 LYL4        5 GROUP        1 Z    LYL  0     **** LYL Z 18
    12 GLL5       16 GROUP        1 Z    GLL  0     **** GLL Z 20
@<TRIPOS>SET

