#    Name: 1jsc_FAD_4_ligand
#    Modification time : Tue Mar 25 09:24:29 2014

@<TRIPOS>MOLECULE
1jsc_FAD_4_ligand
   84    89     1     0     0
SMALL
NO_CHARGES


@<TRIPOS>ATOM
      1 PA         92.6360   97.7980  163.9020 P.3       1 FAD1701     0.0000 
      2 O1A        93.8990   96.9720  163.8160 O.co2     1 FAD1701     0.0000 
      3 O2A        91.3490   97.1420  163.6550 O.co2     1 FAD1701     0.0000 
      4 O5B        92.6420   98.9860  162.9230 O.3       1 FAD1701     0.0000 
      5 C5B        93.8240   99.8720  162.8810 C.3       1 FAD1701     0.0000 
      6 C4B        93.5970  100.9530  161.8480 C.3       1 FAD1701     0.0000 
      7 O4B        94.8360  101.7030  161.8850 O.3       1 FAD1701     0.0000 
      8 C3B        93.4440  100.4410  160.4050 C.3       1 FAD1701     0.0000 
      9 O3B        92.5530  101.2830  159.6590 O.3       1 FAD1701     0.0000 
     10 C2B        94.8850  100.4460  159.9180 C.3       1 FAD1701     0.0000 
     11 O2B        94.9780  100.4540  158.4950 O.3       1 FAD1701     0.0000 
     12 C1B        95.4710  101.6630  160.5870 C.3       1 FAD1701     0.0000 
     13 N9A        96.9340  101.5450  160.7620 N.pl3     1 FAD1701     0.0000 
     14 C8A        97.7350  100.4060  160.9920 C.2       1 FAD1701     0.0000 
     15 N7A        99.0170  100.6940  161.0930 N.2       1 FAD1701     0.0000 
     16 C5A        99.1420  102.0800  160.9310 C.ar      1 FAD1701     0.0000 
     17 C6A       100.2460  103.0010  160.9350 C.ar      1 FAD1701     0.0000 
     18 N6A       101.5070  102.5840  161.1190 N.pl3     1 FAD1701     0.0000 
     19 N1A        99.9830  104.3540  160.7380 N.ar      1 FAD1701     0.0000 
     20 C2A        98.6700  104.7570  160.5490 C.ar      1 FAD1701     0.0000 
     21 N3A        97.5320  103.9800  160.5230 N.ar      1 FAD1701     0.0000 
     22 C4A        97.8040  102.6250  160.7230 C.ar      1 FAD1701     0.0000 
     23 N1         86.9570   97.4040  170.5510 N.2       1 FAD1701     0.0000 
     24 C2         86.8590   98.6300  171.1300 C.2       1 FAD1701     0.0000 
     25 O2         87.6460   99.5190  170.7460 O.2       1 FAD1701     0.0000 
     26 N3         85.8980   98.8930  172.1400 N.am      1 FAD1701     0.0000 
     27 C4         84.9890   97.8980  172.6020 C.2       1 FAD1701     0.0000 
     28 O4         84.1530   98.1450  173.4940 O.2       1 FAD1701     0.0000 
     29 C4X        85.1030   96.5820  171.9780 C.2       1 FAD1701     0.0000 
     30 N5         84.2670   95.5690  172.3780 N.2       1 FAD1701     0.0000 
     31 C5X        84.3550   94.2980  171.8170 C.ar      1 FAD1701     0.0000 
     32 C6         83.4350   93.2940  172.3200 C.ar      1 FAD1701     0.0000 
     33 C7         83.4580   91.9240  171.8060 C.ar      1 FAD1701     0.0000 
     34 C7M        82.4320   90.8810  172.4030 C.3       1 FAD1701     0.0000 
     35 C8         84.4690   91.5770  170.7300 C.ar      1 FAD1701     0.0000 
     36 C8M        84.5530   90.1650  170.1600 C.3       1 FAD1701     0.0000 
     37 C9         85.3920   92.6050  170.2240 C.ar      1 FAD1701     0.0000 
     38 C9A        85.3630   93.9810  170.7480 C.ar      1 FAD1701     0.0000 
     39 N10        86.2330   95.0770  170.3320 N.pl3     1 FAD1701     0.0000 
     40 C10        86.1170   96.3660  170.9360 C.2       1 FAD1701     0.0000 
     41 C1'        87.2900   94.9010  169.2660 C.3       1 FAD1701     0.0000 
     42 C2'        86.8030   95.4590  167.9060 C.3       1 FAD1701     0.0000 
     43 O2'        85.9740   94.4920  167.2710 O.3       1 FAD1701     0.0000 
     44 C3'        87.9610   95.8200  166.9260 C.3       1 FAD1701     0.0000 
     45 O3'        88.7290   94.6070  166.6210 O.3       1 FAD1701     0.0000 
     46 C4'        88.9660   96.8780  167.4970 C.3       1 FAD1701     0.0000 
     47 O4'        88.2330   97.9570  168.1960 O.3       1 FAD1701     0.0000 
     48 C5'        89.7370   97.4780  166.3650 C.3       1 FAD1701     0.0000 
     49 O5'        90.7110   98.4470  166.9820 O.3       1 FAD1701     0.0000 
     50 P          91.7060   99.3290  166.1350 P.3       1 FAD1701     0.0000 
     51 O1P        90.8930  100.1260  165.1630 O.co2     1 FAD1701     0.0000 
     52 O2P        92.4810  100.0890  167.1050 O.co2     1 FAD1701     0.0000 
     53 O3P        92.6680   98.3900  165.3640 O.3       1 FAD1701     0.0000 
     54 H          94.7139   99.3051  162.6112 H         1 FAD1701     0.0000 
     55 H          93.9838  100.3378  163.8524 H         1 FAD1701     0.0000 
     56 H          92.7896  101.5618  162.1164 H         1 FAD1701     0.0000 
     57 H          93.1191   99.4239  160.4745 H         1 FAD1701     0.0000 
     58 H          95.3613   99.5734  160.3617 H         1 FAD1701     0.0000 
     59 H          95.2162  102.5258  160.0233 H         1 FAD1701     0.0000 
     60 H          97.3291   99.5062  161.0623 H         1 FAD1701     0.0000 
     61 H         102.2135  103.2909  161.0855 H         1 FAD1701     0.0000 
     62 H         101.6281  101.6034  161.2733 H         1 FAD1701     0.0000 
     63 H          98.5216  105.8273  160.4023 H         1 FAD1701     0.0000 
     64 H          85.8538   99.8384  172.5567 H         1 FAD1701     0.0000 
     65 H          82.7641   93.5408  173.0387 H         1 FAD1701     0.0000 
     66 H          86.0580   92.3632  169.5041 H         1 FAD1701     0.0000 
     67 H          87.5216   93.8442  169.1427 H         1 FAD1701     0.0000 
     68 H          88.1978   95.4303  169.5513 H         1 FAD1701     0.0000 
     69 H          86.2437   96.3699  168.0969 H         1 FAD1701     0.0000 
     70 H          87.5364   96.2190  166.0214 H         1 FAD1701     0.0000 
     71 H          89.6297   96.3775  168.1637 H         1 FAD1701     0.0000 
     72 H          89.0722   98.0048  165.7023 H         1 FAD1701     0.0000 
     73 H          90.2752   96.7106  165.8357 H         1 FAD1701     0.0000 
     74 H          82.5356   89.9779  171.9862 H         1 FAD1701     0.0000 
     75 H          82.5522   90.7644  173.3889 H         1 FAD1701     0.0000 
     76 H          81.4848   91.1653  172.2548 H         1 FAD1701     0.0000 
     77 H          85.2638   90.0884  169.4608 H         1 FAD1701     0.0000 
     78 H          84.7642   89.4908  170.8677 H         1 FAD1701     0.0000 
     79 H          83.6924   89.8842  169.7351 H         1 FAD1701     0.0000 
     80 H          93.0296  102.1586  159.5805 H         1 FAD1701     0.0000 
     81 H          94.7255  101.3830  158.2245 H         1 FAD1701     0.0000 
     82 H          85.3277   95.0244  166.7243 H         1 FAD1701     0.0000 
     83 H          88.0902   93.8521  166.7701 H         1 FAD1701     0.0000 
     84 H          87.9865   97.5690  169.0841 H         1 FAD1701     0.0000 
@<TRIPOS>BOND
     1    2    1 ar   
     2    3    1 ar   
     3    4    1 1    
     4   53    1 1    
     5    5    4 1    
     6    6    5 1    
     7   54    5 1    
     8   55    5 1    
     9    7    6 1    
    10    8    6 1    
    11   56    6 1    
    12   12    7 1    
    13    9    8 1    
    14   10    8 1    
    15   57    8 1    
    16   80    9 1    
    17   11   10 1    
    18   12   10 1    
    19   58   10 1    
    20   81   11 1    
    21   13   12 1    
    22   59   12 1    
    23   14   13 1    
    24   22   13 1    
    25   15   14 2    
    26   60   14 1    
    27   16   15 1    
    28   17   16 ar   
    29   22   16 ar   
    30   18   17 1    
    31   19   17 ar   
    32   61   18 1    
    33   62   18 1    
    34   20   19 ar   
    35   21   20 ar   
    36   63   20 1    
    37   22   21 ar   
    38   24   23 1    
    39   40   23 2    
    40   25   24 2    
    41   26   24 am   
    42   27   26 am   
    43   64   26 1    
    44   28   27 2    
    45   29   27 1    
    46   30   29 2    
    47   40   29 1    
    48   31   30 1    
    49   32   31 ar   
    50   38   31 ar   
    51   33   32 ar   
    52   65   32 1    
    53   34   33 1    
    54   35   33 ar   
    55   74   34 1    
    56   75   34 1    
    57   76   34 1    
    58   36   35 1    
    59   37   35 ar   
    60   77   36 1    
    61   78   36 1    
    62   79   36 1    
    63   38   37 ar   
    64   66   37 1    
    65   39   38 1    
    66   40   39 1    
    67   41   39 1    
    68   42   41 1    
    69   67   41 1    
    70   68   41 1    
    71   43   42 1    
    72   44   42 1    
    73   69   42 1    
    74   82   43 1    
    75   45   44 1    
    76   46   44 1    
    77   70   44 1    
    78   83   45 1    
    79   47   46 1    
    80   48   46 1    
    81   71   46 1    
    82   84   47 1    
    83   49   48 1    
    84   72   48 1    
    85   73   48 1    
    86   50   49 1    
    87   51   50 ar   
    88   52   50 ar   
    89   53   50 1    
@<TRIPOS>SUBSTRUCTURE
     1 FAD1701     1 GROUP   
@<TRIPOS>SET

