#    Name: 2vr1_ATF_1_INTS_M
#    Modification time : Tue Mar 25 02:49:16 2014

@<TRIPOS>MOLECULE
2vr1_ATF_1_INTS_M
   54     0    12     0     0
SMALL
NO_CHARGES


@<TRIPOS>ATOM
      1 N          13.9910  -23.1245   23.7155 N.am      2 SEC2        0.0000 
      2 N          14.5430  -22.1760   22.5800 N.am     10 SEL2        0.0000 
      3 N          13.4390  -24.0730   24.8510 N.am      6 SEP2        0.0000 
      4 N          11.8400  -24.5465   20.1050 N.am      2 SEC2        0.0000 
      5 N          11.7050  -23.4890   19.0360 N.am     10 SEL2        0.0000 
      6 N          11.9750  -25.6040   21.1740 N.am      6 SEP2        0.0000 
      7 CA         12.7050  -25.1480   22.0205 C.3       4 GLC5        0.0000 
      8 CA         11.8480  -23.1210   22.0190 C.3      12 GLL5        0.0000 
      9 CA         13.5620  -27.1750   22.0220 C.3       8 GLP5        0.0000 
     10 NZ          8.3975  -25.2890   18.4460 N.4       3 LYC4        0.0000 
     11 NZ          8.4640  -23.8870   18.9420 N.4      11 LYL4        0.0000 
     12 NZ          8.3310  -26.6910   17.9500 N.4       7 LYP4        0.0000 
     13 N           8.3975  -25.2890   18.4460 N.am      2 SEC2        0.0000 
     14 N           8.4640  -23.8870   18.9420 N.am     10 SEL2        0.0000 
     15 N           8.3310  -26.6910   17.9500 N.am      6 SEP2        0.0000 
     16 CA          8.5315  -23.9635   24.1675 C.3       4 GLC5        0.0000 
     17 CA          8.0490  -22.5240   22.5430 C.3      12 GLL5        0.0000 
     18 CA          9.0140  -25.4030   25.7920 C.3       8 GLP5        0.0000 
     19 CA          5.1130  -22.1540   21.6735 C.3       4 GLC5        0.0000 
     20 CA          6.8610  -21.6620   22.9720 C.3      12 GLL5        0.0000 
     21 CA          3.3650  -22.6460   20.3750 C.3       8 GLP5        0.0000 
     22 CA          5.6760  -22.7515   26.5810 C.3       4 GLC5        0.0000 
     23 CA          5.1820  -21.6690   24.6750 C.3      12 GLL5        0.0000 
     24 CA          6.1700  -23.8340   28.4870 C.3       8 GLP5        0.0000 
     25 CA          4.4210  -20.7930   26.1055 C.3       4 GLC5        0.0000 
     26 CA          3.6600  -19.9170   27.5360 C.3       8 GLP5        0.0000 
     27 CA          3.9945  -22.4740   21.8935 C.3       4 GLC5        0.0000 
     28 CA          4.6240  -22.3020   23.4120 C.3      12 GLL5        0.0000 
     29 CA          3.8210  -26.3405   22.5210 C.3       4 GLC5        0.0000 
     30 CA          3.1080  -25.5760   24.2290 C.3      12 GLL5        0.0000 
     31 CA          4.5340  -27.1050   20.8130 C.3       8 GLP5        0.0000 
     32 CA          1.0240  -26.9690   23.2650 C.3       4 GLC5        0.0000 
     33 CA          2.0040  -26.2810   24.9180 C.3      12 GLL5        0.0000 
     34 CA          0.0440  -27.6570   21.6120 C.3       8 GLP5        0.0000 
     35 CA         -0.1080  -26.7865   25.0770 C.3       4 GLC5        0.0000 
     36 CA         -2.2200  -27.2920   25.2360 C.3       8 GLP5        0.0000 
     37 O           2.8525  -28.6215   24.0385 O.2       1 ALC1        0.0000 
     38 O           1.9250  -27.6320   24.8860 O.2       9 ALL1        0.0000 
     39 O           3.7800  -29.6110   23.1910 O.2       5 ALP1        0.0000 
     40 O           0.7765  -28.5040   25.0445 O.2       1 ALC1        0.0000 
     41 O          -0.3720  -29.3760   25.2030 O.2       5 ALP1        0.0000 
     42 N          -0.1130  -25.8785   26.4050 N.am      2 SEC2        0.0000 
     43 N           1.0890  -25.5280   25.5760 N.am     10 SEL2        0.0000 
     44 N          -1.3150  -26.2290   27.2340 N.am      6 SEP2        0.0000 
     45 CA         -0.0725  -24.9465   27.1065 C.3       4 GLC5        0.0000 
     46 CA          1.1720  -24.1820   25.6100 C.3      12 GLL5        0.0000 
     47 CA         -1.3170  -25.7110   28.6030 C.3       8 GLP5        0.0000 
     48 CA          2.8120  -24.7450   26.5545 C.3       4 GLC5        0.0000 
     49 CA          4.4520  -25.3080   27.4990 C.3       8 GLP5        0.0000 
     50 CA          3.2480  -23.3775   22.3405 C.3       4 GLC5        0.0000 
     51 CA          3.1310  -24.1090   24.3060 C.3      12 GLL5        0.0000 
     52 CA          1.8393  -24.7503   22.4772 C.3       4 GLC5        0.0000 
     53 CA          0.5590  -24.6580   20.6870 C.3       8 GLP5        0.0000 
     54 CA          3.6478  -25.1634   25.9694 C.3       4 GLC5        0.0000 
@<TRIPOS>BOND
@<TRIPOS>SUBSTRUCTURE
     1 ALC1       37 GROUP        1 X    ALC  0     ROOT ALC X 1
     2 SEC2        1 GROUP        1 X    SEC  0     **** SEC X 2
     3 LYC4       10 GROUP        1 X    LYC  0     **** LYC X 4
     4 GLC5        7 GROUP        1 X    GLC  0     **** GLC X 6
     5 ALP1       39 GROUP        1 Y    ALP  0     ROOT ALP Y 8
     6 SEP2        3 GROUP        1 Y    SEP  0     **** SEP Y 9
     7 LYP4       12 GROUP        1 Y    LYP  0     **** LYP Y 11
     8 GLP5        9 GROUP        1 Y    GLP  0     **** GLP Y 13
     9 ALL1       38 GROUP        1 Z    ALL  0     ROOT ALL Z 15
    10 SEL2        2 GROUP        1 Z    SEL  0     **** SEL Z 16
    11 LYL4       11 GROUP        1 Z    LYL  0     **** LYL Z 18
    12 GLL5        8 GROUP        1 Z    GLL  0     **** GLL Z 20
@<TRIPOS>SET

