#    Name: 2vr1_ATF_1_ligand
#    Modification time : Tue Mar 25 02:49:16 2014

@<TRIPOS>MOLECULE
2vr1_ATF_1_ligand
   45    47     1     0     0
SMALL
NO_CHARGES


@<TRIPOS>ATOM
      1 PG         14.0620  -22.0970   21.1520 P.3       1 ATF1448     0.0000 
      2 O1G        14.5430  -22.1760   22.5800 O.co2     1 ATF1448     0.0000 
      3 O2G        14.3960  -23.3130   20.3240 O.co2     1 ATF1448     0.0000 
      4 O3G        14.4170  -20.8030   20.4620 O.co2     1 ATF1448     0.0000 
      5 PB         11.4550  -22.1370   19.6690 P.3       1 ATF1448     0.0000 
      6 O1B        11.8600  -20.9080   18.8860 O.co2     1 ATF1448     0.0000 
      7 O2B        11.7050  -23.4890   19.0360 O.co2     1 ATF1448     0.0000 
      8 C3B        12.2490  -22.0860   21.3050 C.3       1 ATF1448     0.0000 
      9 F1B        11.8480  -23.1210   22.0190 F         1 ATF1448     0.0000 
     10 F2B        11.8740  -20.9960   21.9460 F         1 ATF1448     0.0000 
     11 PA          9.0410  -23.3620   20.2350 P.3       1 ATF1448     0.0000 
     12 O1A         9.8350  -24.2650   21.1430 O.co2     1 ATF1448     0.0000 
     13 O2A         8.4640  -23.8870   18.9420 O.co2     1 ATF1448     0.0000 
     14 O3A         9.8710  -22.0320   19.9010 O.3       1 ATF1448     0.0000 
     15 O5'         7.8600  -22.7570   21.1300 O.3       1 ATF1448     0.0000 
     16 C5'         8.0490  -22.5240   22.5430 C.3       1 ATF1448     0.0000 
     17 C4'         6.8610  -21.6620   22.9720 C.3       1 ATF1448     0.0000 
     18 O4'         5.6540  -22.2190   22.4290 O.3       1 ATF1448     0.0000 
     19 C3'         6.6790  -21.5640   24.4810 C.3       1 ATF1448     0.0000 
     20 O3'         7.1720  -20.3100   24.9630 O.3       1 ATF1448     0.0000 
     21 C2'         5.1820  -21.6690   24.6750 C.3       1 ATF1448     0.0000 
     22 O2'         4.6140  -20.3660   24.7850 O.3       1 ATF1448     0.0000 
     23 C1'         4.6240  -22.3020   23.4120 C.3       1 ATF1448     0.0000 
     24 N9          4.2090  -23.7140   23.6170 N.pl3     1 ATF1448     0.0000 
     25 C8          4.8300  -24.8010   23.1280 C.2       1 ATF1448     0.0000 
     26 N7          4.1730  -25.9300   23.4980 N.2       1 ATF1448     0.0000 
     27 C5          3.1080  -25.5760   24.2290 C.ar      1 ATF1448     0.0000 
     28 C6          2.0040  -26.2810   24.9180 C.ar      1 ATF1448     0.0000 
     29 N6          1.9250  -27.6320   24.8860 N.pl3     1 ATF1448     0.0000 
     30 N1          1.0890  -25.5280   25.5760 N.ar      1 ATF1448     0.0000 
     31 C2          1.1720  -24.1820   25.6100 C.ar      1 ATF1448     0.0000 
     32 N3          2.1490  -23.4820   25.0030 N.ar      1 ATF1448     0.0000 
     33 C4          3.1310  -24.1090   24.3060 C.ar      1 ATF1448     0.0000 
     34 H           8.9541  -21.9768   22.7409 H         1 ATF1448     0.0000 
     35 H           8.0243  -23.4403   23.1066 H         1 ATF1448     0.0000 
     36 H           7.0059  -20.6583   22.5822 H         1 ATF1448     0.0000 
     37 H           7.1424  -22.4030   24.9291 H         1 ATF1448     0.0000 
     38 H           4.9675  -22.2876   25.4949 H         1 ATF1448     0.0000 
     39 H           3.7681  -21.7113   23.1010 H         1 ATF1448     0.0000 
     40 H           5.6415  -24.7885   22.5816 H         1 ATF1448     0.0000 
     41 H           2.6537  -28.1037   24.3895 H         1 ATF1448     0.0000 
     42 H           1.1450  -28.0385   25.3617 H         1 ATF1448     0.0000 
     43 H           0.4232  -23.6445   26.1466 H         1 ATF1448     0.0000 
     44 H           7.7732  -20.5447   25.7269 H         1 ATF1448     0.0000 
     45 H           5.3646  -19.7818   25.0936 H         1 ATF1448     0.0000 
@<TRIPOS>BOND
     1    2    1 ar   
     2    3    1 ar   
     3    4    1 ar   
     4    8    1 1    
     5    6    5 ar   
     6    7    5 ar   
     7    8    5 1    
     8   14    5 1    
     9    9    8 1    
    10   10    8 1    
    11   12   11 ar   
    12   13   11 ar   
    13   14   11 1    
    14   15   11 1    
    15   16   15 1    
    16   17   16 1    
    17   34   16 1    
    18   35   16 1    
    19   18   17 1    
    20   19   17 1    
    21   36   17 1    
    22   23   18 1    
    23   20   19 1    
    24   21   19 1    
    25   37   19 1    
    26   44   20 1    
    27   22   21 1    
    28   23   21 1    
    29   38   21 1    
    30   45   22 1    
    31   24   23 1    
    32   39   23 1    
    33   25   24 1    
    34   33   24 1    
    35   26   25 2    
    36   40   25 1    
    37   27   26 1    
    38   28   27 ar   
    39   33   27 ar   
    40   29   28 1    
    41   30   28 ar   
    42   41   29 1    
    43   42   29 1    
    44   31   30 ar   
    45   32   31 ar   
    46   43   31 1    
    47   33   32 ar   
@<TRIPOS>SUBSTRUCTURE
     1 ATF1448     1 GROUP   
@<TRIPOS>SET

