#    Name: 3k5e_K5E_2_INTS_M
#    Modification time : Mon Mar 24 18:23:46 2014

@<TRIPOS>MOLECULE
3k5e_K5E_2_INTS_M
   55     0     6     0     0
SMALL
NO_CHARGES


@<TRIPOS>ATOM
      1 CA         25.3530   25.5855   31.8215 C.3       2 GLC5        0.0000 
      2 CA         25.1550   25.0500   30.0620 C.3       6 GLL5        0.0000 
      3 CA         25.5510   26.1210   33.5810 C.3       4 GLP5        0.0000 
      4 CA         26.5875   26.4505   30.4845 C.3       2 GLC5        0.0000 
      5 CA         28.0200   27.8510   30.9070 C.3       4 GLP5        0.0000 
      6 CA         25.7190   23.6920   31.4045 C.3       2 GLC5        0.0000 
      7 CA         26.2830   22.3340   32.7470 C.3       4 GLP5        0.0000 
      8 CA         32.8375   26.6595   25.4105 C.3       2 GLC5        0.0000 
      9 CA         30.8730   26.0390   26.1950 C.3       6 GLL5        0.0000 
     10 CA         34.8020   27.2800   24.6260 C.3       4 GLP5        0.0000 
     11 O          26.7255   26.7170   27.8385 O.2       1 ALC1        0.0000 
     12 O          26.5510   25.3020   27.9550 O.2       5 ALL1        0.0000 
     13 O          26.9000   28.1320   27.7220 O.2       3 ALP1        0.0000 
     14 O          30.8925   27.0800   24.2070 O.2       1 ALC1        0.0000 
     15 O          31.6280   26.7630   25.2930 O.2       5 ALL1        0.0000 
     16 O          30.1570   27.3970   23.1210 O.2       3 ALP1        0.0000 
     17 CA         30.4265   25.6915   29.6280 C.3       2 GLC5        0.0000 
     18 CA         30.7410   24.7440   28.2310 C.3       6 GLL5        0.0000 
     19 CA         30.1120   26.6390   31.0250 C.3       4 GLP5        0.0000 
     20 CA         28.8940   23.6675   29.7895 C.3       2 GLC5        0.0000 
     21 CA         29.3620   24.5570   28.0190 C.3       6 GLL5        0.0000 
     22 CA         28.4260   22.7780   31.5600 C.3       4 GLP5        0.0000 
     23 CA         28.6645   26.4920   24.2920 C.3       2 GLC5        0.0000 
     24 CA         29.4880   25.8600   26.0040 C.3       6 GLL5        0.0000 
     25 CA         27.8410   27.1240   22.5800 C.3       4 GLP5        0.0000 
     26 CA         30.1340   27.7320   26.3645 C.3       2 GLC5        0.0000 
     27 CA         30.7800   29.6040   26.7250 C.3       4 GLP5        0.0000 
     28 CA         25.4930   26.1445   27.2100 C.3       2 GLC5        0.0000 
     29 CA         27.2390   24.9290   26.7070 C.3       6 GLL5        0.0000 
     30 CA         23.7470   27.3600   27.7130 C.3       4 GLP5        0.0000 
     31 CA         27.1095   23.6320   30.1325 C.3       2 GLC5        0.0000 
     32 CA         25.7930   24.4860   28.7050 C.3       6 GLL5        0.0000 
     33 CA         29.3985   23.2055   24.5465 C.3       2 GLC5        0.0000 
     34 CA         27.5120   22.9410   25.0860 C.3       6 GLL5        0.0000 
     35 CA         31.2850   23.4700   24.0070 C.3       4 GLP5        0.0000 
     36 CA         29.1745   21.9880   26.2140 C.3       2 GLC5        0.0000 
     37 CA         30.8370   21.0350   27.3420 C.3       4 GLP5        0.0000 
     38 CA         28.7505   20.8670   26.5460 C.3       2 GLC5        0.0000 
     39 CA         26.6640   20.6990   25.7500 C.3       6 GLL5        0.0000 
     40 CA         24.6105   26.0640   28.5483 C.3       2 GLC5        0.0000 
     41 CA         31.5072   27.4447   27.2380 C.3       2 GLC5        0.0000 
     42 CA         31.8340   29.1310   27.7240 C.3       4 GLP5        0.0000 
     43 CA         32.6788   23.9610   27.7825 C.3       2 GLC5        0.0000 
     44 CA         34.2430   22.8110   27.7950 C.3       4 GLP5        0.0000 
     45 CA         31.1229   24.3606   25.7492 C.3       2 GLC5        0.0000 
     46 CA         30.1935   24.4805   25.2323 C.3       2 GLC5        0.0000 
     47 CA         28.7160   25.1220   26.9110 C.3       6 GLL5        0.0000 
     48 CA         26.5080   21.3640   28.9865 C.3       2 GLC5        0.0000 
     49 CA         26.0860   22.6850   27.2220 C.3       6 GLL5        0.0000 
     50 CA         27.0840   20.7690   30.9220 C.3       4 GLP5        0.0000 
     51 CA         24.6460   19.8510   26.1235 C.3       2 GLC5        0.0000 
     52 CA         25.7780   21.2330   26.8800 C.3       6 GLL5        0.0000 
     53 CA         23.0710   18.7360   25.9320 C.3       4 GLP5        0.0000 
     54 CA         29.4378   26.3272   28.5263 C.3       2 GLC5        0.0000 
     55 CA         29.1890   27.3300   30.1310 C.3       4 GLP5        0.0000 
@<TRIPOS>BOND
@<TRIPOS>SUBSTRUCTURE
     1 ALC1       11 GROUP        1 X    ALC  0     ROOT ALC X 1
     2 GLC5        1 GROUP        1 X    GLC  0     **** GLC X 6
     3 ALP1       13 GROUP        1 Y    ALP  0     ROOT ALP Y 8
     4 GLP5        3 GROUP        1 Y    GLP  0     **** GLP Y 13
     5 ALL1       12 GROUP        1 Z    ALL  0     ROOT ALL Z 15
     6 GLL5        2 GROUP        1 Z    GLL  0     **** GLL Z 20
@<TRIPOS>SET

