#    Name: 3k5e_K5E_2_ligand
#    Modification time : Mon Mar 24 18:23:46 2014

@<TRIPOS>MOLECULE
3k5e_K5E_2_ligand
   35    37     1     0     0
SMALL
NO_CHARGES


@<TRIPOS>ATOM
      1 S          25.1550   25.0500   30.0620 S.2       1 K5E369      0.0000 
      2 C1         30.8730   26.0390   26.1950 C.ar      1 K5E369      0.0000 
      3 N1         26.5510   25.3020   27.9550 N.am      1 K5E369      0.0000 
      4 O1         31.6280   26.7630   25.2930 O.3       1 K5E369      0.0000 
      5 C2         31.4880   25.4780   27.3090 C.ar      1 K5E369      0.0000 
      6 N2         25.5730   23.2140   28.3480 N.am      1 K5E369      0.0000 
      7 O2         27.4870   23.9210   24.0560 O.3       1 K5E369      0.0000 
      8 C3         30.7410   24.7440   28.2310 C.ar      1 K5E369      0.0000 
      9 C4         29.3620   24.5570   28.0190 C.ar      1 K5E369      0.0000 
     10 C5         28.7160   25.1220   26.9110 C.ar      1 K5E369      0.0000 
     11 C6         29.4880   25.8600   26.0040 C.ar      1 K5E369      0.0000 
     12 C7         27.2390   24.9290   26.7070 C.3       1 K5E369      0.0000 
     13 C8         25.7930   24.4860   28.7050 C.2       1 K5E369      0.0000 
     14 C9         26.0860   22.6850   27.2220 C.2       1 K5E369      0.0000 
     15 C10        26.9380   23.5210   26.3310 C.2       1 K5E369      0.0000 
     16 C11        27.5120   22.9410   25.0860 C.3       1 K5E369      0.0000 
     17 C12        26.7220   21.7170   24.6120 C.3       1 K5E369      0.0000 
     18 C13        26.6640   20.6990   25.7500 C.3       1 K5E369      0.0000 
     19 C14        25.7780   21.2330   26.8800 C.3       1 K5E369      0.0000 
     20 H          26.6986   26.3159   28.2445 H         1 K5E369      0.0000 
     21 H          32.4994   25.6037   27.4560 H         1 K5E369      0.0000 
     22 H          24.9748   22.6009   28.9718 H         1 K5E369      0.0000 
     23 H          31.1876   24.3419   29.0579 H         1 K5E369      0.0000 
     24 H          28.8199   23.9939   28.6923 H         1 K5E369      0.0000 
     25 H          29.0360   26.2831   25.1770 H         1 K5E369      0.0000 
     26 H          26.9181   25.5915   25.9112 H         1 K5E369      0.0000 
     27 H          28.5294   22.6204   25.2784 H         1 K5E369      0.0000 
     28 H          27.2193   21.2780   23.7603 H         1 K5E369      0.0000 
     29 H          25.7200   22.0186   24.3465 H         1 K5E369      0.0000 
     30 H          27.6642   20.5267   26.1308 H         1 K5E369      0.0000 
     31 H          26.2496   19.7681   25.3802 H         1 K5E369      0.0000 
     32 H          24.7281   21.1472   26.5791 H         1 K5E369      0.0000 
     33 H          25.9257   20.6125   27.7707 H         1 K5E369      0.0000 
     34 H          30.9785   27.3797   24.8482 H         1 K5E369      0.0000 
     35 H          26.9506   24.6770   24.4312 H         1 K5E369      0.0000 
@<TRIPOS>BOND
     1   13    1 2    
     2    4    2 1    
     3    5    2 ar   
     4   11    2 ar   
     5   12    3 1    
     6   13    3 am   
     7   20    3 1    
     8   34    4 1    
     9    8    5 ar   
    10   21    5 1    
    11   13    6 am   
    12   14    6 1    
    13   22    6 1    
    14   16    7 1    
    15   35    7 1    
    16    9    8 ar   
    17   23    8 1    
    18   10    9 ar   
    19   24    9 1    
    20   11   10 ar   
    21   12   10 1    
    22   25   11 1    
    23   15   12 1    
    24   26   12 1    
    25   15   14 2    
    26   19   14 1    
    27   16   15 1    
    28   17   16 1    
    29   27   16 1    
    30   18   17 1    
    31   28   17 1    
    32   29   17 1    
    33   19   18 1    
    34   30   18 1    
    35   31   18 1    
    36   32   19 1    
    37   33   19 1    
@<TRIPOS>SUBSTRUCTURE
     1 K5E369      1 GROUP   
@<TRIPOS>SET

