#    Name: 1s3x_ADP_1_INTS_M
#    Modification time : Tue Mar 25 01:57:13 2014

@<TRIPOS>MOLECULE
1s3x_ADP_1_INTS_M
   60     0     9     0     0
SMALL
NO_CHARGES


@<TRIPOS>ATOM
      1 N          15.3730   28.0745   15.8795 N.am      2 SEC2        0.0000 
      2 N          16.6660   28.1200   15.4990 N.am      8 SEL2        0.0000 
      3 N          14.0800   28.0290   16.2600 N.am      5 SEP2        0.0000 
      4 N          16.1735   29.3490   15.9935 N.am      2 SEC2        0.0000 
      5 N          15.6810   30.5780   16.4880 N.am      5 SEP2        0.0000 
      6 N          15.6650   28.7310   14.6540 N.am      2 SEC2        0.0000 
      7 N          14.6640   29.3420   13.8090 N.am      5 SEP2        0.0000 
      8 N          18.8855   29.2495   17.5900 N.am      2 SEC2        0.0000 
      9 N          18.8330   28.2270   16.6110 N.am      8 SEL2        0.0000 
     10 N          18.9380   30.2720   18.5690 N.am      5 SEP2        0.0000 
     11 N          22.0500   30.3755   14.5615 N.am      2 SEC2        0.0000 
     12 N          20.9230   29.3950   14.2130 N.am      8 SEL2        0.0000 
     13 N          23.1770   31.3560   14.9100 N.am      5 SEP2        0.0000 
     14 N          21.5355   31.3170   15.1300 N.am      2 SEC2        0.0000 
     15 N          19.8940   31.2780   15.3500 N.am      8 SEL2        0.0000 
     16 CA         17.2250   32.4605   14.7290 C.3       3 GLC5        0.0000 
     17 CA         18.8930   32.2220   15.7130 C.3       9 GLL5        0.0000 
     18 CA         15.5570   32.6990   13.7450 C.3       6 GLP5        0.0000 
     19 CA         21.3790   33.0030   15.6940 C.3       3 GLC5        0.0000 
     20 CA         19.4910   33.2170   16.6800 C.3       9 GLL5        0.0000 
     21 CA         23.2670   32.7890   14.7080 C.3       6 GLP5        0.0000 
     22 CA         16.8350   34.1495   15.5015 C.3       3 GLC5        0.0000 
     23 CA         18.4610   34.2760   17.0320 C.3       9 GLL5        0.0000 
     24 CA         15.2090   34.0230   13.9710 C.3       6 GLP5        0.0000 
     25 N          19.0105   37.1155   18.2090 N.am      2 SEC2        0.0000 
     26 N          18.6390   36.7020   16.8330 N.am      8 SEL2        0.0000 
     27 N          19.3820   37.5290   19.5850 N.am      5 SEP2        0.0000 
     28 O          17.3280   37.0815   16.4955 O.2       1 ALC1        0.0000 
     29 O          18.6390   36.7020   16.8330 O.2       7 ALL1        0.0000 
     30 O          16.0170   37.4610   16.1580 O.2       4 ALP1        0.0000 
     31 CA         21.8935   34.0205   15.5555 C.3       3 GLC5        0.0000 
     32 CA         20.5200   35.2520   16.4030 C.3       9 GLL5        0.0000 
     33 CA         22.4180   34.4855   17.3200 C.3       3 GLC5        0.0000 
     34 CA         24.3160   33.7190   18.2370 C.3       6 GLP5        0.0000 
     35 CA         23.0110   40.1340   15.1485 C.3       3 GLC5        0.0000 
     36 CA         23.8030   38.4100   14.7410 C.3       9 GLL5        0.0000 
     37 CA         22.2190   41.8580   15.5560 C.3       6 GLP5        0.0000 
     38 CA         25.4025   39.6440   15.1995 C.3       3 GLC5        0.0000 
     39 CA         27.0020   40.8780   15.6580 C.3       6 GLP5        0.0000 
     40 N          25.3270   39.4170   16.3380 N.am      2 SEC2        0.0000 
     41 N          24.2590   38.6840   15.9700 N.am      8 SEL2        0.0000 
     42 N          26.3950   40.1500   16.7060 N.am      5 SEP2        0.0000 
     43 CA         21.9295   38.4255   18.1255 C.3       3 GLC5        0.0000 
     44 CA         23.7380   38.0830   17.0290 C.3       9 GLL5        0.0000 
     45 CA         20.1210   38.7680   19.2220 C.3       6 GLP5        0.0000 
     46 CA         22.9785   39.9705   16.2925 C.3       3 GLC5        0.0000 
     47 CA         25.3905   37.2110   15.8135 C.3       3 GLC5        0.0000 
     48 CA         27.0430   36.3390   14.5980 C.3       6 GLP5        0.0000 
     49 CA         24.9410   37.8130   18.4230 C.3       3 GLC5        0.0000 
     50 CA         26.1440   37.5430   19.8170 C.3       6 GLP5        0.0000 
     51 CA         21.2165   37.8460   17.5040 C.3       3 GLC5        0.0000 
     52 CA         22.3120   36.9240   15.7860 C.3       9 GLL5        0.0000 
     53 CA         22.7895   34.8565   15.2470 C.3       3 GLC5        0.0000 
     54 CA         18.3768   32.3394   17.8471 C.3       3 GLC5        0.0000 
     55 CA         17.9270   31.1810   19.0800 C.3       6 GLP5        0.0000 
     56 CA         21.4458   38.7400   15.0005 C.3       3 GLC5        0.0000 
     57 CA         20.3490   40.2810   14.7940 C.3       6 GLP5        0.0000 
     58 CA         24.5165   37.0725   13.5953 C.3       3 GLC5        0.0000 
     59 CA         22.7730   37.4740   14.6280 C.3       9 GLL5        0.0000 
     60 CA         25.7450   36.2030   12.5060 C.3       6 GLP5        0.0000 
@<TRIPOS>BOND
@<TRIPOS>SUBSTRUCTURE
     1 ALC1       28 GROUP        1 X    ALC  0     ROOT ALC X 1
     2 SEC2        1 GROUP        1 X    SEC  0     **** SEC X 2
     3 GLC5       16 GROUP        1 X    GLC  0     **** GLC X 6
     4 ALP1       30 GROUP        1 Y    ALP  0     ROOT ALP Y 8
     5 SEP2        3 GROUP        1 Y    SEP  0     **** SEP Y 9
     6 GLP5       18 GROUP        1 Y    GLP  0     **** GLP Y 13
     7 ALL1       29 GROUP        1 Z    ALL  0     ROOT ALL Z 15
     8 SEL2        2 GROUP        1 Z    SEL  0     **** SEL Z 16
     9 GLL5       17 GROUP        1 Z    GLL  0     **** GLL Z 20
@<TRIPOS>SET

