#    Name: 1s3x_ADP_1_ligand
#    Modification time : Tue Mar 25 01:57:13 2014

@<TRIPOS>MOLECULE
1s3x_ADP_1_ligand
   39    41     1     0     0
SMALL
NO_CHARGES


@<TRIPOS>ATOM
      1 PB         18.1170   28.1430   15.2280 P.3       1 ADP383      0.0000 
      2 O1B        18.6670   27.0170   14.4650 O.co2     1 ADP383      0.0000 
      3 O2B        16.6660   28.1200   15.4990 O.co2     1 ADP383      0.0000 
      4 O3B        18.8330   28.2270   16.6110 O.co2     1 ADP383      0.0000 
      5 PA         19.7800   30.3070   14.1220 P.3       1 ADP383      0.0000 
      6 O1A        20.9230   29.3950   14.2130 O.co2     1 ADP383      0.0000 
      7 O2A        19.5320   31.0830   12.9170 O.co2     1 ADP383      0.0000 
      8 O3A        18.4270   29.4730   14.4210 O.3       1 ADP383      0.0000 
      9 O5'        19.8940   31.2780   15.3500 O.3       1 ADP383      0.0000 
     10 C5'        18.8930   32.2220   15.7130 C.3       1 ADP383      0.0000 
     11 C4'        19.4910   33.2170   16.6800 C.3       1 ADP383      0.0000 
     12 O4'        20.6300   33.8780   16.1090 O.3       1 ADP383      0.0000 
     13 C3'        18.4610   34.2760   17.0320 C.3       1 ADP383      0.0000 
     14 O3'        18.5340   34.3890   18.4520 O.3       1 ADP383      0.0000 
     15 C2'        19.0380   35.4600   16.2580 C.3       1 ADP383      0.0000 
     16 O2'        18.6390   36.7020   16.8330 O.3       1 ADP383      0.0000 
     17 C1'        20.5200   35.2520   16.4030 C.3       1 ADP383      0.0000 
     18 N9         21.3070   36.0400   15.4310 N.pl3     1 ADP383      0.0000 
     19 C8         21.2370   36.1110   14.0580 C.2       1 ADP383      0.0000 
     20 N7         22.0970   36.9590   13.5410 N.2       1 ADP383      0.0000 
     21 C5         22.7730   37.4740   14.6280 C.ar      1 ADP383      0.0000 
     22 C6         23.8030   38.4100   14.7410 C.ar      1 ADP383      0.0000 
     23 N6         24.3270   39.0460   13.6880 N.pl3     1 ADP383      0.0000 
     24 N1         24.2590   38.6840   15.9700 N.ar      1 ADP383      0.0000 
     25 C2         23.7380   38.0830   17.0290 C.ar      1 ADP383      0.0000 
     26 N3         22.7550   37.1810   17.0490 N.ar      1 ADP383      0.0000 
     27 C4         22.3120   36.9240   15.7860 C.ar      1 ADP383      0.0000 
     28 H          18.0402   31.7409   16.2019 H         1 ADP383      0.0000 
     29 H          18.5204   32.7724   14.8435 H         1 ADP383      0.0000 
     30 H          19.7605   32.7027   17.5896 H         1 ADP383      0.0000 
     31 H          17.5551   33.9896   16.6424 H         1 ADP383      0.0000 
     32 H          18.7754   35.3489   15.2404 H         1 ADP383      0.0000 
     33 H          20.7986   35.4539   17.4007 H         1 ADP383      0.0000 
     34 H          20.5871   35.5602   13.5382 H         1 ADP383      0.0000 
     35 H          25.0626   39.6937   13.8865 H         1 ADP383      0.0000 
     36 H          23.9363   38.8169   12.7965 H         1 ADP383      0.0000 
     37 H          24.1619   38.3564   18.0062 H         1 ADP383      0.0000 
     38 H          17.8838   35.1112   18.6878 H         1 ADP383      0.0000 
     39 H          17.7170   36.8653   16.4819 H         1 ADP383      0.0000 
@<TRIPOS>BOND
     1    2    1 ar   
     2    3    1 ar   
     3    4    1 ar   
     4    8    1 1    
     5    6    5 ar   
     6    7    5 ar   
     7    8    5 1    
     8    9    5 1    
     9   10    9 1    
    10   11   10 1    
    11   28   10 1    
    12   29   10 1    
    13   12   11 1    
    14   13   11 1    
    15   30   11 1    
    16   17   12 1    
    17   14   13 1    
    18   15   13 1    
    19   31   13 1    
    20   38   14 1    
    21   16   15 1    
    22   17   15 1    
    23   32   15 1    
    24   39   16 1    
    25   18   17 1    
    26   33   17 1    
    27   19   18 1    
    28   27   18 1    
    29   20   19 2    
    30   34   19 1    
    31   21   20 1    
    32   22   21 ar   
    33   27   21 ar   
    34   23   22 1    
    35   24   22 ar   
    36   35   23 1    
    37   36   23 1    
    38   25   24 ar   
    39   26   25 ar   
    40   37   25 1    
    41   27   26 ar   
@<TRIPOS>SUBSTRUCTURE
     1 ADP383      1 GROUP   
@<TRIPOS>SET

