#    Name: 3uph_0C1_2_INTS_M
#    Modification time : Mon Mar 24 23:13:03 2014

@<TRIPOS>MOLECULE
3uph_0C1_2_INTS_M
   66     0     9     0     0
SMALL
NO_CHARGES


@<TRIPOS>ATOM
      1 CA         25.0050   -4.4435    6.3870 C.3       3 GLC5        0.0000 
      2 CA         24.3820   -2.6160    5.2880 C.3       9 GLL5        0.0000 
      3 CA         25.6280   -6.2710    7.4860 C.3       6 GLP5        0.0000 
      4 CA         18.1700    2.0220    5.9125 C.3       3 GLC5        0.0000 
      5 CA         19.1130    2.1240    4.1770 C.3       9 GLL5        0.0000 
      6 CA         17.2270    1.9200    7.6480 C.3       6 GLP5        0.0000 
      7 CA         27.3715   -1.1715   -3.8400 C.3       3 GLC5        0.0000 
      8 CA         25.9990   -0.8830   -2.3300 C.3       9 GLL5        0.0000 
      9 CA         28.7440   -1.4600   -5.3500 C.3       6 GLP5        0.0000 
     10 CA         27.3900   -1.4615   -1.3245 C.3       3 GLC5        0.0000 
     11 CA         28.7810   -2.0400   -0.3190 C.3       6 GLP5        0.0000 
     12 CA         26.6815   -0.7955    1.2840 C.3       3 GLC5        0.0000 
     13 CA         25.0520   -0.5810    0.3300 C.3       9 GLL5        0.0000 
     14 CA         28.3110   -1.0100    2.2380 C.3       6 GLP5        0.0000 
     15 CA         27.5880   -4.8510    4.5900 C.3       3 GLC5        0.0000 
     16 CA         25.4650   -4.6340    4.0970 C.3       9 GLL5        0.0000 
     17 CA         29.7110   -5.0680    5.0830 C.3       6 GLP5        0.0000 
     18 CA         23.4590   -5.4935    4.5275 C.3       3 GLC5        0.0000 
     19 CA         21.4530   -6.3530    4.9580 C.3       6 GLP5        0.0000 
     20 CA         25.5465   -5.4525    5.7915 C.3       3 GLC5        0.0000 
     21 CA         24.7335   -5.8315    2.7500 C.3       3 GLC5        0.0000 
     22 CA         24.0020   -7.0290    1.4030 C.3       6 GLP5        0.0000 
     23 CA         28.1250   -4.2285    3.4505 C.3       3 GLC5        0.0000 
     24 CA         26.2060   -4.5250    2.7770 C.3       9 GLL5        0.0000 
     25 CA         30.0440   -3.9320    4.1240 C.3       6 GLP5        0.0000 
     26 CA         27.2285   -4.0030    1.3125 C.3       3 GLC5        0.0000 
     27 CA         28.2510   -3.4810   -0.1520 C.3       6 GLP5        0.0000 
     28 CA         24.8685   -5.1980    1.7920 C.3       3 GLC5        0.0000 
     29 CA         23.5310   -5.8710    0.8070 C.3       6 GLP5        0.0000 
     30 CA         23.4595    3.3585    4.9895 C.3       3 GLC5        0.0000 
     31 CA         22.8960    1.4900    4.3180 C.3       9 GLL5        0.0000 
     32 CA         24.0230    5.2270    5.6610 C.3       6 GLP5        0.0000 
     33 CA         21.8215    0.7480    5.7675 C.3       3 GLC5        0.0000 
     34 CA         20.7470    0.0060    7.2170 C.3       6 GLP5        0.0000 
     35 CA         24.8710    1.4965    4.4335 C.3       3 GLC5        0.0000 
     36 CA         26.8460    1.5030    4.5490 C.3       6 GLP5        0.0000 
     37 O          26.9655    1.2645   -2.3925 O.2       1 ALC1        0.0000 
     38 O          26.3330    0.2450   -1.6360 O.2       7 ALL1        0.0000 
     39 O          27.5980    2.2840   -3.1490 O.2       4 ALP1        0.0000 
     40 N          26.8345    2.7790    0.5700 N.am      2 SEC2        0.0000 
     41 N          26.2710    1.5130    0.2850 N.am      8 SEL2        0.0000 
     42 N          27.3980    4.0450    0.8550 N.am      5 SEP2        0.0000 
     43 CA         18.3690   -2.3875    2.1035 C.3       3 GLC5        0.0000 
     44 CA         19.2150   -0.9150    2.1590 C.3       9 GLL5        0.0000 
     45 CA         17.5230   -3.8600    2.0480 C.3       6 GLP5        0.0000 
     46 CA         21.9285    4.6085    5.6985 C.3       3 GLC5        0.0000 
     47 CA         20.8870    3.2770    5.2020 C.3       9 GLL5        0.0000 
     48 CA         22.9700    5.9400    6.1950 C.3       6 GLP5        0.0000 
     49 CA         24.6047   -2.4320    7.0745 C.3       3 GLC5        0.0000 
     50 CA         23.9210   -1.3100    5.1420 C.3       9 GLL5        0.0000 
     51 CA         25.0580   -2.9010    8.9340 C.3       6 GLP5        0.0000 
     52 CA         20.9125   -0.3072    4.8550 C.3       3 GLC5        0.0000 
     53 CA         21.4260    1.3300    4.0040 C.3       9 GLL5        0.0000 
     54 CA         20.6350   -1.4090    6.0960 C.3       6 GLP5        0.0000 
     55 CA         22.3644   -1.3655    5.3193 C.3       3 GLC5        0.0000 
     56 CA         24.0360   -0.6810    3.8700 C.3       9 GLL5        0.0000 
     57 CA         26.5714   -1.3720    2.4121 C.3       3 GLC5        0.0000 
     58 CA         24.6200   -1.3090    2.7570 C.3       9 GLL5        0.0000 
     59 CA         21.0515    3.0745    6.5687 C.3       3 GLC5        0.0000 
     60 CA         20.4810    2.2510    4.4690 C.3       9 GLL5        0.0000 
     61 CA         21.4190    3.3850    8.3020 C.3       6 GLP5        0.0000 
     62 CA         26.6238   -2.6162   -0.6220 C.3       3 GLC5        0.0000 
     63 CA         24.7520   -1.6680   -0.4190 C.3       9 GLL5        0.0000 
     64 CA         19.1879   -0.9991    4.2218 C.3       3 GLC5        0.0000 
     65 CA         19.1990   -1.8340    5.7850 C.3       6 GLP5        0.0000 
     66 CA         20.5445    1.3691    5.9897 C.3       3 GLC5        0.0000 
@<TRIPOS>BOND
@<TRIPOS>SUBSTRUCTURE
     1 ALC1       37 GROUP        1 X    ALC  0     ROOT ALC X 1
     2 SEC2       40 GROUP        1 X    SEC  0     **** SEC X 2
     3 GLC5        1 GROUP        1 X    GLC  0     **** GLC X 6
     4 ALP1       39 GROUP        1 Y    ALP  0     ROOT ALP Y 8
     5 SEP2       42 GROUP        1 Y    SEP  0     **** SEP Y 9
     6 GLP5        3 GROUP        1 Y    GLP  0     **** GLP Y 13
     7 ALL1       38 GROUP        1 Z    ALL  0     ROOT ALL Z 15
     8 SEL2       41 GROUP        1 Z    SEL  0     **** SEL Z 16
     9 GLL5        2 GROUP        1 Z    GLL  0     **** GLL Z 20
@<TRIPOS>SET

