#    Name: 3uph_0C1_2_ligand
#    Modification time : Mon Mar 24 23:13:03 2014

@<TRIPOS>MOLECULE
3uph_0C1_2_ligand
   54    58     1     0     0
SMALL
NO_CHARGES


@<TRIPOS>ATOM
      1 C1         24.3820   -2.6160    5.2880 C.ar      1 0C1577      0.0000 
      2 C2         23.9210   -1.3100    5.1420 C.ar      1 0C1577      0.0000 
      3 C3         18.6710    1.0480    3.3910 C.ar      1 0C1577      0.0000 
      4 C4         19.1130    2.1240    4.1770 C.ar      1 0C1577      0.0000 
      5 C5         20.9540    0.2590    3.2240 C.ar      1 0C1577      0.0000 
      6 C6         24.6200   -1.3090    2.7570 C.ar      1 0C1577      0.0000 
      7 C7         24.5790   -0.3850    1.6780 C.2       1 0C1577      0.0000 
      8 C8         24.9350   -3.2570    4.1910 C.ar      1 0C1577      0.0000 
      9 C9         21.4260    1.3300    4.0040 C.ar      1 0C1577      0.0000 
     10 C10        24.0360   -0.6810    3.8700 C.ar      1 0C1577      0.0000 
     11 C11        25.0640   -2.6210    2.9550 C.ar      1 0C1577      0.0000 
     12 C12        19.6060    0.1250    2.9250 C.ar      1 0C1577      0.0000 
     13 C13        20.4810    2.2510    4.4690 C.ar      1 0C1577      0.0000 
     14 C14        23.9260    0.7660    2.1210 C.2       1 0C1577      0.0000 
     15 C15        25.2410   -1.8350   -1.7650 C.2       1 0C1577      0.0000 
     16 C16        24.7520   -1.6680   -0.4190 C.2       1 0C1577      0.0000 
     17 C17        25.9990   -0.8830   -2.3300 C.2       1 0C1577      0.0000 
     18 C18        25.0520   -0.5810    0.3300 C.2       1 0C1577      0.0000 
     19 C19        25.9340    0.4910   -0.3200 C.2       1 0C1577      0.0000 
     20 C20        23.4890    1.8690    1.2830 C.2       1 0C1577      0.0000 
     21 C21        25.4650   -4.6340    4.0970 C.3       1 0C1577      0.0000 
     22 C22        26.2060   -4.5250    2.7770 C.3       1 0C1577      0.0000 
     23 C23        21.1270    3.6770    1.3200 C.3       1 0C1577      0.0000 
     24 C24        22.8960    1.4900    4.3180 C.3       1 0C1577      0.0000 
     25 N1         23.6300    0.5720    3.4550 N.pl3     1 0C1577      0.0000 
     26 N2         26.3330    0.2450   -1.6360 N.am      1 0C1577      0.0000 
     27 N3         23.7960    3.1800    1.6960 N.am      1 0C1577      0.0000 
     28 O1         26.2710    1.5130    0.2850 O.2       1 0C1577      0.0000 
     29 O2         23.0730    1.7020    0.1400 O.2       1 0C1577      0.0000 
     30 O3         22.6940    5.3160    2.6900 O.2       1 0C1577      0.0000 
     31 O4         22.9640    5.0400    0.2140 O.2       1 0C1577      0.0000 
     32 O5         25.6490   -3.4390    1.9990 O.3       1 0C1577      0.0000 
     33 F1         19.2150   -0.9150    2.1590 F         1 0C1577      0.0000 
     34 F2         20.8870    3.2770    5.2020 F         1 0C1577      0.0000 
     35 S1         22.7000    4.4690    1.5230 S.o2      1 0C1577      0.0000 
     36 H          24.3123   -3.0903    6.1893 H         1 0C1577      0.0000 
     37 H          23.5090   -0.8045    5.9182 H         1 0C1577      0.0000 
     38 H          17.6831    0.9474    3.1675 H         1 0C1577      0.0000 
     39 H          18.4459    2.8086    4.5335 H         1 0C1577      0.0000 
     40 H          21.6323   -0.4384    2.8701 H         1 0C1577      0.0000 
     41 H          24.9833   -2.7027   -2.2566 H         1 0C1577      0.0000 
     42 H          24.1492   -2.4315   -0.0431 H         1 0C1577      0.0000 
     43 H          26.3427   -0.9956   -3.3106 H         1 0C1577      0.0000 
     44 H          24.6869   -5.3346    4.0064 H         1 0C1577      0.0000 
     45 H          26.1501   -4.8304    4.8694 H         1 0C1577      0.0000 
     46 H          26.1112   -5.4782    2.2494 H         1 0C1577      0.0000 
     47 H          27.2652   -4.3558    2.9899 H         1 0C1577      0.0000 
     48 H          23.0586    1.2547    5.3642 H         1 0C1577      0.0000 
     49 H          23.1852    2.5180    4.1281 H         1 0C1577      0.0000 
     50 H          26.9261    0.9806   -2.1099 H         1 0C1577      0.0000 
     51 H          24.6510    3.4839    2.1164 H         1 0C1577      0.0000 
     52 H          21.1105    3.0849    0.5143 H         1 0C1577      0.0000 
     53 H          20.8939    3.1067    2.1077 H         1 0C1577      0.0000 
     54 H          20.3879    4.3417    1.2104 H         1 0C1577      0.0000 
@<TRIPOS>BOND
     1    2    1 ar   
     2    8    1 ar   
     3   36    1 1    
     4   10    2 ar   
     5   37    2 1    
     6    4    3 ar   
     7   12    3 ar   
     8   38    3 1    
     9   13    4 ar   
    10   39    4 1    
    11    9    5 ar   
    12   12    5 ar   
    13   40    5 1    
    14    7    6 1    
    15   10    6 ar   
    16   11    6 ar   
    17   14    7 2    
    18   18    7 1    
    19   11    8 ar   
    20   21    8 1    
    21   13    9 ar   
    22   24    9 1    
    23   25   10 1    
    24   32   11 1    
    25   33   12 1    
    26   34   13 1    
    27   20   14 1    
    28   25   14 1    
    29   16   15 1    
    30   17   15 2    
    31   41   15 1    
    32   18   16 2    
    33   42   16 1    
    34   26   17 1    
    35   43   17 1    
    36   19   18 1    
    37   26   19 am   
    38   28   19 2    
    39   27   20 am   
    40   29   20 2    
    41   22   21 1    
    42   44   21 1    
    43   45   21 1    
    44   32   22 1    
    45   46   22 1    
    46   47   22 1    
    47   35   23 1    
    48   52   23 1    
    49   53   23 1    
    50   54   23 1    
    51   25   24 1    
    52   48   24 1    
    53   49   24 1    
    54   50   26 1    
    55   35   27 1    
    56   51   27 1    
    57   35   30 2    
    58   35   31 2    
@<TRIPOS>SUBSTRUCTURE
     1 0C1577      1 GROUP   
@<TRIPOS>SET

