#    Name: 1k4g_AIQ_1_INTS_M
#    Modification time : Mon Apr  7 13:12:55 2014

@<TRIPOS>MOLECULE
1k4g_AIQ_1_INTS_M
   33     0     9     0     0
SMALL
NO_CHARGES


@<TRIPOS>ATOM
      1 CA         14.3285   18.6775   19.2265 C.3       3 GLC5        0.0000 
      2 CA         14.8190   16.6670   19.0990 C.3       9 GLL5        0.0000 
      3 CA         13.8380   20.6880   19.3540 C.3       6 GLP5        0.0000 
      4 CA         15.2050   18.6795   21.3575 C.3       3 GLC5        0.0000 
      5 CA         16.5320   17.2430   20.8840 C.3       9 GLL5        0.0000 
      6 CA         13.8780   20.1160   21.8310 C.3       6 GLP5        0.0000 
      7 N          20.4925   18.0100   23.1750 N.am      2 SEC2        0.0000 
      8 N          19.0790   18.0620   23.2770 N.am      8 SEL2        0.0000 
      9 N          21.9060   17.9580   23.0730 N.am      5 SEP2        0.0000 
     10 CA         18.5115   19.4195   22.3210 C.3       3 GLC5        0.0000 
     11 CA         17.8250   17.6090   21.3180 C.3       9 GLL5        0.0000 
     12 CA         19.1980   21.2300   23.3240 C.3       6 GLP5        0.0000 
     13 O          20.9050   18.0850   18.2905 O.2       1 ALC1        0.0000 
     14 O          19.5820   17.8530   18.0990 O.2       7 ALL1        0.0000 
     15 O          22.2280   18.3170   18.4820 O.2       4 ALP1        0.0000 
     16 CA         16.5140   14.2900   19.4160 C.3       3 GLC5        0.0000 
     17 CA         14.6390   14.9630   18.4200 C.3       9 GLL5        0.0000 
     18 CA         18.3890   13.6170   20.4120 C.3       6 GLP5        0.0000 
     19 CA         16.4020   14.8515   17.2050 C.3       3 GLC5        0.0000 
     20 CA         18.1650   14.7400   15.9900 C.3       6 GLP5        0.0000 
     21 CA         16.5840   15.5880   15.4195 C.3       3 GLC5        0.0000 
     22 CA         15.0030   16.4360   14.8490 C.3       9 GLL5        0.0000 
     23 CA         14.7075   14.0370   13.2215 C.3       3 GLC5        0.0000 
     24 CA         13.9740   15.6440   14.5320 C.3       9 GLL5        0.0000 
     25 CA         15.4410   12.4300   11.9110 C.3       6 GLP5        0.0000 
     26 CA         17.5842   15.3993   19.7297 C.3       3 GLC5        0.0000 
     27 CA         17.3030   17.2870   18.5860 C.3       9 GLL5        0.0000 
     28 CA         18.0577   16.1058   17.3938 C.3       3 GLC5        0.0000 
     29 CA         17.7837   15.5215   20.7565 C.3       3 GLC5        0.0000 
     30 CA         18.5590   15.6760   20.0547 C.3       3 GLC5        0.0000 
     31 CA         18.8600   17.8140   20.3860 C.3       9 GLL5        0.0000 
     32 CA         13.1878   15.8380   13.2073 C.3       3 GLC5        0.0000 
     33 CA         11.8870   15.6360   11.7240 C.3       6 GLP5        0.0000 
@<TRIPOS>BOND
@<TRIPOS>SUBSTRUCTURE
     1 ALC1       13 GROUP        1 X    ALC  0     ROOT ALC X 1
     2 SEC2        7 GROUP        1 X    SEC  0     **** SEC X 2
     3 GLC5        1 GROUP        1 X    GLC  0     **** GLC X 6
     4 ALP1       15 GROUP        1 Y    ALP  0     ROOT ALP Y 8
     5 SEP2        9 GROUP        1 Y    SEP  0     **** SEP Y 9
     6 GLP5        3 GROUP        1 Y    GLP  0     **** GLP Y 13
     7 ALL1       14 GROUP        1 Z    ALL  0     ROOT ALL Z 15
     8 SEL2        8 GROUP        1 Z    SEL  0     **** SEL Z 16
     9 GLL5        2 GROUP        1 Z    GLL  0     **** GLL Z 20
@<TRIPOS>SET

