#    Name: 1k4g_AIQ_1_ligand
#    Modification time : Mon Apr  7 13:12:55 2014

@<TRIPOS>MOLECULE
1k4g_AIQ_1_ligand
   32    34     1     0     0
SMALL
NO_CHARGES


@<TRIPOS>ATOM
      1 C1         17.3030   17.2870   18.5860 C.ar      1 AIQ900      0.0000 
      2 C2         16.2560   17.0760   19.5090 C.ar      1 AIQ900      0.0000 
      3 C9         14.8190   16.6670   19.0990 C.3       1 AIQ900      0.0000 
      4 C3         16.5320   17.2430   20.8840 C.ar      1 AIQ900      0.0000 
      5 N3         15.5600   17.0610   21.8200 N.2       1 AIQ900      0.0000 
      6 C8         15.7440   17.1950   23.0860 C.2       1 AIQ900      0.0000 
      7 N2         14.7420   16.9990   23.9050 N.pl3     1 AIQ900      0.0000 
      8 N1         16.9300   17.5320   23.5920 N.am      1 AIQ900      0.0000 
      9 C7         17.9840   17.7520   22.8230 C.2       1 AIQ900      0.0000 
     10 O1         19.0790   18.0620   23.2770 O.2       1 AIQ900      0.0000 
     11 C4         17.8250   17.6090   21.3180 C.ar      1 AIQ900      0.0000 
     12 C5         18.8600   17.8140   20.3860 C.ar      1 AIQ900      0.0000 
     13 C6         18.5980   17.6560   19.0090 C.ar      1 AIQ900      0.0000 
     14 N4         19.5820   17.8530   18.0990 N.pl3     1 AIQ900      0.0000 
     15 S1         14.6390   14.9630   18.4200 S.3       1 AIQ900      0.0000 
     16 C10        14.5470   15.4380   16.6960 C.2       1 AIQ900      0.0000 
     17 N5         15.3680   16.3400   16.1280 N.pl3     1 AIQ900      0.0000 
     18 N6         13.7510   15.0380   15.8040 N.2       1 AIQ900      0.0000 
     19 C11        15.0030   16.4360   14.8490 C.2       1 AIQ900      0.0000 
     20 C12        13.9740   15.6440   14.5320 C.2       1 AIQ900      0.0000 
     21 H          17.1170   17.1685   17.5773 H         1 AIQ900      0.0000 
     22 H          14.4176   17.2694   18.2960 H         1 AIQ900      0.0000 
     23 H          14.1279   16.6488   19.9303 H         1 AIQ900      0.0000 
     24 H          14.9305   17.1511   24.8752 H         1 AIQ900      0.0000 
     25 H          13.8798   16.7152   23.4854 H         1 AIQ900      0.0000 
     26 H          17.0279   17.6259   24.6461 H         1 AIQ900      0.0000 
     27 H          19.7927   18.0748   20.7028 H         1 AIQ900      0.0000 
     28 H          20.4873   18.0628   18.4683 H         1 AIQ900      0.0000 
     29 H          19.3159   17.7712   17.1385 H         1 AIQ900      0.0000 
     30 H          16.0756   16.8170   16.5641 H         1 AIQ900      0.0000 
     31 H          15.4543   17.0414   14.1896 H         1 AIQ900      0.0000 
     32 H          13.5197   15.4946   13.7740 H         1 AIQ900      0.0000 
@<TRIPOS>BOND
     1    2    1 ar   
     2   13    1 ar   
     3   21    1 1    
     4    3    2 1    
     5    4    2 ar   
     6   15    3 1    
     7   22    3 1    
     8   23    3 1    
     9    5    4 1    
    10   11    4 ar   
    11    6    5 2    
    12    7    6 1    
    13    8    6 1    
    14   24    7 1    
    15   25    7 1    
    16    9    8 am   
    17   26    8 1    
    18   10    9 2    
    19   11    9 1    
    20   12   11 ar   
    21   13   12 ar   
    22   27   12 1    
    23   14   13 1    
    24   28   14 1    
    25   29   14 1    
    26   16   15 1    
    27   17   16 1    
    28   18   16 2    
    29   19   17 1    
    30   30   17 1    
    31   20   18 1    
    32   20   19 2    
    33   31   19 1    
    34   32   20 1    
@<TRIPOS>SUBSTRUCTURE
     1 AIQ900      1 GROUP   
@<TRIPOS>SET

