#    Name: 2eq8_FAD_1_INTS_M
#    Modification time : Tue Mar 25 11:18:34 2014

@<TRIPOS>MOLECULE
2eq8_FAD_1_INTS_M
  129     0     9     0     0
SMALL
NO_CHARGES


@<TRIPOS>ATOM
      1 N         -37.9110    5.2345   61.0665 N.am      2 SEC2        0.0000 
      2 N         -37.8590    4.1090   60.0860 N.am      8 SEL2        0.0000 
      3 N         -37.9630    6.3600   62.0470 N.am      5 SEP2        0.0000 
      4 N         -39.6170    2.3310   61.9790 N.am      2 SEC2        0.0000 
      5 N         -39.9580    3.2090   61.0410 N.am      8 SEL2        0.0000 
      6 N         -39.2760    1.4530   62.9170 N.am      5 SEP2        0.0000 
      7 CA        -42.6860    3.0120   57.8435 C.3       3 GLC5        0.0000 
      8 CA        -41.2170    4.1780   58.5430 C.3       9 GLL5        0.0000 
      9 CA        -44.1550    1.8460   57.1440 C.3       6 GLP5        0.0000 
     10 CA        -41.4720    2.4050   59.1785 C.3       3 GLC5        0.0000 
     11 CA        -41.7270    0.6320   59.8140 C.3       6 GLP5        0.0000 
     12 CA        -42.2550    5.8080   56.3160 C.3       3 GLC5        0.0000 
     13 CA        -41.7390    5.5990   58.1720 C.3       9 GLL5        0.0000 
     14 CA        -42.7710    6.0170   54.4600 C.3       6 GLP5        0.0000 
     15 O         -41.6430    8.4855   57.9545 O.2       1 ALC1        0.0000 
     16 O         -41.3310    7.8580   59.1160 O.2       7 ALL1        0.0000 
     17 O         -41.9550    9.1130   56.7930 O.2       4 ALP1        0.0000 
     18 N         -44.5295    6.5320   61.2580 N.am      2 SEC2        0.0000 
     19 N         -43.9010    7.7580   60.1810 N.am      8 SEL2        0.0000 
     20 N         -45.1580    5.3060   62.3350 N.am      5 SEP2        0.0000 
     21 O         -43.6710    8.7495   59.2300 O.2       1 ALC1        0.0000 
     22 O         -43.9010    7.7580   60.1810 O.2       7 ALL1        0.0000 
     23 O         -43.4410    9.7410   58.2790 O.2       4 ALP1        0.0000 
     24 CA        -43.3615    6.2315   56.3345 C.3       3 GLC5        0.0000 
     25 CA        -43.9520    6.4460   58.2090 C.3       9 GLL5        0.0000 
     26 CA        -49.8370    7.3580   56.4745 C.3       3 GLC5        0.0000 
     27 CA        -48.5600    5.6070   56.5730 C.3       9 GLL5        0.0000 
     28 CA        -51.1140    9.1090   56.3760 C.3       6 GLP5        0.0000 
     29 O         -50.6540    4.8270   55.5755 O.2       1 ALC1        0.0000 
     30 O         -49.6210    4.8400   56.6180 O.2       7 ALL1        0.0000 
     31 O         -51.6870    4.8140   54.5330 O.2       4 ALP1        0.0000 
     32 N         -49.7325    7.1505   55.1195 N.am      2 SEC2        0.0000 
     33 N         -48.5200    6.7120   55.7510 N.am      8 SEL2        0.0000 
     34 N         -50.9450    7.5890   54.4880 N.am      5 SEP2        0.0000 
     35 CA        -47.2770    6.0495   54.4960 C.3       3 GLC5        0.0000 
     36 CA        -47.4330    7.5390   55.6660 C.3       9 GLL5        0.0000 
     37 CA        -47.1210    4.5600   53.3260 C.3       6 GLP5        0.0000 
     38 CA        -47.7275    8.6750   53.9105 C.3       3 GLC5        0.0000 
     39 CA        -48.0220    9.8110   52.1550 C.3       6 GLP5        0.0000 
     40 CA        -46.0585    9.0580   55.3760 C.3       3 GLC5        0.0000 
     41 CA        -44.6840   10.5770   55.0860 C.3       6 GLP5        0.0000 
     42 CA        -47.6875    8.5650   57.0820 C.3       3 GLC5        0.0000 
     43 CA        -47.9420    9.5910   58.4980 C.3       6 GLP5        0.0000 
     44 CA        -49.2735    8.3240   56.0210 C.3       3 GLC5        0.0000 
     45 CA        -48.8470    7.0835   54.0085 C.3       3 GLC5        0.0000 
     46 CA        -50.2610    6.6280   52.3510 C.3       6 GLP5        0.0000 
     47 N         -46.2360    8.8795   56.6635 N.am      2 SEC2        0.0000 
     48 N         -46.2760    7.4010   56.3490 N.am      8 SEL2        0.0000 
     49 N         -46.1960   10.3580   56.9780 N.am      5 SEP2        0.0000 
     50 CA        -44.5225    6.1595   55.8250 C.3       3 GLC5        0.0000 
     51 CA        -46.2740    6.3020   57.1900 C.3       9 GLL5        0.0000 
     52 N         -30.7790   -0.8500   61.5435 N.am      2 SEC2        0.0000 
     53 N         -29.7180   -0.7070   62.5160 N.am      8 SEL2        0.0000 
     54 N         -31.8400   -0.9930   60.5710 N.am      5 SEP2        0.0000 
     55 O         -28.0875    0.7725   63.1755 O.2       1 ALC1        0.0000 
     56 O         -28.9470    0.4040   64.2950 O.2       7 ALL1        0.0000 
     57 O         -27.2280    1.1410   62.0560 O.2       4 ALP1        0.0000 
     58 N         -28.1435    2.1520   67.3120 N.am      2 SEC2        0.0000 
     59 N         -28.2430    1.5250   66.1020 N.am      8 SEL2        0.0000 
     60 N         -28.0440    2.7790   68.5220 N.am      5 SEP2        0.0000 
     61 CA        -31.2870    4.0675   69.6660 C.3       3 GLC5        0.0000 
     62 CA        -32.4650    2.5290   68.7340 C.3       9 GLL5        0.0000 
     63 CA        -30.1090    5.6060   70.5980 C.3       6 GLP5        0.0000 
     64 CA        -35.5665    3.4140   71.6000 C.3       3 GLC5        0.0000 
     65 CA        -34.0320    3.3790   70.5010 C.3       9 GLL5        0.0000 
     66 CA        -37.1010    3.4490   72.6990 C.3       6 GLP5        0.0000 
     67 CA        -34.4025    1.7940   71.7645 C.3       3 GLC5        0.0000 
     68 CA        -34.7730    0.2090   73.0280 C.3       6 GLP5        0.0000 
     69 CA        -34.0410    3.4665   72.7480 C.3       3 GLC5        0.0000 
     70 CA        -34.0500    3.5540   74.9950 C.3       6 GLP5        0.0000 
     71 CA        -36.8315    3.2345   67.0080 C.3       3 GLC5        0.0000 
     72 CA        -36.3200    2.2190   68.8550 C.3       9 GLL5        0.0000 
     73 CA        -37.3430    4.2500   65.1610 C.3       6 GLP5        0.0000 
     74 CA        -36.7105    2.8340   70.7770 C.3       3 GLC5        0.0000 
     75 CA        -35.9730    2.8460   66.1735 C.3       3 GLC5        0.0000 
     76 CA        -34.6030    1.4420   67.1860 C.3       9 GLL5        0.0000 
     77 CA        -33.6100    2.9645   62.5180 C.3       3 GLC5        0.0000 
     78 CA        -34.1110    0.9910   63.3180 C.3       9 GLL5        0.0000 
     79 CA        -33.1090    4.9380   61.7180 C.3       6 GLP5        0.0000 
     80 CA        -32.5120    2.2675   63.3825 C.3       3 GLC5        0.0000 
     81 CA        -30.9130    3.5440   63.4470 C.3       6 GLP5        0.0000 
     82 CA        -32.6000    1.1445   61.7835 C.3       3 GLC5        0.0000 
     83 CA        -31.0890    1.2980   60.2490 C.3       6 GLP5        0.0000 
     84 O         -36.0135   -1.6270   61.4710 O.2       1 ALC1        0.0000 
     85 O         -34.8310   -0.8730   61.9520 O.2       7 ALL1        0.0000 
     86 O         -37.1960   -2.3810   60.9900 O.2       4 ALP1        0.0000 
     87 CA        -34.2160    3.1285   61.4115 C.3       3 GLC5        0.0000 
     88 CA        -35.3230    1.3190   61.1050 C.3       9 GLL5        0.0000 
     89 N         -35.4530    4.1325   62.0935 N.am      2 SEC2        0.0000 
     90 N         -35.6870    2.6970   61.4190 N.am      8 SEL2        0.0000 
     91 N         -35.2190    5.5680   62.7680 N.am      5 SEP2        0.0000 
     92 CA        -37.9830   -0.7700   60.4830 C.3       3 GLC5        0.0000 
     93 CA        -36.3840    0.6860   60.2200 C.3       9 GLL5        0.0000 
     94 CA        -39.5820   -2.2260   60.7460 C.3       6 GLP5        0.0000 
     95 CA        -35.6290   -0.0670   58.3865 C.3       3 GLC5        0.0000 
     96 CA        -34.8740   -0.8200   56.5530 C.3       6 GLP5        0.0000 
     97 N         -36.6290    2.5455   55.9445 N.am      2 SEC2        0.0000 
     98 N         -37.6690    2.4560   56.9820 N.am      8 SEL2        0.0000 
     99 N         -35.5890    2.6350   54.9070 N.am      5 SEP2        0.0000 
    100 N         -38.5395   -1.3215   58.2140 N.am      2 SEC2        0.0000 
    101 N         -38.3300    0.2290   57.8970 N.am      8 SEL2        0.0000 
    102 N         -38.7490   -2.8720   58.5310 N.am      5 SEP2        0.0000 
    103 CA        -39.5200    5.4183   57.6557 C.3       3 GLC5        0.0000 
    104 CA        -37.5620    5.9480   56.9540 C.3       6 GLP5        0.0000 
    105 CA        -40.0840    6.8910   59.4123 C.3       3 GLC5        0.0000 
    106 CA        -38.3440    7.6760   60.0760 C.3       6 GLP5        0.0000 
    107 CA        -47.1160    5.2285   55.2031 C.3       3 GLC5        0.0000 
    108 CA        -47.3360    5.3770   57.3680 C.3       9 GLL5        0.0000 
    109 CA        -47.5265    7.7440   57.7891 C.3       3 GLC5        0.0000 
    110 CA        -46.7520    3.9590   56.5506 C.3       3 GLC5        0.0000 
    111 CA        -46.3930    2.0210   56.0210 C.3       6 GLP5        0.0000 
    112 CA        -33.1600    3.8605   67.6005 C.3       3 GLC5        0.0000 
    113 CA        -32.1750    1.8630   67.5060 C.3       9 GLL5        0.0000 
    114 CA        -34.0000    5.5250   67.0810 C.3       6 GLP5        0.0000 
    115 CA        -31.3730    3.6075   67.0075 C.3       3 GLC5        0.0000 
    116 CA        -30.4260    5.0190   65.8950 C.3       6 GLP5        0.0000 
    117 CA        -33.6685    0.8297   69.9150 C.3       3 GLC5        0.0000 
    118 CA        -34.2220   -0.9350   70.8670 C.3       6 GLP5        0.0000 
    119 CA        -33.9492    4.2722   68.4638 C.3       3 GLC5        0.0000 
    120 CA        -33.7650    2.6600   69.1920 C.3       9 GLL5        0.0000 
    121 CA        -34.7995    3.8438   67.8558 C.3       3 GLC5        0.0000 
    122 CA        -34.8780    2.1060   68.4060 C.3       9 GLL5        0.0000 
    123 CA        -33.9685    3.4518   67.0200 C.3       3 GLC5        0.0000 
    124 CA        -34.6615    0.4336   69.3876 C.3       3 GLC5        0.0000 
    125 CA        -33.4975    0.4825   60.6660 C.3       3 GLC5        0.0000 
    126 CA        -35.1910    0.4430   62.3730 C.3       9 GLL5        0.0000 
    127 CA        -31.7380    0.0840   59.5930 C.3       6 GLP5        0.0000 
    128 CA        -35.5498    2.7348   59.4213 C.3       3 GLC5        0.0000 
    129 CA        -35.2460    4.4670   58.1800 C.3       6 GLP5        0.0000 
@<TRIPOS>BOND
@<TRIPOS>SUBSTRUCTURE
     1 ALC1       15 GROUP        1 X    ALC  0     ROOT ALC X 1
     2 SEC2        1 GROUP        1 X    SEC  0     **** SEC X 2
     3 GLC5        7 GROUP        1 X    GLC  0     **** GLC X 6
     4 ALP1       17 GROUP        1 Y    ALP  0     ROOT ALP Y 8
     5 SEP2        3 GROUP        1 Y    SEP  0     **** SEP Y 9
     6 GLP5        9 GROUP        1 Y    GLP  0     **** GLP Y 13
     7 ALL1       16 GROUP        1 Z    ALL  0     ROOT ALL Z 15
     8 SEL2        2 GROUP        1 Z    SEL  0     **** SEL Z 16
     9 GLL5        8 GROUP        1 Z    GLL  0     **** GLL Z 20
@<TRIPOS>SET

