#    Name: 2eq8_FAD_1_ligand
#    Modification time : Tue Mar 25 11:18:34 2014

@<TRIPOS>MOLECULE
2eq8_FAD_1_ligand
   84    89     1     0     0
SMALL
NO_CHARGES


@<TRIPOS>ATOM
      1 PA        -39.1410    3.3810   59.9630 P.3       1 FAD4482     0.0000 
      2 O1A       -37.8590    4.1090   60.0860 O.co2     1 FAD4482     0.0000 
      3 O2A       -39.9580    3.2090   61.0410 O.co2     1 FAD4482     0.0000 
      4 O5B       -39.8480    4.3690   59.0300 O.3       1 FAD4482     0.0000 
      5 C5B       -41.2170    4.1780   58.5430 C.3       1 FAD4482     0.0000 
      6 C4B       -41.7390    5.5990   58.1720 C.3       1 FAD4482     0.0000 
      7 O4B       -43.0920    5.4090   57.6200 O.3       1 FAD4482     0.0000 
      8 C3B       -41.9090    6.6130   59.3250 C.3       1 FAD4482     0.0000 
      9 O3B       -41.3310    7.8580   59.1160 O.3       1 FAD4482     0.0000 
     10 C2B       -43.4080    6.5870   59.5910 C.3       1 FAD4482     0.0000 
     11 O2B       -43.9010    7.7580   60.1810 O.3       1 FAD4482     0.0000 
     12 C1B       -43.9520    6.4460   58.2090 C.3       1 FAD4482     0.0000 
     13 N9A       -45.2740    5.8360   58.0400 N.pl3     1 FAD4482     0.0000 
     14 C8A       -45.7630    4.7070   58.6650 C.2       1 FAD4482     0.0000 
     15 N7A       -47.0020    4.4030   58.2830 N.2       1 FAD4482     0.0000 
     16 C5A       -47.3360    5.3770   57.3680 C.ar      1 FAD4482     0.0000 
     17 C6A       -48.5600    5.6070   56.5730 C.ar      1 FAD4482     0.0000 
     18 N6A       -49.6210    4.8400   56.6180 N.pl3     1 FAD4482     0.0000 
     19 N1A       -48.5200    6.7120   55.7510 N.ar      1 FAD4482     0.0000 
     20 C2A       -47.4330    7.5390   55.6660 C.ar      1 FAD4482     0.0000 
     21 N3A       -46.2760    7.4010   56.3490 N.ar      1 FAD4482     0.0000 
     22 C4A       -46.2740    6.3020   57.1900 C.ar      1 FAD4482     0.0000 
     23 N1        -31.2800   -0.0680   63.9340 N.2       1 FAD4482     0.0000 
     24 C2        -30.0160   -0.1580   63.5330 C.2       1 FAD4482     0.0000 
     25 O2        -29.7180   -0.7070   62.5160 O.2       1 FAD4482     0.0000 
     26 N3        -28.9470    0.4040   64.2950 N.am      1 FAD4482     0.0000 
     27 C4        -29.1760    1.0620   65.4950 C.2       1 FAD4482     0.0000 
     28 O4        -28.2430    1.5250   66.1020 O.2       1 FAD4482     0.0000 
     29 C4X       -30.5580    1.1580   65.9530 C.2       1 FAD4482     0.0000 
     30 N5        -30.8480    1.7860   67.1210 N.2       1 FAD4482     0.0000 
     31 C5X       -32.1750    1.8630   67.5060 C.ar      1 FAD4482     0.0000 
     32 C6        -32.4650    2.5290   68.7340 C.ar      1 FAD4482     0.0000 
     33 C7        -33.7650    2.6600   69.1920 C.ar      1 FAD4482     0.0000 
     34 C7M       -34.0320    3.3790   70.5010 C.3       1 FAD4482     0.0000 
     35 C8        -34.8780    2.1060   68.4060 C.ar      1 FAD4482     0.0000 
     36 C8M       -36.3200    2.2190   68.8550 C.3       1 FAD4482     0.0000 
     37 C9        -34.6030    1.4420   67.1860 C.ar      1 FAD4482     0.0000 
     38 C9A       -33.2710    1.3150   66.7320 C.ar      1 FAD4482     0.0000 
     39 N10       -32.9080    0.6520   65.4900 N.pl3     1 FAD4482     0.0000 
     40 C10       -31.6040    0.5640   65.1070 C.2       1 FAD4482     0.0000 
     41 C1'       -33.9830    0.0730   64.6120 C.3       1 FAD4482     0.0000 
     42 C2'       -34.1110    0.9910   63.3180 C.3       1 FAD4482     0.0000 
     43 O2'       -34.4540    2.3100   63.7640 O.3       1 FAD4482     0.0000 
     44 C3'       -35.1910    0.4430   62.3730 C.3       1 FAD4482     0.0000 
     45 O3'       -34.8310   -0.8730   61.9520 O.3       1 FAD4482     0.0000 
     46 C4'       -35.3230    1.3190   61.1050 C.3       1 FAD4482     0.0000 
     47 O4'       -35.6870    2.6970   61.4190 O.3       1 FAD4482     0.0000 
     48 C5'       -36.3840    0.6860   60.2200 C.3       1 FAD4482     0.0000 
     49 O5'       -36.5660    1.5560   58.8990 O.3       1 FAD4482     0.0000 
     50 P         -37.9050    1.5180   58.1990 P.3       1 FAD4482     0.0000 
     51 O1P       -37.6690    2.4560   56.9820 O.co2     1 FAD4482     0.0000 
     52 O2P       -38.3300    0.2290   57.8970 O.co2     1 FAD4482     0.0000 
     53 O3P       -38.9350    2.0440   59.1260 O.3       1 FAD4482     0.0000 
     54 H         -41.8576    3.7796   59.3055 H         1 FAD4482     0.0000 
     55 H         -41.2424    3.5750   57.6563 H         1 FAD4482     0.0000 
     56 H         -41.1150    6.0198   57.4136 H         1 FAD4482     0.0000 
     57 H         -41.4573    6.0835   60.2111 H         1 FAD4482     0.0000 
     58 H         -43.6314    5.6927   60.1238 H         1 FAD4482     0.0000 
     59 H         -43.8391    7.3219   57.6474 H         1 FAD4482     0.0000 
     60 H         -45.2287    4.1946   59.3245 H         1 FAD4482     0.0000 
     61 H         -49.5676    4.0505   57.2294 H         1 FAD4482     0.0000 
     62 H         -50.3872    5.1143   56.0368 H         1 FAD4482     0.0000 
     63 H         -47.5146    8.3766   54.9890 H         1 FAD4482     0.0000 
     64 H         -27.9844    0.3091   63.9287 H         1 FAD4482     0.0000 
     65 H         -31.6770    2.9148   69.2788 H         1 FAD4482     0.0000 
     66 H         -35.3699    1.0545   66.6340 H         1 FAD4482     0.0000 
     67 H         -34.9340    0.0802   65.1097 H         1 FAD4482     0.0000 
     68 H         -33.7231   -0.9153   64.2836 H         1 FAD4482     0.0000 
     69 H         -33.1633    0.9696   62.8274 H         1 FAD4482     0.0000 
     70 H         -36.1329    0.4480   62.8809 H         1 FAD4482     0.0000 
     71 H         -34.3815    1.2747   60.5775 H         1 FAD4482     0.0000 
     72 H         -37.3343    0.6588   60.7278 H         1 FAD4482     0.0000 
     73 H         -36.0858   -0.3055   59.9207 H         1 FAD4482     0.0000 
     74 H         -33.5738    2.9330   71.2699 H         1 FAD4482     0.0000 
     75 H         -33.7104    4.3256   70.4771 H         1 FAD4482     0.0000 
     76 H         -35.0079    3.4064   70.7173 H         1 FAD4482     0.0000 
     77 H         -36.4680    1.7822   69.7423 H         1 FAD4482     0.0000 
     78 H         -36.6069    3.1726   68.9463 H         1 FAD4482     0.0000 
     79 H         -36.9459    1.7854   68.2067 H         1 FAD4482     0.0000 
     80 H         -41.5166    8.0716   58.1569 H         1 FAD4482     0.0000 
     81 H         -43.7757    8.4689   59.4889 H         1 FAD4482     0.0000 
     82 H         -34.9309    2.7286   62.9911 H         1 FAD4482     0.0000 
     83 H         -35.6997   -1.3554   61.8399 H         1 FAD4482     0.0000 
     84 H         -36.4595    2.9038   60.8185 H         1 FAD4482     0.0000 
@<TRIPOS>BOND
     1    2    1 ar   
     2    3    1 ar   
     3    4    1 1    
     4   53    1 1    
     5    5    4 1    
     6    6    5 1    
     7   54    5 1    
     8   55    5 1    
     9    7    6 1    
    10    8    6 1    
    11   56    6 1    
    12   12    7 1    
    13    9    8 1    
    14   10    8 1    
    15   57    8 1    
    16   80    9 1    
    17   11   10 1    
    18   12   10 1    
    19   58   10 1    
    20   81   11 1    
    21   13   12 1    
    22   59   12 1    
    23   14   13 1    
    24   22   13 1    
    25   15   14 2    
    26   60   14 1    
    27   16   15 1    
    28   17   16 ar   
    29   22   16 ar   
    30   18   17 1    
    31   19   17 ar   
    32   61   18 1    
    33   62   18 1    
    34   20   19 ar   
    35   21   20 ar   
    36   63   20 1    
    37   22   21 ar   
    38   24   23 1    
    39   40   23 2    
    40   25   24 2    
    41   26   24 am   
    42   27   26 am   
    43   64   26 1    
    44   28   27 2    
    45   29   27 1    
    46   30   29 2    
    47   40   29 1    
    48   31   30 1    
    49   32   31 ar   
    50   38   31 ar   
    51   33   32 ar   
    52   65   32 1    
    53   34   33 1    
    54   35   33 ar   
    55   74   34 1    
    56   75   34 1    
    57   76   34 1    
    58   36   35 1    
    59   37   35 ar   
    60   77   36 1    
    61   78   36 1    
    62   79   36 1    
    63   38   37 ar   
    64   66   37 1    
    65   39   38 1    
    66   40   39 1    
    67   41   39 1    
    68   42   41 1    
    69   67   41 1    
    70   68   41 1    
    71   43   42 1    
    72   44   42 1    
    73   69   42 1    
    74   82   43 1    
    75   45   44 1    
    76   46   44 1    
    77   70   44 1    
    78   83   45 1    
    79   47   46 1    
    80   48   46 1    
    81   71   46 1    
    82   84   47 1    
    83   49   48 1    
    84   72   48 1    
    85   73   48 1    
    86   50   49 1    
    87   51   50 ar   
    88   52   50 ar   
    89   53   50 1    
@<TRIPOS>SUBSTRUCTURE
     1 FAD4482     1 GROUP   
@<TRIPOS>SET

