#    Name: 1z0z_NAD_2_INTS_M
#    Modification time : Tue Mar 25 11:25:00 2014

@<TRIPOS>MOLECULE
1z0z_NAD_2_INTS_M
   85     0    12     0     0
SMALL
NO_CHARGES


@<TRIPOS>ATOM
      1 N          68.0565   23.9545  107.5455 N.am      2 SEC2        0.0000 
      2 N          69.4670   24.9430  107.2730 N.am     10 SEL2        0.0000 
      3 N          66.6460   22.9660  107.8180 N.am      6 SEP2        0.0000 
      4 CA         73.6345   29.2830  104.8195 C.3       4 GLC5        0.0000 
      5 CA         72.4170   28.0670  105.8270 C.3      12 GLL5        0.0000 
      6 CA         74.8520   30.4990  103.8120 C.3       8 GLP5        0.0000 
      7 N          72.2005   30.4305  107.2075 N.am      2 SEC2        0.0000 
      8 N          71.3760   30.1850  105.8510 N.am     10 SEL2        0.0000 
      9 N          73.0250   30.6760  108.5640 N.am      6 SEP2        0.0000 
     10 N          72.3780   31.1975  106.3660 N.am      2 SEC2        0.0000 
     11 N          73.3800   32.2100  106.8810 N.am      6 SEP2        0.0000 
     12 CA         73.3875   29.0060  103.1580 C.3       4 GLC5        0.0000 
     13 CA         71.6620   28.2300  103.6440 C.3      12 GLL5        0.0000 
     14 CA         75.1130   29.7820  102.6720 C.3       8 GLP5        0.0000 
     15 N          71.7230   23.7840  101.5435 N.am      2 SEC2        0.0000 
     16 N          71.1320   25.2080  101.6530 N.am     10 SEL2        0.0000 
     17 N          72.3140   22.3600  101.4340 N.am      6 SEP2        0.0000 
     18 O          72.1625   23.2385   99.0480 O.2       1 ALC1        0.0000 
     19 O          72.1330   24.5420   98.8690 O.2       9 ALL1        0.0000 
     20 O          72.1920   21.9350   99.2270 O.2       5 ALP1        0.0000 
     21 N          73.8925   26.5925   97.6490 N.am      2 SEC2        0.0000 
     22 N          73.1840   26.6580   98.8810 N.am     10 SEL2        0.0000 
     23 N          74.6010   26.5270   96.4170 N.am      6 SEP2        0.0000 
     24 CA         72.6455   29.1070   98.4150 C.3       4 GLC5        0.0000 
     25 CA         73.4570   27.8570   99.5420 C.3      12 GLL5        0.0000 
     26 CA         71.8340   30.3570   97.2880 C.3       8 GLP5        0.0000 
     27 CA         74.5880   27.6340   98.0560 C.3       4 GLC5        0.0000 
     28 CA         75.7190   27.4110   96.5700 C.3       8 GLP5        0.0000 
     29 CA         74.8315   26.5975  100.2135 C.3       4 GLC5        0.0000 
     30 CA         76.2060   25.3380  100.8850 C.3       8 GLP5        0.0000 
     31 N          68.4920   22.9390  109.5365 N.am      2 SEC2        0.0000 
     32 N          70.0970   22.5590  109.0090 N.am     10 SEL2        0.0000 
     33 N          66.8870   23.3190  110.0640 N.am      6 SEP2        0.0000 
     34 N          69.3350   21.4240  108.5350 N.am      2 SEC2        0.0000 
     35 N          68.5730   20.2890  108.0610 N.am      6 SEP2        0.0000 
     36 NZ         71.9040   22.0690  111.4190 N.4       3 LYC4        0.0000 
     37 NZ         72.5260   22.4160  109.9300 N.4      11 LYL4        0.0000 
     38 NZ         71.2820   21.7220  112.9080 N.4       7 LYP4        0.0000 
     39 N          71.9040   22.0690  111.4190 N.am      2 SEC2        0.0000 
     40 N          72.5260   22.4160  109.9300 N.am     10 SEL2        0.0000 
     41 N          71.2820   21.7220  112.9080 N.am      6 SEP2        0.0000 
     42 CA         71.9815   20.9020  107.1330 C.3       4 GLC5        0.0000 
     43 CA         71.5410   22.6780  106.1960 C.3      12 GLL5        0.0000 
     44 CA         72.4220   19.1260  108.0700 C.3       8 GLP5        0.0000 
     45 CA         72.7345   19.7395  104.7880 C.3       4 GLC5        0.0000 
     46 CA         73.6300   21.7330  105.0080 C.3      12 GLL5        0.0000 
     47 CA         71.8390   17.7460  104.5680 C.3       8 GLP5        0.0000 
     48 CA         73.0260   20.4295  106.5390 C.3       4 GLC5        0.0000 
     49 N          72.7825   21.5940  102.7175 N.am      2 SEC2        0.0000 
     50 N          73.2510   20.8280  104.0010 N.am     10 SEL2        0.0000 
     51 O          74.2950   19.7170  104.0485 O.2       1 ALC1        0.0000 
     52 O          73.2510   20.8280  104.0010 O.2       9 ALL1        0.0000 
     53 O          75.3390   18.6060  104.0960 O.2       5 ALP1        0.0000 
     54 O          74.5120   20.5140  103.3250 O.2       1 ALC1        0.0000 
     55 O          75.7730   20.2000  102.6490 O.2       5 ALP1        0.0000 
     56 N          76.2810   23.3185  102.8505 N.am      2 SEC2        0.0000 
     57 N          74.9520   22.4340  103.1820 N.am     10 SEL2        0.0000 
     58 N          77.6100   24.2030  102.5190 N.am      6 SEP2        0.0000 
     59 O          75.3625   21.3170  102.9155 O.2       1 ALC1        0.0000 
     60 O          74.9520   22.4340  103.1820 O.2       9 ALL1        0.0000 
     61 CA         76.0695   26.4060  107.0560 C.3       4 GLC5        0.0000 
     62 CA         76.8170   24.9630  106.2220 C.3      12 GLL5        0.0000 
     63 CA         75.3220   27.8490  107.8900 C.3       8 GLP5        0.0000 
     64 CA         77.2755   26.7050  108.0720 C.3       4 GLC5        0.0000 
     65 CA         77.7720   25.1410  107.2530 C.3      12 GLL5        0.0000 
     66 CA         76.7790   28.2690  108.8910 C.3       8 GLP5        0.0000 
     67 CA         73.8325   27.5987  106.9825 C.3       4 GLC5        0.0000 
     68 CA         72.2690   26.6300  106.3230 C.3      12 GLL5        0.0000 
     69 CA         69.4912   27.7340  102.8285 C.3       4 GLC5        0.0000 
     70 CA         67.9320   27.1750  101.5520 C.3       8 GLP5        0.0000 
     71 CA         69.9898   26.8580  101.3342 C.3       4 GLC5        0.0000 
     72 CA         72.1930   27.1460  101.4360 C.3      12 GLL5        0.0000 
     73 CA         74.1891   25.9089  100.8386 C.3       4 GLC5        0.0000 
     74 CA         71.9020   25.9360  100.7970 C.3      12 GLL5        0.0000 
     75 CA         70.6935   22.3535  104.7537 C.3       4 GLC5        0.0000 
     76 CA         72.6890   22.9240  105.2250 C.3      12 GLL5        0.0000 
     77 CA         69.2720   21.9060  103.7970 C.3       8 GLP5        0.0000 
     78 CA         76.7613   22.8167  104.4520 C.3       4 GLC5        0.0000 
     79 CA         74.9090   22.4090  104.5940 C.3      12 GLL5        0.0000 
     80 CA         78.6530   22.5240  103.9930 C.3       8 GLP5        0.0000 
     81 CA         78.0412   24.4875  105.0508 C.3       4 GLC5        0.0000 
     82 CA         78.7880   23.9230  103.3640 C.3       8 GLP5        0.0000 
     83 CA         76.8965   25.5057  109.3962 C.3       4 GLC5        0.0000 
     84 CA         77.7180   24.3300  108.3920 C.3      12 GLL5        0.0000 
     85 CA         76.5710   27.1710  110.3540 C.3       8 GLP5        0.0000 
@<TRIPOS>BOND
@<TRIPOS>SUBSTRUCTURE
     1 ALC1       18 GROUP        1 X    ALC  0     ROOT ALC X 1
     2 SEC2        1 GROUP        1 X    SEC  0     **** SEC X 2
     3 LYC4       36 GROUP        1 X    LYC  0     **** LYC X 4
     4 GLC5        4 GROUP        1 X    GLC  0     **** GLC X 6
     5 ALP1       20 GROUP        1 Y    ALP  0     ROOT ALP Y 8
     6 SEP2        3 GROUP        1 Y    SEP  0     **** SEP Y 9
     7 LYP4       38 GROUP        1 Y    LYP  0     **** LYP Y 11
     8 GLP5        6 GROUP        1 Y    GLP  0     **** GLP Y 13
     9 ALL1       19 GROUP        1 Z    ALL  0     ROOT ALL Z 15
    10 SEL2        2 GROUP        1 Z    SEL  0     **** SEL Z 16
    11 LYL4       37 GROUP        1 Z    LYL  0     **** LYL Z 18
    12 GLL5        5 GROUP        1 Z    GLL  0     **** GLL Z 20
@<TRIPOS>SET

