#    Name: 1z0z_NAD_2_ligand
#    Modification time : Tue Mar 25 11:25:00 2014

@<TRIPOS>MOLECULE
1z0z_NAD_2_ligand
   70    74     1     0     0
SMALL
NO_CHARGES


@<TRIPOS>ATOM
      1 PA         70.5700   25.5760  108.1820 P.3       1 NAD3076     0.0000 
      2 O1A        69.9710   26.4660  109.2070 O.co2     1 NAD3076     0.0000 
      3 O2A        69.4670   24.9430  107.2730 O.co2     1 NAD3076     0.0000 
      4 O5B        71.5930   26.6640  107.5590 O.3       1 NAD3076     0.0000 
      5 C5B        72.2690   26.6300  106.3230 C.3       1 NAD3076     0.0000 
      6 C4B        72.4170   28.0670  105.8270 C.3       1 NAD3076     0.0000 
      7 O4B        72.8180   28.0730  104.4710 O.3       1 NAD3076     0.0000 
      8 C3B        71.0970   28.8050  105.8520 C.3       1 NAD3076     0.0000 
      9 O3B        71.3760   30.1850  105.8510 O.3       1 NAD3076     0.0000 
     10 C2B        70.4390   28.3560  104.5660 C.3       1 NAD3076     0.0000 
     11 O2B        69.4810   29.2890  104.0950 O.3       1 NAD3076     0.0000 
     12 C1B        71.6620   28.2300  103.6440 C.3       1 NAD3076     0.0000 
     13 N9A        71.5790   27.1150  102.6660 N.pl3     1 NAD3076     0.0000 
     14 C8A        70.9260   25.9080  102.7870 C.2       1 NAD3076     0.0000 
     15 N7A        71.1320   25.2080  101.6530 N.2       1 NAD3076     0.0000 
     16 C5A        71.9020   25.9360  100.7970 C.ar      1 NAD3076     0.0000 
     17 C6A        72.4010   25.6910   99.5000 C.ar      1 NAD3076     0.0000 
     18 N6A        72.1330   24.5420   98.8690 N.pl3     1 NAD3076     0.0000 
     19 N1A        73.1840   26.6580   98.8810 N.ar      1 NAD3076     0.0000 
     20 C2A        73.4570   27.8570   99.5420 C.ar      1 NAD3076     0.0000 
     21 N3A        72.9560   28.0990  100.8210 N.ar      1 NAD3076     0.0000 
     22 C4A        72.1930   27.1460  101.4360 C.ar      1 NAD3076     0.0000 
     23 O3         71.6690   24.5580  108.8520 O.3       1 NAD3076     0.0000 
     24 PN         71.5420   22.9250  108.9200 P.3       1 NAD3076     0.0000 
     25 O1N        70.0970   22.5590  109.0090 O.co2     1 NAD3076     0.0000 
     26 O2N        72.5260   22.4160  109.9300 O.co2     1 NAD3076     0.0000 
     27 O5D        72.0970   22.4040  107.4790 O.3       1 NAD3076     0.0000 
     28 C5D        71.5410   22.6780  106.1960 C.3       1 NAD3076     0.0000 
     29 C4D        72.6890   22.9240  105.2250 C.3       1 NAD3076     0.0000 
     30 O4D        73.5090   23.9650  105.7290 O.3       1 NAD3076     0.0000 
     31 C3D        73.6300   21.7330  105.0080 C.3       1 NAD3076     0.0000 
     32 O3D        73.2510   20.8280  104.0010 O.3       1 NAD3076     0.0000 
     33 C2D        74.9090   22.4090  104.5940 C.3       1 NAD3076     0.0000 
     34 O2D        74.9520   22.4340  103.1820 O.3       1 NAD3076     0.0000 
     35 C1D        74.8300   23.8100  105.2280 C.3       1 NAD3076     0.0000 
     36 N1N        75.8290   23.9930  106.3240 N.pl3     1 NAD3076     0.0000 
     37 C2N        76.8170   24.9630  106.2220 C.ar      1 NAD3076     0.0000 
     38 C3N        77.7720   25.1410  107.2530 C.ar      1 NAD3076     0.0000 
     39 C7N        78.8480   26.1840  107.1570 C.2       1 NAD3076     0.0000 
     40 O7N        79.8010   26.3750  108.1800 O.2       1 NAD3076     0.0000 
     41 N7N        78.9130   26.9590  106.0950 N.am      1 NAD3076     0.0000 
     42 C4N        77.7180   24.3300  108.3920 C.ar      1 NAD3076     0.0000 
     43 C5N        76.7260   23.3510  108.4850 C.ar      1 NAD3076     0.0000 
     44 C6N        75.7870   23.1860  107.4500 C.ar      1 NAD3076     0.0000 
     45 H          71.7188   26.0729  105.5626 H         1 NAD3076     0.0000 
     46 H          73.2707   26.2048  106.4077 H         1 NAD3076     0.0000 
     47 H          73.1136   28.5884  106.4438 H         1 NAD3076     0.0000 
     48 H          70.5404   28.4660  106.6707 H         1 NAD3076     0.0000 
     49 H          70.0601   27.3712  104.7222 H         1 NAD3076     0.0000 
     50 H          71.7442   29.1797  103.0955 H         1 NAD3076     0.0000 
     51 H          70.4187   25.6305  103.5503 H         1 NAD3076     0.0000 
     52 H          72.4186   23.7059   99.3372 H         1 NAD3076     0.0000 
     53 H          71.6711   24.6224   97.9857 H         1 NAD3076     0.0000 
     54 H          74.0375   28.5737   99.0775 H         1 NAD3076     0.0000 
     55 H          70.9121   23.5686  106.2057 H         1 NAD3076     0.0000 
     56 H          70.9547   21.8400  105.8181 H         1 NAD3076     0.0000 
     57 H          72.2851   23.2088  104.2611 H         1 NAD3076     0.0000 
     58 H          73.8104   21.2787  105.9612 H         1 NAD3076     0.0000 
     59 H          75.7195   21.8844  105.0387 H         1 NAD3076     0.0000 
     60 H          75.0215   24.5291  104.4399 H         1 NAD3076     0.0000 
     61 H          76.8668   25.5686  105.3890 H         1 NAD3076     0.0000 
     62 H          78.2560   26.7637  105.3669 H         1 NAD3076     0.0000 
     63 H          79.6135   27.6724  106.1131 H         1 NAD3076     0.0000 
     64 H          78.3954   24.4531  109.1448 H         1 NAD3076     0.0000 
     65 H          76.6777   22.7445  109.3134 H         1 NAD3076     0.0000 
     66 H          75.0652   22.4558  107.5389 H         1 NAD3076     0.0000 
     67 H          71.6805   30.3867  104.9201 H         1 NAD3076     0.0000 
     68 H          68.6470   29.0843  104.6073 H         1 NAD3076     0.0000 
     69 H          74.0542   20.2499  103.8570 H         1 NAD3076     0.0000 
     70 H          74.7851   21.4888  102.9013 H         1 NAD3076     0.0000 
@<TRIPOS>BOND
     1    2    1 ar   
     2    3    1 ar   
     3    4    1 1    
     4   23    1 1    
     5    5    4 1    
     6    6    5 1    
     7   45    5 1    
     8   46    5 1    
     9    7    6 1    
    10    8    6 1    
    11   47    6 1    
    12   12    7 1    
    13    9    8 1    
    14   10    8 1    
    15   48    8 1    
    16   67    9 1    
    17   11   10 1    
    18   12   10 1    
    19   49   10 1    
    20   68   11 1    
    21   13   12 1    
    22   50   12 1    
    23   14   13 1    
    24   22   13 1    
    25   15   14 2    
    26   51   14 1    
    27   16   15 1    
    28   17   16 ar   
    29   22   16 ar   
    30   18   17 1    
    31   19   17 ar   
    32   52   18 1    
    33   53   18 1    
    34   20   19 ar   
    35   21   20 ar   
    36   54   20 1    
    37   22   21 ar   
    38   24   23 1    
    39   25   24 ar   
    40   26   24 ar   
    41   27   24 1    
    42   28   27 1    
    43   29   28 1    
    44   55   28 1    
    45   56   28 1    
    46   30   29 1    
    47   31   29 1    
    48   57   29 1    
    49   35   30 1    
    50   32   31 1    
    51   33   31 1    
    52   58   31 1    
    53   69   32 1    
    54   34   33 1    
    55   35   33 1    
    56   59   33 1    
    57   70   34 1    
    58   36   35 1    
    59   60   35 1    
    60   37   36 ar   
    61   44   36 ar   
    62   38   37 ar   
    63   61   37 1    
    64   39   38 1    
    65   42   38 ar   
    66   40   39 2    
    67   41   39 am   
    68   62   41 1    
    69   63   41 1    
    70   43   42 ar   
    71   64   42 1    
    72   44   43 ar   
    73   65   43 1    
    74   66   44 1    
@<TRIPOS>SUBSTRUCTURE
     1 NAD3076     1 GROUP   
@<TRIPOS>SET

