#    Name: 3nww_3NW_1_INTS_M
#    Modification time : Tue Mar 25 02:50:40 2014

@<TRIPOS>MOLECULE
3nww_3NW_1_INTS_M
  101     0    12     0     0
SMALL
NO_CHARGES


@<TRIPOS>ATOM
      1 CA         -3.0135    5.4595   21.5675 C.3       4 GLC5        0.0000 
      2 CA         -2.4350    3.3690   21.3390 C.3      12 GLL5        0.0000 
      3 CA         -3.5920    7.5500   21.7960 C.3       8 GLP5        0.0000 
      4 CA         -4.1650    3.9730   21.8285 C.3       4 GLC5        0.0000 
      5 CA         -5.8950    4.5770   22.3180 C.3       8 GLP5        0.0000 
      6 CA         -1.2635    2.1825   20.4335 C.3       4 GLC5        0.0000 
      7 CA         -0.0920    0.9960   19.5280 C.3       8 GLP5        0.0000 
      8 CA         -4.7475    3.3355   20.9950 C.3       4 GLC5        0.0000 
      9 CA         -3.6000    2.0940   19.6720 C.3      12 GLL5        0.0000 
     10 CA         -3.9535   -3.3175   22.5815 C.3       4 GLC5        0.0000 
     11 CA         -2.9980   -1.4720   22.4390 C.3      12 GLL5        0.0000 
     12 CA         -4.9090   -5.1630   22.7240 C.3       8 GLP5        0.0000 
     13 CA         -1.5910   -3.0620   22.9250 C.3       4 GLC5        0.0000 
     14 CA         -0.1840   -4.6520   23.4110 C.3       8 GLP5        0.0000 
     15 N          -2.6970   -3.6055   23.5780 N.am      2 SEC2        0.0000 
     16 N          -2.7800   -2.1540   23.5930 N.am     10 SEL2        0.0000 
     17 N          -2.6140   -5.0570   23.5630 N.am      6 SEP2        0.0000 
     18 O          -2.0720   -3.3420   26.0705 O.2       1 ALC1        0.0000 
     19 O          -2.1680   -1.9840   26.0040 O.2       9 ALL1        0.0000 
     20 O          -1.9760   -4.7000   26.1370 O.2       5 ALP1        0.0000 
     21 CA          0.8975   -2.2485   27.7430 C.3       4 GLC5        0.0000 
     22 CA         -0.2040   -0.9250   27.0220 C.3      12 GLL5        0.0000 
     23 CA          1.9990   -3.5720   28.4640 C.3       8 GLP5        0.0000 
     24 CA          1.8015   -0.1535   26.9240 C.3       4 GLC5        0.0000 
     25 CA          3.8070    0.6180   26.8260 C.3       8 GLP5        0.0000 
     26 CA          0.0705   -2.7670   28.4575 C.3       4 GLC5        0.0000 
     27 CA         -1.8580   -1.9620   28.4510 C.3      12 GLL5        0.0000 
     28 CA         -7.7710    0.0040   16.4075 C.3       4 GLC5        0.0000 
     29 CA         -6.2670    1.3480   16.9470 C.3      12 GLL5        0.0000 
     30 CA         -9.2750   -1.3400   15.8680 C.3       8 GLP5        0.0000 
     31 CA         -6.0210    0.0385   19.9060 C.3       4 GLC5        0.0000 
     32 CA         -5.6540    1.4650   18.2370 C.3      12 GLL5        0.0000 
     33 CA         -6.3880   -1.3880   21.5750 C.3       8 GLP5        0.0000 
     34 CA          3.4685    5.1355   21.3095 C.3       4 GLC5        0.0000 
     35 CA          1.9670    5.9860   22.1270 C.3      12 GLL5        0.0000 
     36 CA          4.9700    4.2850   20.4920 C.3       8 GLP5        0.0000 
     37 OD1         0.9835    6.3650   20.6945 O.co2     3 ASC3        0.0000 
     38 OD1         0.5030    6.1880   22.0070 O.co2    11 ASL3        0.0000 
     39 OD1         1.4640    6.5420   19.3820 O.co2     7 ASP3        0.0000 
     40 CA         -1.6995    7.5870   21.8650 C.3       4 GLC5        0.0000 
     41 CA          0.1930    7.6240   21.9340 C.3      12 GLL5        0.0000 
     42 CA         -0.9720    8.5305   20.3595 C.3       4 GLC5        0.0000 
     43 CA         -2.1370    9.4370   18.7850 C.3       8 GLP5        0.0000 
     44 O          -2.6060    4.8290   15.2200 O.2       1 ALC1        0.0000 
     45 O          -1.9550    3.6490   15.8730 O.2       9 ALL1        0.0000 
     46 O          -3.2570    6.0090   14.5670 O.2       5 ALP1        0.0000 
     47 O          -1.9690    5.2380   14.3795 O.2       1 ALC1        0.0000 
     48 O          -0.6810    4.4670   14.1920 O.2       9 ALL1        0.0000 
     49 N           1.2400    3.3430   15.9365 N.am      2 SEC2        0.0000 
     50 N           0.0990    2.7670   15.4760 N.am     10 SEL2        0.0000 
     51 N           2.3810    3.9190   16.3970 N.am      6 SEP2        0.0000 
     52 CA          1.5340    4.8970   14.7190 C.3       4 GLC5        0.0000 
     53 CA          0.5320    4.4640   13.3650 C.3      12 GLL5        0.0000 
     54 CA          2.5360    5.3300   16.0730 C.3       8 GLP5        0.0000 
     55 CA          1.3395    2.8410   12.5610 C.3       4 GLC5        0.0000 
     56 CA          2.1470    1.2180   11.7570 C.3       8 GLP5        0.0000 
     57 CA          0.3115    6.3190   13.8110 C.3       4 GLC5        0.0000 
     58 CA          0.0910    8.1740   14.2570 C.3       8 GLP5        0.0000 
     59 CA         -1.6670    5.3695   12.0595 C.3       4 GLC5        0.0000 
     60 CA          0.1160    4.3180   11.8940 C.3      12 GLL5        0.0000 
     61 CA         -3.4500    6.4210   12.2250 C.3       8 GLP5        0.0000 
     62 CA          0.1170    4.3595   10.0510 C.3       4 GLC5        0.0000 
     63 CA          0.1180    4.4010    8.2080 C.3       8 GLP5        0.0000 
     64 CA          1.3395    3.2315   11.3560 C.3       4 GLC5        0.0000 
     65 CA          2.5630    2.1450   10.8180 C.3       8 GLP5        0.0000 
     66 CA          0.5085    6.4200   12.4435 C.3       4 GLC5        0.0000 
     67 CA          0.9010    8.5220   12.9930 C.3       8 GLP5        0.0000 
     68 CA         -4.9835    1.6160   21.9153 C.3       4 GLC5        0.0000 
     69 CA         -3.5610    0.9220   20.4690 C.3      12 GLL5        0.0000 
     70 CA         -6.7220    2.2490   22.7350 C.3       8 GLP5        0.0000 
     71 CA         -4.8165   -0.2025   21.3352 C.3       4 GLC5        0.0000 
     72 CA         -2.9290    1.0440   21.7220 C.3      12 GLL5        0.0000 
     73 CA         -3.9962   -0.1005   18.9222 C.3       4 GLC5        0.0000 
     74 CA         -4.4120   -1.7090   17.7740 C.3       8 GLP5        0.0000 
     75 CA         -2.0125    1.5128   19.2685 C.3       4 GLC5        0.0000 
     76 CA         -4.6445   -1.0845   22.0672 C.3       4 GLC5        0.0000 
     77 CA         -2.8040   -0.0900   22.6800 C.3      12 GLL5        0.0000 
     78 CA         -1.5582    0.7213   20.7079 C.3       4 GLC5        0.0000 
     79 CA         -5.0347    3.8420   16.5688 C.3       4 GLC5        0.0000 
     80 CA         -4.2380    2.1850   15.7950 C.3      12 GLL5        0.0000 
     81 CA         -5.1530    5.7440   17.3820 C.3       8 GLP5        0.0000 
     82 CA         -4.6158    2.3920   14.0507 C.3       4 GLC5        0.0000 
     83 CA         -4.3150    2.8440   12.3460 C.3       8 GLP5        0.0000 
     84 CA         -4.6643    0.1155   16.7647 C.3       4 GLC5        0.0000 
     85 CA         -5.5950    1.6950   15.7160 C.3      12 GLL5        0.0000 
     86 CA         -4.1707    0.2147   17.7483 C.3       4 GLC5        0.0000 
     87 CA         -3.5930    2.3120   17.0990 C.3      12 GLL5        0.0000 
     88 CA         -1.4890    1.7840   18.3050 C.3       4 GLC5        0.0000 
     89 CA         -6.8637    2.9487   18.1010 C.3       4 GLC5        0.0000 
     90 CA         -7.7670    4.4910   18.6100 C.3       8 GLP5        0.0000 
     91 CA         -6.9939    2.2995   15.3281 C.3       4 GLC5        0.0000 
     92 CA         -8.3960    2.9550   14.3050 C.3       8 GLP5        0.0000 
     93 CA         -5.1862   -0.1512   17.6830 C.3       4 GLC5        0.0000 
     94 CA         -4.1036    4.1146   17.3879 C.3       4 GLC5        0.0000 
     95 CA         -4.2660    1.9650   18.3460 C.3      12 GLL5        0.0000 
     96 CA         -2.0526    0.8891   16.0575 C.3       4 GLC5        0.0000 
     97 CA         -1.0580   -0.7620   15.3590 C.3       8 GLP5        0.0000 
     98 CA         -2.0510    6.2820   22.4305 C.3       4 GLC5        0.0000 
     99 CA         -0.8590    4.3590   22.9080 C.3      12 GLL5        0.0000 
    100 CA         -0.9790    2.8930   12.5092 C.3       4 GLC5        0.0000 
    101 CA         -2.2820    1.3950   12.3890 C.3       8 GLP5        0.0000 
@<TRIPOS>BOND
@<TRIPOS>SUBSTRUCTURE
     1 ALC1       18 GROUP        1 X    ALC  0     ROOT ALC X 1
     2 SEC2       15 GROUP        1 X    SEC  0     **** SEC X 2
     3 ASC3       37 GROUP        1 X    ASC  0     **** ASC X 3
     4 GLC5        1 GROUP        1 X    GLC  0     **** GLC X 6
     5 ALP1       20 GROUP        1 Y    ALP  0     ROOT ALP Y 8
     6 SEP2       17 GROUP        1 Y    SEP  0     **** SEP Y 9
     7 ASP3       39 GROUP        1 Y    ASP  0     **** ASP Y 10
     8 GLP5        3 GROUP        1 Y    GLP  0     **** GLP Y 13
     9 ALL1       19 GROUP        1 Z    ALL  0     ROOT ALL Z 15
    10 SEL2       16 GROUP        1 Z    SEL  0     **** SEL Z 16
    11 ASL3       38 GROUP        1 Z    ASL  0     **** ASL Z 17
    12 GLL5        2 GROUP        1 Z    GLL  0     **** GLL Z 20
@<TRIPOS>SET

