#    Name: 3nww_3NW_1_ligand
#    Modification time : Tue Mar 25 02:50:40 2014

@<TRIPOS>MOLECULE
3nww_3NW_1_ligand
   69    71     1     0     0
SMALL
NO_CHARGES


@<TRIPOS>ATOM
      1 C1         -3.5610    0.9220   20.4690 C.ar      1 3NW361      0.0000 
      2 C2         -2.9290    1.0440   21.7220 C.ar      1 3NW361      0.0000 
      3 N3         -2.3930    2.2650   22.1030 N.ar      1 3NW361      0.0000 
      4 C4         -2.4350    3.3690   21.3390 C.ar      1 3NW361      0.0000 
      5 N5         -3.0350    3.2950   20.1230 N.ar      1 3NW361      0.0000 
      6 C6         -3.6000    2.0940   19.6720 C.ar      1 3NW361      0.0000 
      7 C7         -2.8040   -0.0900   22.6800 C.2       1 3NW361      0.0000 
      8 C8         -2.9980   -1.4720   22.4390 C.2       1 3NW361      0.0000 
      9 N9         -2.7800   -2.1540   23.5930 N.2       1 3NW361      0.0000 
     10 C10        -2.4390   -1.4080   24.6770 C.2       1 3NW361      0.0000 
     11 S11        -2.3740    0.2510   24.2800 S.3       1 3NW361      0.0000 
     12 N12        -2.1680   -1.9840   26.0040 N.pl3     1 3NW361      0.0000 
     13 C13        -1.7040   -1.1800   27.1570 C.3       1 3NW361      0.0000 
     14 C14        -0.2040   -0.9250   27.0220 C.3       1 3NW361      0.0000 
     15 C15        -1.8580   -1.9620   28.4510 C.3       1 3NW361      0.0000 
     16 N16        -1.8650    4.5080   21.8410 N.pl3     1 3NW361      0.0000 
     17 C17        -5.5950    1.6950   15.7160 C.ar      1 3NW361      0.0000 
     18 C18        -4.2660    1.9650   18.3460 C.ar      1 3NW361      0.0000 
     19 C19        -3.5930    2.3120   17.0990 C.ar      1 3NW361      0.0000 
     20 C20        -4.2380    2.1850   15.7950 C.ar      1 3NW361      0.0000 
     21 C21        -6.2670    1.3480   16.9470 C.ar      1 3NW361      0.0000 
     22 C22        -5.6540    1.4650   18.2370 C.ar      1 3NW361      0.0000 
     23 C23        -2.1790    2.8320   17.0650 C.3       1 3NW361      0.0000 
     24 C24         1.9670    5.9860   22.1270 C.3       1 3NW361      0.0000 
     25 N25         0.5030    6.1880   22.0070 N.4       1 3NW361      0.0000 
     26 C26        -0.1610    5.6690   23.2220 C.3       1 3NW361      0.0000 
     27 C27        -0.8590    4.3590   22.9080 C.3       1 3NW361      0.0000 
     28 C28         0.1930    7.6240   21.9340 C.3       1 3NW361      0.0000 
     29 N29        -1.9550    3.6490   15.8730 N.am      1 3NW361      0.0000 
     30 C30        -0.7820    3.5740   15.1960 C.2       1 3NW361      0.0000 
     31 N31        -0.6810    4.4670   14.1920 N.am      1 3NW361      0.0000 
     32 O32         0.0990    2.7670   15.4760 O.2       1 3NW361      0.0000 
     33 C33         0.5320    4.4640   13.3650 C.3       1 3NW361      0.0000 
     34 C34         0.1160    4.3180   11.8940 C.3       1 3NW361      0.0000 
     35 H          -3.9579    0.0660   20.1576 H         1 3NW361      0.0000 
     36 H          -3.2424   -1.8331   21.5901 H         1 3NW361      0.0000 
     37 H          -2.3061   -2.9893   26.1397 H         1 3NW361      0.0000 
     38 H          -2.2054   -0.2616   27.2334 H         1 3NW361      0.0000 
     39 H          -2.0905    5.4335   21.5269 H         1 3NW361      0.0000 
     40 H          -6.0546    1.5991   14.8368 H         1 3NW361      0.0000 
     41 H          -3.7360    2.4383   14.9629 H         1 3NW361      0.0000 
     42 H          -7.2402    0.9977   16.8892 H         1 3NW361      0.0000 
     43 H          -6.1471    1.2141   19.0752 H         1 3NW361      0.0000 
     44 H          -1.4890    1.9777   17.0810 H         1 3NW361      0.0000 
     45 H          -1.9982    3.4208   17.9744 H         1 3NW361      0.0000 
     46 H           0.1257    5.6853   21.1486 H         1 3NW361      0.0000 
     47 H          -0.9011    6.3841   23.5855 H         1 3NW361      0.0000 
     48 H           0.5724    5.4968   24.0117 H         1 3NW361      0.0000 
     49 H          -0.0980    3.6192   22.6133 H         1 3NW361      0.0000 
     50 H          -1.3335    3.9860   23.8294 H         1 3NW361      0.0000 
     51 H          -2.7204    4.2698   15.5837 H         1 3NW361      0.0000 
     52 H          -1.3975    5.1498   13.9676 H         1 3NW361      0.0000 
     53 H           1.1770    3.6303   13.6217 H         1 3NW361      0.0000 
     54 H           1.0806    5.3935   13.4739 H         1 3NW361      0.0000 
     55 H           0.3171   -1.7782   26.9986 H         1 3NW361      0.0000 
     56 H           0.0138   -0.4254   26.1836 H         1 3NW361      0.0000 
     57 H           0.1512   -0.3854   27.7853 H         1 3NW361      0.0000 
     58 H          -1.3293   -2.8107   28.4372 H         1 3NW361      0.0000 
     59 H          -1.5469   -1.4357   29.2423 H         1 3NW361      0.0000 
     60 H          -2.8108   -2.2129   28.6221 H         1 3NW361      0.0000 
     61 H           2.4559    6.3258   21.3236 H         1 3NW361      0.0000 
     62 H           2.3436    6.4615   22.9221 H         1 3NW361      0.0000 
     63 H           2.2016    5.0189   22.2255 H         1 3NW361      0.0000 
     64 H           0.5013    8.1125   22.7503 H         1 3NW361      0.0000 
     65 H           0.6326    8.0594   21.1484 H         1 3NW361      0.0000 
     66 H          -0.7897    7.7879   21.8480 H         1 3NW361      0.0000 
     67 H           0.9075    4.3140   11.2828 H         1 3NW361      0.0000 
     68 H          -0.3836    3.4670   11.7320 H         1 3NW361      0.0000 
     69 H          -0.4777    5.0670   11.5998 H         1 3NW361      0.0000 
@<TRIPOS>BOND
     1    2    1 ar   
     2    6    1 ar   
     3   35    1 1    
     4    3    2 ar   
     5    7    2 1    
     6    4    3 ar   
     7    5    4 ar   
     8   16    4 1    
     9    6    5 ar   
    10   18    6 1    
    11    8    7 2    
    12   11    7 1    
    13    9    8 1    
    14   36    8 1    
    15   10    9 2    
    16   11   10 1    
    17   12   10 1    
    18   13   12 1    
    19   37   12 1    
    20   14   13 1    
    21   15   13 1    
    22   38   13 1    
    23   55   14 1    
    24   56   14 1    
    25   57   14 1    
    26   58   15 1    
    27   59   15 1    
    28   60   15 1    
    29   27   16 1    
    30   39   16 1    
    31   20   17 ar   
    32   21   17 ar   
    33   40   17 1    
    34   19   18 ar   
    35   22   18 ar   
    36   20   19 ar   
    37   23   19 1    
    38   41   20 1    
    39   22   21 ar   
    40   42   21 1    
    41   43   22 1    
    42   29   23 1    
    43   44   23 1    
    44   45   23 1    
    45   25   24 1    
    46   61   24 1    
    47   62   24 1    
    48   63   24 1    
    49   26   25 1    
    50   28   25 1    
    51   46   25 1    
    52   27   26 1    
    53   47   26 1    
    54   48   26 1    
    55   49   27 1    
    56   50   27 1    
    57   64   28 1    
    58   65   28 1    
    59   66   28 1    
    60   30   29 am   
    61   51   29 1    
    62   31   30 am   
    63   32   30 2    
    64   33   31 1    
    65   52   31 1    
    66   34   33 1    
    67   53   33 1    
    68   54   33 1    
    69   67   34 1    
    70   68   34 1    
    71   69   34 1    
@<TRIPOS>SUBSTRUCTURE
     1 3NW361      1 GROUP   
@<TRIPOS>SET

