#    Name: 1nqx_RLP_5_INTS_M
#    Modification time : Mon Mar 24 18:44:03 2014

@<TRIPOS>MOLECULE
1nqx_RLP_5_INTS_M
   63     0    12     0     0
SMALL
NO_CHARGES


@<TRIPOS>ATOM
      1 NZ        142.2335  -13.1925  146.5235 N.4       3 LYC4        0.0000 
      2 NZ        142.5730  -13.1890  147.8470 N.4      11 LYL4        0.0000 
      3 NZ        141.8940  -13.1960  145.2000 N.4       7 LYP4        0.0000 
      4 N         142.2335  -13.1925  146.5235 N.am      2 SEC2        0.0000 
      5 N         142.5730  -13.1890  147.8470 N.am     10 SEL2        0.0000 
      6 N         141.8940  -13.1960  145.2000 N.am      6 SEP2        0.0000 
      7 NZ        141.2725  -13.0580  146.9895 N.4       3 LYC4        0.0000 
      8 NZ        140.6510  -12.9200  148.7790 N.4      11 LYL4        0.0000 
      9 CA        140.5045  -10.7630  150.2155 C.3       4 GLC5        0.0000 
     10 CA        142.3390  -11.6210  149.6760 C.3      12 GLL5        0.0000 
     11 CA        138.6700   -9.9050  150.7550 C.3       8 GLP5        0.0000 
     12 N         141.3335   -4.5305  150.6050 N.am      2 SEC2        0.0000 
     13 N         140.6960   -5.7950  149.9450 N.am     10 SEL2        0.0000 
     14 N         141.9710   -3.2660  151.2650 N.am      6 SEP2        0.0000 
     15 O         138.5890   -4.3935  149.0280 O.2       1 ALC1        0.0000 
     16 O         139.0300   -5.5610  148.4140 O.2       9 ALL1        0.0000 
     17 O         138.1480   -3.2260  149.6420 O.2       5 ALP1        0.0000 
     18 N         137.0340   -5.4235  145.5635 N.am      2 SEC2        0.0000 
     19 N         137.4090   -5.2200  146.9980 N.am     10 SEL2        0.0000 
     20 N         136.6590   -5.6270  144.1290 N.am      6 SEP2        0.0000 
     21 N         137.5990   -4.1385  146.1150 N.am      2 SEC2        0.0000 
     22 N         137.7890   -3.0570  145.2320 N.am      6 SEP2        0.0000 
     23 CA        137.9435   -9.7410  147.3885 C.3       4 GLC5        0.0000 
     24 CA        138.8990   -9.7960  145.7400 C.3      12 GLL5        0.0000 
     25 CA        136.9880   -9.6860  149.0370 C.3       8 GLP5        0.0000 
     26 N         138.4230   -7.1565  143.0095 N.am      2 SEC2        0.0000 
     27 N         138.7380   -8.1400  144.1640 N.am     10 SEL2        0.0000 
     28 N         138.1080   -6.1730  141.8550 N.am      6 SEP2        0.0000 
     29 O         136.1920   -9.8060  142.8195 O.2       1 ALC1        0.0000 
     30 O         136.9080  -10.3830  143.8490 O.2       9 ALL1        0.0000 
     31 O         135.4760   -9.2290  141.7900 O.2       5 ALP1        0.0000 
     32 N         141.0285  -12.6200  144.2385 N.am      2 SEC2        0.0000 
     33 N         140.1630  -12.0440  143.2770 N.am     10 SEL2        0.0000 
     34 O         140.7075  -13.0670  142.4755 O.2       1 ALC1        0.0000 
     35 O         140.1630  -12.0440  143.2770 O.2       9 ALL1        0.0000 
     36 O         141.2520  -14.0900  141.6740 O.2       5 ALP1        0.0000 
     37 CA        137.4150  -13.4875  140.4880 C.3       4 GLC5        0.0000 
     38 CA        138.0190  -12.8100  142.4850 C.3      12 GLL5        0.0000 
     39 CA        136.8110  -14.1650  138.4910 C.3       8 GLP5        0.0000 
     40 CA        139.5900  -13.1635  140.9195 C.3       4 GLC5        0.0000 
     41 CA        141.1610  -13.5170  139.3540 C.3       8 GLP5        0.0000 
     42 CA        137.6385  -14.7825  142.2470 C.3       4 GLC5        0.0000 
     43 CA        137.2580  -16.7550  142.0090 C.3       8 GLP5        0.0000 
     44 CA        136.0880  -13.2580  142.1320 C.3       4 GLC5        0.0000 
     45 CA        134.1570  -13.7060  141.7790 C.3       8 GLP5        0.0000 
     46 N         138.9505  -12.8125  140.1035 N.am      2 SEC2        0.0000 
     47 N         138.1610  -12.2190  141.1820 N.am     10 SEL2        0.0000 
     48 N         139.7400  -13.4060  139.0250 N.am      6 SEP2        0.0000 
     49 O         137.1550  -11.5045  140.7865 O.2       1 ALC1        0.0000 
     50 O         138.1610  -12.2190  141.1820 O.2       9 ALL1        0.0000 
     51 O         136.1490  -10.7900  140.3910 O.2       5 ALP1        0.0000 
     52 CA        142.9961  -10.3330  146.6834 C.3       4 GLC5        0.0000 
     53 CA        141.6360   -9.5350  148.3690 C.3      12 GLL5        0.0000 
     54 CA        144.4910  -10.6710  145.4290 C.3       8 GLP5        0.0000 
     55 CA        136.9640   -8.7563  144.2110 C.3       4 GLC5        0.0000 
     56 CA        139.1470   -9.5130  144.3090 C.3      12 GLL5        0.0000 
     57 CA        135.2080   -7.5140  144.5430 C.3       8 GLP5        0.0000 
     58 CA        138.8625   -9.0533  142.3060 C.3       4 GLC5        0.0000 
     59 CA        138.2930  -10.4840  143.4490 C.3      12 GLL5        0.0000 
     60 CA        139.0050   -8.1080  140.7330 C.3       8 GLP5        0.0000 
     61 CA        137.8938  -13.7285  144.5935 C.3       4 GLC5        0.0000 
     62 CA        138.7540  -11.9380  143.5230 C.3      12 GLL5        0.0000 
     63 CA        137.4010  -15.0830  146.1830 C.3       8 GLP5        0.0000 
@<TRIPOS>BOND
@<TRIPOS>SUBSTRUCTURE
     1 ALC1       15 GROUP        1 X    ALC  0     ROOT ALC X 1
     2 SEC2        4 GROUP        1 X    SEC  0     **** SEC X 2
     3 LYC4        1 GROUP        1 X    LYC  0     **** LYC X 4
     4 GLC5        9 GROUP        1 X    GLC  0     **** GLC X 6
     5 ALP1       17 GROUP        1 Y    ALP  0     ROOT ALP Y 8
     6 SEP2        6 GROUP        1 Y    SEP  0     **** SEP Y 9
     7 LYP4        3 GROUP        1 Y    LYP  0     **** LYP Y 11
     8 GLP5       11 GROUP        1 Y    GLP  0     **** GLP Y 13
     9 ALL1       16 GROUP        1 Z    ALL  0     ROOT ALL Z 15
    10 SEL2        5 GROUP        1 Z    SEL  0     **** SEL Z 16
    11 LYL4        2 GROUP        1 Z    LYL  0     **** LYL Z 18
    12 GLL5       10 GROUP        1 Z    GLL  0     **** GLL Z 20
@<TRIPOS>SET

