#    Name: 1nqx_RLP_5_ligand
#    Modification time : Mon Mar 24 18:44:03 2014

@<TRIPOS>MOLECULE
1nqx_RLP_5_ligand
   44    45     1     0     0
SMALL
NO_CHARGES


@<TRIPOS>ATOM
      1 O19       142.5730  -13.1890  147.8470 O.co2     1 RLP5201     0.0000 
      2 C18       141.8350  -12.6570  148.6930 C.2       1 RLP5201     0.0000 
      3 O18       140.6510  -12.9200  148.7790 O.co2     1 RLP5201     0.0000 
      4 C17       142.3390  -11.6210  149.6760 C.3       1 RLP5201     0.0000 
      5 C16       142.7770  -10.3890  148.8920 C.3       1 RLP5201     0.0000 
      6 C7        141.6360   -9.5350  148.3690 C.2       1 RLP5201     0.0000 
      7 C8        140.7960  -10.0280  147.2450 C.2       1 RLP5201     0.0000 
      8 O8        141.0470  -11.1700  146.7390 O.3       1 RLP5201     0.0000 
      9 N9        139.7940   -9.2570  146.7650 N.pl3     1 RLP5201     0.0000 
     10 C10       139.5150   -8.0420  147.2960 C.2       1 RLP5201     0.0000 
     11 C5        140.3690   -7.5630  148.3930 C.2       1 RLP5201     0.0000 
     12 N6        141.3870   -8.3050  148.8880 N.2       1 RLP5201     0.0000 
     13 C4        140.0500   -6.2440  148.9620 C.2       1 RLP5201     0.0000 
     14 O4        140.6960   -5.7950  149.9450 O.2       1 RLP5201     0.0000 
     15 N3        139.0300   -5.5610  148.4140 N.am      1 RLP5201     0.0000 
     16 C2        138.3030   -6.0110  147.3910 C.2       1 RLP5201     0.0000 
     17 O2        137.4090   -5.2200  146.9980 O.2       1 RLP5201     0.0000 
     18 N1        138.5190   -7.2250  146.8180 N.2       1 RLP5201     0.0000 
     19 C11       138.8990   -9.7960  145.7400 C.3       1 RLP5201     0.0000 
     20 C12       139.1470   -9.5130  144.3090 C.3       1 RLP5201     0.0000 
     21 O12       138.7380   -8.1400  144.1640 O.3       1 RLP5201     0.0000 
     22 C13       138.2930  -10.4840  143.4490 C.3       1 RLP5201     0.0000 
     23 O13       136.9080  -10.3830  143.8490 O.3       1 RLP5201     0.0000 
     24 C14       138.7540  -11.9380  143.5230 C.3       1 RLP5201     0.0000 
     25 O14       140.1630  -12.0440  143.2770 O.3       1 RLP5201     0.0000 
     26 C15       138.0190  -12.8100  142.4850 C.3       1 RLP5201     0.0000 
     27 O15       138.1610  -12.2190  141.1820 O.3       1 RLP5201     0.0000 
     28 H         143.1827  -12.0161  150.2228 H         1 RLP5201     0.0000 
     29 H         141.5468  -11.3485  150.3579 H         1 RLP5201     0.0000 
     30 H         143.4041  -10.7136  148.0402 H         1 RLP5201     0.0000 
     31 H         143.4253   -9.7677  149.5385 H         1 RLP5201     0.0000 
     32 H         138.7915   -4.6017  148.8257 H         1 RLP5201     0.0000 
     33 H         137.8290   -9.4755  145.9838 H         1 RLP5201     0.0000 
     34 H         138.8348  -10.9300  145.8705 H         1 RLP5201     0.0000 
     35 H         140.1692   -9.6481  144.0914 H         1 RLP5201     0.0000 
     36 H         138.3901  -10.1535  142.4050 H         1 RLP5201     0.0000 
     37 H         138.5074  -12.3278  144.5038 H         1 RLP5201     0.0000 
     38 H         136.9726  -12.8745  142.7894 H         1 RLP5201     0.0000 
     39 H         138.4542  -13.8103  142.5264 H         1 RLP5201     0.0000 
     40 H         140.9486  -11.8157  147.4962 H         1 RLP5201     0.0000 
     41 H         138.4167   -7.8686  145.0712 H         1 RLP5201     0.0000 
     42 H         136.4514   -9.9243  143.0867 H         1 RLP5201     0.0000 
     43 H         140.2599  -12.8253  142.6605 H         1 RLP5201     0.0000 
     44 H         137.2966  -11.7437  141.0179 H         1 RLP5201     0.0000 
@<TRIPOS>BOND
     1    2    1 ar   
     2    3    2 ar   
     3    4    2 1    
     4    5    4 1    
     5   28    4 1    
     6   29    4 1    
     7    6    5 1    
     8   30    5 1    
     9   31    5 1    
    10    7    6 2    
    11   12    6 1    
    12    8    7 1    
    13    9    7 1    
    14   40    8 1    
    15   10    9 1    
    16   19    9 1    
    17   11   10 1    
    18   18   10 2    
    19   12   11 2    
    20   13   11 1    
    21   14   13 2    
    22   15   13 am   
    23   16   15 am   
    24   32   15 1    
    25   17   16 2    
    26   18   16 1    
    27   20   19 1    
    28   33   19 1    
    29   34   19 1    
    30   21   20 1    
    31   22   20 1    
    32   35   20 1    
    33   41   21 1    
    34   23   22 1    
    35   24   22 1    
    36   36   22 1    
    37   42   23 1    
    38   25   24 1    
    39   26   24 1    
    40   37   24 1    
    41   43   25 1    
    42   27   26 1    
    43   38   26 1    
    44   39   26 1    
    45   44   27 1    
@<TRIPOS>SUBSTRUCTURE
     1 RLP5201     1 GROUP   
@<TRIPOS>SET

