#    Name: 1kf6_HQO_2_INTS_M
#    Modification time : Tue Mar 25 09:58:32 2014

@<TRIPOS>MOLECULE
1kf6_HQO_2_INTS_M
   51     0     6     0     0
SMALL
NO_CHARGES


@<TRIPOS>ATOM
      1 N          41.1825  -23.4825  -52.9545 N.am      1 SEC2        0.0000 
      2 N          39.9720  -23.1140  -51.7760 N.am      5 SEL2        0.0000 
      3 N          42.3930  -23.8510  -54.1330 N.am      3 SEP2        0.0000 
      4 N          33.8395  -21.1125  -52.6700 N.am      1 SEC2        0.0000 
      5 N          34.7930  -21.9210  -52.0930 N.am      5 SEL2        0.0000 
      6 N          32.8860  -20.3040  -53.2470 N.am      3 SEP2        0.0000 
      7 CA         38.8445  -19.4785  -48.5725 C.3       2 GLC5        0.0000 
      8 CA         38.7100  -19.3040  -50.4490 C.3       6 GLL5        0.0000 
      9 CA         38.9790  -19.6530  -46.6960 C.3       4 GLP5        0.0000 
     10 CA         39.0985  -20.8475  -48.9595 C.3       2 GLC5        0.0000 
     11 CA         39.1960  -20.5650  -50.8760 C.3       6 GLL5        0.0000 
     12 CA         39.0010  -21.1300  -47.0430 C.3       4 GLP5        0.0000 
     13 CA         37.9370  -21.5645  -49.4075 C.3       2 GLC5        0.0000 
     14 CA         38.2920  -21.5360  -51.4010 C.3       6 GLL5        0.0000 
     15 CA         37.5820  -21.5930  -47.4140 C.3       4 GLP5        0.0000 
     16 CA         36.2180  -23.6200  -56.7955 C.3       2 GLC5        0.0000 
     17 CA         35.0130  -24.0670  -55.4260 C.3       6 GLL5        0.0000 
     18 CA         37.4230  -23.1730  -58.1650 C.3       4 GLP5        0.0000 
     19 CA         37.2085  -24.2800  -55.9570 C.3       2 GLC5        0.0000 
     20 CA         35.9130  -24.7940  -54.4100 C.3       6 GLL5        0.0000 
     21 CA         38.5040  -23.7660  -57.5040 C.3       4 GLP5        0.0000 
     22 CA         37.1705  -26.6175  -54.0385 C.3       2 GLC5        0.0000 
     23 CA         38.4280  -28.4410  -53.6670 C.3       4 GLP5        0.0000 
     24 CA         35.4160  -24.4495  -57.6320 C.3       2 GLC5        0.0000 
     25 CA         34.0990  -25.0720  -56.1070 C.3       6 GLL5        0.0000 
     26 CA         36.7330  -23.8270  -59.1570 C.3       4 GLP5        0.0000 
     27 CA         33.7550  -27.1130  -56.7900 C.3       2 GLC5        0.0000 
     28 CA         33.4110  -29.1540  -57.4730 C.3       4 GLP5        0.0000 
     29 CA         31.8625  -22.8235  -55.4455 C.3       2 GLC5        0.0000 
     30 CA         32.9190  -24.3020  -56.6850 C.3       6 GLL5        0.0000 
     31 CA         30.8060  -21.3450  -54.2060 C.3       4 GLP5        0.0000 
     32 CA         32.9400  -27.0975  -57.7165 C.3       2 GLC5        0.0000 
     33 CA         32.4690  -25.0410  -57.9600 C.3       6 GLL5        0.0000 
     34 CA         30.0640  -25.9915  -56.7525 C.3       2 GLC5        0.0000 
     35 CA         31.0120  -24.6620  -58.2930 C.3       6 GLL5        0.0000 
     36 CA         29.1160  -27.3210  -55.2120 C.3       4 GLP5        0.0000 
     37 CA         36.8869  -24.3919  -50.8124 C.3       2 GLC5        0.0000 
     38 CA         37.8330  -23.7440  -52.3640 C.3       6 GLL5        0.0000 
     39 CA         36.4050  -25.4360  -49.3500 C.3       4 GLP5        0.0000 
     40 CA         37.2785  -20.6917  -49.1606 C.3       2 GLC5        0.0000 
     41 CA         36.8710  -21.2340  -51.4980 C.3       6 GLL5        0.0000 
     42 CA         38.2940  -17.8957  -52.2825 C.3       2 GLC5        0.0000 
     43 CA         37.3140  -18.9910  -50.5370 C.3       6 GLL5        0.0000 
     44 CA         38.5760  -16.6440  -54.0720 C.3       4 GLP5        0.0000 
     45 CA         38.8760  -17.3693  -50.4150 C.3       2 GLC5        0.0000 
     46 CA         39.7400  -15.5910  -50.3370 C.3       4 GLP5        0.0000 
     47 CA         35.3240  -25.6850  -52.2705 C.3       2 GLC5        0.0000 
     48 CA         35.5350  -24.3660  -52.9740 C.3       6 GLL5        0.0000 
     49 CA         34.9240  -26.7900  -50.8490 C.3       4 GLP5        0.0000 
     50 CA         36.2240  -22.4688  -55.0185 C.3       2 GLC5        0.0000 
     51 CA         36.9850  -20.5070  -55.1190 C.3       4 GLP5        0.0000 
@<TRIPOS>BOND
@<TRIPOS>SUBSTRUCTURE
     1 SEC2        1 GROUP        1 X    SEC  0     ROOT SEC X 2
     2 GLC5        7 GROUP        1 X    GLC  0     **** GLC X 6
     3 SEP2        3 GROUP        1 Y    SEP  0     ROOT SEP Y 9
     4 GLP5        9 GROUP        1 Y    GLP  0     **** GLP Y 13
     5 SEL2        2 GROUP        1 Z    SEL  0     ROOT SEL Z 16
     6 GLL5        8 GROUP        1 Z    GLL  0     **** GLL Z 20
@<TRIPOS>SET

