#    Name: 1kf6_HQO_2_ligand
#    Modification time : Tue Mar 25 09:58:32 2014

@<TRIPOS>MOLECULE
1kf6_HQO_2_ligand
   40    41     1     0     0
SMALL
NO_CHARGES


@<TRIPOS>ATOM
      1 C1         38.7500  -22.8090  -51.8410 C.ar      1 HQO800      0.0000 
      2 O1         39.9720  -23.1140  -51.7760 O.3       1 HQO800      0.0000 
      3 C2         37.8330  -23.7440  -52.3640 C.ar      1 HQO800      0.0000 
      4 C3         36.4460  -23.4190  -52.4470 C.ar      1 HQO800      0.0000 
      5 N1         35.9940  -22.1820  -52.0150 N.pl3     1 HQO800      0.0000 
      6 O4         34.7930  -21.9210  -52.0930 O.2       1 HQO800      0.0000 
      7 C5         36.8710  -21.2340  -51.4980 C.ar      1 HQO800      0.0000 
      8 C6         36.4010  -19.9460  -51.0570 C.ar      1 HQO800      0.0000 
      9 C7         37.3140  -18.9910  -50.5370 C.ar      1 HQO800      0.0000 
     10 C8         38.7100  -19.3040  -50.4490 C.ar      1 HQO800      0.0000 
     11 C9         39.1960  -20.5650  -50.8760 C.ar      1 HQO800      0.0000 
     12 C10        38.2920  -21.5360  -51.4010 C.ar      1 HQO800      0.0000 
     13 C11        35.5350  -24.3660  -52.9740 C.3       1 HQO800      0.0000 
     14 C12        35.0130  -24.0670  -55.4260 C.3       1 HQO800      0.0000 
     15 C13        35.9130  -24.7940  -54.4100 C.3       1 HQO800      0.0000 
     16 C14        34.0990  -25.0720  -56.1070 C.3       1 HQO800      0.0000 
     17 C15        32.9190  -24.3020  -56.6850 C.3       1 HQO800      0.0000 
     18 C16        32.4690  -25.0410  -57.9600 C.3       1 HQO800      0.0000 
     19 C17        31.0120  -24.6620  -58.2930 C.3       1 HQO800      0.0000 
     20 H          38.1547  -24.6571  -52.6858 H         1 HQO800      0.0000 
     21 H          35.4097  -19.7283  -51.1220 H         1 HQO800      0.0000 
     22 H          36.9827  -18.0814  -50.2248 H         1 HQO800      0.0000 
     23 H          39.3552  -18.6067  -50.0739 H         1 HQO800      0.0000 
     24 H          40.1878  -20.7817  -50.8100 H         1 HQO800      0.0000 
     25 H          34.5037  -23.9708  -53.0174 H         1 HQO800      0.0000 
     26 H          35.4941  -25.2871  -52.3644 H         1 HQO800      0.0000 
     27 H          35.6379  -23.5806  -56.1649 H         1 HQO800      0.0000 
     28 H          34.4192  -23.3269  -54.9038 H         1 HQO800      0.0000 
     29 H          35.7753  -25.8619  -54.5092 H         1 HQO800      0.0000 
     30 H          36.9461  -24.5347  -54.5966 H         1 HQO800      0.0000 
     31 H          33.7436  -25.7867  -55.3845 H         1 HQO800      0.0000 
     32 H          34.6313  -25.5656  -56.9021 H         1 HQO800      0.0000 
     33 H          33.2242  -23.3061  -56.9439 H         1 HQO800      0.0000 
     34 H          32.1097  -24.2904  -55.9800 H         1 HQO800      0.0000 
     35 H          32.5308  -26.1075  -57.7950 H         1 HQO800      0.0000 
     36 H          33.1085  -24.7547  -58.7830 H         1 HQO800      0.0000 
     37 H          30.9099  -23.6793  -58.4476 H         1 HQO800      0.0000 
     38 H          30.6875  -25.1238  -59.1185 H         1 HQO800      0.0000 
     39 H          30.3857  -24.9090  -57.5536 H         1 HQO800      0.0000 
     40 H          40.4487  -22.2452  -51.6419 H         1 HQO800      0.0000 
@<TRIPOS>BOND
     1    2    1 1    
     2    3    1 ar   
     3   12    1 ar   
     4   40    2 1    
     5    4    3 ar   
     6   20    3 1    
     7    5    4 ar   
     8   13    4 1    
     9    6    5 1    
    10    7    5 ar   
    11    8    7 ar   
    12   12    7 ar   
    13    9    8 ar   
    14   21    8 1    
    15   10    9 ar   
    16   22    9 1    
    17   11   10 ar   
    18   23   10 1    
    19   12   11 ar   
    20   24   11 1    
    21   15   13 1    
    22   25   13 1    
    23   26   13 1    
    24   15   14 1    
    25   16   14 1    
    26   27   14 1    
    27   28   14 1    
    28   29   15 1    
    29   30   15 1    
    30   17   16 1    
    31   31   16 1    
    32   32   16 1    
    33   18   17 1    
    34   33   17 1    
    35   34   17 1    
    36   19   18 1    
    37   35   18 1    
    38   36   18 1    
    39   37   19 1    
    40   38   19 1    
    41   39   19 1    
@<TRIPOS>SUBSTRUCTURE
     1 HQO800      1 GROUP   
@<TRIPOS>SET

