#    Name: 3iif_APR_2_INTS_M
#    Modification time : Tue Mar 25 16:36:53 2014

@<TRIPOS>MOLECULE
3iif_APR_2_INTS_M
   89     0     9     0     0
SMALL
NO_CHARGES


@<TRIPOS>ATOM
      1 N          80.1825  -11.1100    3.8325 N.am      2 SEC2        0.0000 
      2 N          80.0270  -12.5900    3.3160 N.am      8 SEL2        0.0000 
      3 N          80.3380   -9.6300    4.3490 N.am      5 SEP2        0.0000 
      4 CA         78.7180  -12.1760    4.3280 C.3       3 GLC5        0.0000 
      5 CA         78.9160  -12.8900    2.6170 C.3       9 GLL5        0.0000 
      6 CA         78.5200  -11.4620    6.0390 C.3       6 GLP5        0.0000 
      7 CA         78.1845  -14.3430    4.0580 C.3       3 GLC5        0.0000 
      8 CA         77.4530  -15.7960    5.4990 C.3       6 GLP5        0.0000 
      9 CA         76.9310  -13.4060    3.1155 C.3       3 GLC5        0.0000 
     10 CA         74.9460  -13.9220    3.6140 C.3       6 GLP5        0.0000 
     11 CA         78.3615  -11.0305    1.9995 C.3       3 GLC5        0.0000 
     12 CA         77.8070   -9.1710    1.3820 C.3       6 GLP5        0.0000 
     13 CA         80.0990  -13.0100    1.2605 C.3       3 GLC5        0.0000 
     14 CA         81.2820  -13.1300   -0.0960 C.3       6 GLP5        0.0000 
     15 CA         81.6830  -11.5345    3.3765 C.3       3 GLC5        0.0000 
     16 CA         80.9390  -13.5360    3.6000 C.3       9 GLL5        0.0000 
     17 CA         82.4270   -9.5330    3.1530 C.3       6 GLP5        0.0000 
     18 CA         79.7295  -12.4990    4.8195 C.3       3 GLC5        0.0000 
     19 O          82.4310  -12.0805    4.9465 O.2       1 ALC1        0.0000 
     20 O          82.0750  -13.2730    4.2740 O.2       7 ALL1        0.0000 
     21 O          82.7870  -10.8880    5.6190 O.2       4 ALP1        0.0000 
     22 CA         77.9045  -16.4170    3.4465 C.3       3 GLC5        0.0000 
     23 CA         78.3560  -17.0380    1.3940 C.3       9 GLL5        0.0000 
     24 CA         79.5220  -19.1590    2.7940 C.3       3 GLC5        0.0000 
     25 CA         78.5000  -18.4690    0.9270 C.3       9 GLL5        0.0000 
     26 CA         80.5440  -19.8490    4.6610 C.3       6 GLP5        0.0000 
     27 O          79.0755  -18.0675   -1.5825 O.2       1 ALC1        0.0000 
     28 O          79.2340  -18.5830   -0.2810 O.2       7 ALL1        0.0000 
     29 O          78.9170  -17.5520   -2.8840 O.2       4 ALP1        0.0000 
     30 O          75.3300  -19.0995   -0.9115 O.2       1 ALC1        0.0000 
     31 O          76.5060  -18.5660   -0.5030 O.2       7 ALL1        0.0000 
     32 O          74.1540  -19.6330   -1.3200 O.2       4 ALP1        0.0000 
     33 CA         74.9950  -17.1710    0.4060 C.3       3 GLC5        0.0000 
     34 CA         76.3130  -17.9890    1.8390 C.3       9 GLL5        0.0000 
     35 CA         73.6770  -16.3530   -1.0270 C.3       6 GLP5        0.0000 
     36 CA         73.4735  -18.3645    3.0115 C.3       3 GLC5        0.0000 
     37 CA         75.6780  -18.7820    2.9790 C.3       9 GLL5        0.0000 
     38 CA         71.2690  -17.9470    3.0440 C.3       6 GLP5        0.0000 
     39 CA         76.2635  -20.6340    2.3835 C.3       3 GLC5        0.0000 
     40 CA         76.8490  -22.4860    1.7880 C.3       6 GLP5        0.0000 
     41 N          78.0380  -18.4540    6.3565 N.am      2 SEC2        0.0000 
     42 N          76.8640  -19.0630    5.9540 N.am      8 SEL2        0.0000 
     43 N          79.2120  -17.8450    6.7590 N.am      5 SEP2        0.0000 
     44 N          78.3895  -21.0840    5.9450 N.am      2 SEC2        0.0000 
     45 N          77.3100  -21.4950    5.1390 N.am      8 SEL2        0.0000 
     46 N          79.4690  -20.6730    6.7510 N.am      5 SEP2        0.0000 
     47 N          77.0605  -22.7670    4.3740 N.am      2 SEC2        0.0000 
     48 N          76.8110  -24.0390    3.6090 N.am      5 SEP2        0.0000 
     49 N          71.2330  -21.5590    5.5725 N.am      2 SEC2        0.0000 
     50 N          72.5270  -21.2480    5.2030 N.am      8 SEL2        0.0000 
     51 N          69.9390  -21.8700    5.9420 N.am      5 SEP2        0.0000 
     52 N          72.0155  -20.8070    4.0500 N.am      2 SEC2        0.0000 
     53 N          71.5040  -20.3660    2.8970 N.am      5 SEP2        0.0000 
     54 N          74.9050  -22.2800    2.5210 N.am      2 SEC2        0.0000 
     55 N          74.2770  -22.4830    3.7500 N.am      8 SEL2        0.0000 
     56 N          75.5330  -22.0770    1.2920 N.am      5 SEP2        0.0000 
     57 N          74.3230  -23.9365    3.7255 N.am      2 SEC2        0.0000 
     58 N          74.3690  -25.3900    3.7010 N.am      5 SEP2        0.0000 
     59 CA         73.3570  -20.5365    7.5245 C.3       3 GLC5        0.0000 
     60 CA         73.9450  -22.4620    7.5570 C.3       9 GLL5        0.0000 
     61 CA         72.7690  -18.6110    7.4920 C.3       6 GLP5        0.0000 
     62 CA         71.8005  -21.8605    7.3645 C.3       3 GLC5        0.0000 
     63 CA         69.6560  -21.2590    7.1720 C.3       6 GLP5        0.0000 
     64 CA         77.1645  -23.1105    9.2465 C.3       3 GLC5        0.0000 
     65 CA         75.9580  -24.4070    9.8870 C.3       9 GLL5        0.0000 
     66 CA         78.3710  -21.8140    8.6060 C.3       6 GLP5        0.0000 
     67 CA         76.4465  -24.8200    7.8225 C.3       3 GLC5        0.0000 
     68 CA         76.9350  -25.2330    5.7580 C.3       6 GLP5        0.0000 
     69 O          71.6535  -23.5430   10.1240 O.2       1 ALC1        0.0000 
     70 O          72.5660  -24.8330    9.4020 O.2       7 ALL1        0.0000 
     71 O          70.7410  -22.2530   10.8460 O.2       4 ALP1        0.0000 
     72 O          71.3360  -24.6955    9.4635 O.2       1 ALC1        0.0000 
     73 O          70.1060  -24.5580    9.5250 O.2       4 ALP1        0.0000 
     74 CA         76.3765  -22.7575    8.4680 C.3       3 GLC5        0.0000 
     75 CA         74.3820  -23.7010    8.3300 C.3       9 GLL5        0.0000 
     76 CA         78.7630  -15.4108    4.1333 C.3       3 GLC5        0.0000 
     77 CA         79.4550  -15.1430    2.4020 C.3       9 GLL5        0.0000 
     78 CA         80.8940  -13.7054    1.5439 C.3       3 GLC5        0.0000 
     79 CA         77.3058  -20.5735    1.3250 C.3       3 GLC5        0.0000 
     80 CA         76.7243  -17.0907    3.9540 C.3       3 GLC5        0.0000 
     81 CA         75.5493  -24.1572    6.8508 C.3       3 GLC5        0.0000 
     82 CA         76.1508  -24.7840   11.9642 C.3       3 GLC5        0.0000 
     83 CA         77.0060  -25.1440   13.6770 C.3       6 GLP5        0.0000 
     84 CA         73.2713  -22.4672   10.9402 C.3       3 GLC5        0.0000 
     85 CA         74.6330  -24.4410   10.6160 C.3       9 GLL5        0.0000 
     86 CA         72.4140  -20.7660   11.7600 C.3       6 GLP5        0.0000 
     87 CA         72.7812  -24.6373   11.6342 C.3       3 GLC5        0.0000 
     88 CA         73.6240  -23.8960    9.6250 C.3       9 GLL5        0.0000 
     89 CA         71.4340  -25.1060   13.1480 C.3       6 GLP5        0.0000 
@<TRIPOS>BOND
@<TRIPOS>SUBSTRUCTURE
     1 ALC1       19 GROUP        1 X    ALC  0     ROOT ALC X 1
     2 SEC2        1 GROUP        1 X    SEC  0     **** SEC X 2
     3 GLC5        4 GROUP        1 X    GLC  0     **** GLC X 6
     4 ALP1       21 GROUP        1 Y    ALP  0     ROOT ALP Y 8
     5 SEP2        3 GROUP        1 Y    SEP  0     **** SEP Y 9
     6 GLP5        6 GROUP        1 Y    GLP  0     **** GLP Y 13
     7 ALL1       20 GROUP        1 Z    ALL  0     ROOT ALL Z 15
     8 SEL2        2 GROUP        1 Z    SEL  0     **** SEL Z 16
     9 GLL5        5 GROUP        1 Z    GLL  0     **** GLL Z 20
@<TRIPOS>SET

