#    Name: 3iif_APR_2_ligand
#    Modification time : Tue Mar 25 16:36:53 2014

@<TRIPOS>MOLECULE
3iif_APR_2_ligand
   57    60     1     0     0
SMALL
NO_CHARGES


@<TRIPOS>ATOM
      1 N1         80.0270  -12.5900    3.3160 N.ar      1 APR400      0.0000 
      2 C2         78.9160  -12.8900    2.6170 C.ar      1 APR400      0.0000 
      3 N3         78.6200  -14.1220    2.1790 N.ar      1 APR400      0.0000 
      4 C4         79.4550  -15.1430    2.4020 C.ar      1 APR400      0.0000 
      5 C5         80.6910  -14.9080    3.1330 C.ar      1 APR400      0.0000 
      6 C6         80.9390  -13.5360    3.6000 C.ar      1 APR400      0.0000 
      7 N6         82.0750  -13.2730    4.2740 N.pl3     1 APR400      0.0000 
      8 N7         81.3300  -16.0830    3.2270 N.2       1 APR400      0.0000 
      9 C8         80.5720  -17.0010    2.5870 C.2       1 APR400      0.0000 
     10 N9         79.4690  -16.4270    2.0880 N.pl3     1 APR400      0.0000 
     11 C1'        78.3560  -17.0380    1.3940 C.3       1 APR400      0.0000 
     12 C2'        78.5000  -18.4690    0.9270 C.3       1 APR400      0.0000 
     13 O2'        79.2340  -18.5830   -0.2810 O.3       1 APR400      0.0000 
     14 C3'        77.0250  -18.8530    0.7970 C.3       1 APR400      0.0000 
     15 O3'        76.5060  -18.5660   -0.5030 O.3       1 APR400      0.0000 
     16 O4'        77.2980  -17.0930    2.3590 O.3       1 APR400      0.0000 
     17 C4'        76.3130  -17.9890    1.8390 C.3       1 APR400      0.0000 
     18 C5'        75.6780  -18.7820    2.9790 C.3       1 APR400      0.0000 
     19 O5'        76.5560  -19.7800    3.5000 O.3       1 APR400      0.0000 
     20 PA         76.5040  -20.2050    5.0480 P.3       1 APR400      0.0000 
     21 O1A        76.8640  -19.0630    5.9540 O.co2     1 APR400      0.0000 
     22 O2A        77.3100  -21.4950    5.1390 O.co2     1 APR400      0.0000 
     23 O3A        74.9270  -20.5120    5.3190 O.3       1 APR400      0.0000 
     24 PB         73.9380  -21.7450    5.0120 P.3       1 APR400      0.0000 
     25 O1B        72.5270  -21.2480    5.2030 O.co2     1 APR400      0.0000 
     26 O2B        74.2770  -22.4830    3.7500 O.co2     1 APR400      0.0000 
     27 O5D        74.2260  -22.7510    6.2070 O.3       1 APR400      0.0000 
     28 C5D        73.9450  -22.4620    7.5570 C.3       1 APR400      0.0000 
     29 O4D        75.7570  -23.6350    8.6950 O.3       1 APR400      0.0000 
     30 O1D        76.3080  -25.7540    9.5570 O.3       1 APR400      0.0000 
     31 C1D        75.9580  -24.4070    9.8870 C.3       1 APR400      0.0000 
     32 O2D        74.7030  -23.6320   11.7830 O.3       1 APR400      0.0000 
     33 C2D        74.6330  -24.4410   10.6160 C.3       1 APR400      0.0000 
     34 O3D        72.5660  -24.8330    9.4020 O.3       1 APR400      0.0000 
     35 C3D        73.6240  -23.8960    9.6250 C.3       1 APR400      0.0000 
     36 C4D        74.3820  -23.7010    8.3300 C.3       1 APR400      0.0000 
     37 H          78.2309  -12.0973    2.3996 H         1 APR400      0.0000 
     38 H          82.8581  -13.8574    4.0615 H         1 APR400      0.0000 
     39 H          82.0342  -12.5167    4.9269 H         1 APR400      0.0000 
     40 H          80.8020  -17.9491    2.5036 H         1 APR400      0.0000 
     41 H          78.0241  -16.4311    0.5674 H         1 APR400      0.0000 
     42 H          78.8990  -19.0315    1.7456 H         1 APR400      0.0000 
     43 H          76.9139  -19.8695    1.0840 H         1 APR400      0.0000 
     44 H          75.5375  -17.4260    1.3294 H         1 APR400      0.0000 
     45 H          74.7415  -19.2284    2.5926 H         1 APR400      0.0000 
     46 H          75.3781  -18.0583    3.7612 H         1 APR400      0.0000 
     47 H          72.8906  -22.3104    7.7398 H         1 APR400      0.0000 
     48 H          74.5116  -21.6204    7.9295 H         1 APR400      0.0000 
     49 H          76.6770  -23.9560   10.5266 H         1 APR400      0.0000 
     50 H          74.3912  -25.4571   10.8235 H         1 APR400      0.0000 
     51 H          73.2782  -22.9532    9.9618 H         1 APR400      0.0000 
     52 H          74.2057  -24.5796    7.7112 H         1 APR400      0.0000 
     53 H          78.7292  -18.0297   -0.9436 H         1 APR400      0.0000 
     54 H          75.6276  -19.0424   -0.5418 H         1 APR400      0.0000 
     55 H          77.2738  -25.7149    9.3005 H         1 APR400      0.0000 
     56 H          75.2131  -22.8185   11.5036 H         1 APR400      0.0000 
     57 H          71.7245  -24.3103    9.5387 H         1 APR400      0.0000 
@<TRIPOS>BOND
     1    2    1 ar   
     2    6    1 ar   
     3    3    2 ar   
     4   37    2 1    
     5    4    3 ar   
     6    5    4 ar   
     7   10    4 1    
     8    6    5 ar   
     9    8    5 1    
    10    7    6 1    
    11   38    7 1    
    12   39    7 1    
    13    9    8 2    
    14   10    9 1    
    15   40    9 1    
    16   11   10 1    
    17   12   11 1    
    18   16   11 1    
    19   41   11 1    
    20   13   12 1    
    21   14   12 1    
    22   42   12 1    
    23   53   13 1    
    24   15   14 1    
    25   17   14 1    
    26   43   14 1    
    27   54   15 1    
    28   17   16 1    
    29   18   17 1    
    30   44   17 1    
    31   19   18 1    
    32   45   18 1    
    33   46   18 1    
    34   20   19 1    
    35   21   20 ar   
    36   22   20 ar   
    37   23   20 1    
    38   24   23 1    
    39   25   24 ar   
    40   26   24 ar   
    41   27   24 1    
    42   28   27 1    
    43   36   28 1    
    44   47   28 1    
    45   48   28 1    
    46   31   29 1    
    47   36   29 1    
    48   31   30 1    
    49   55   30 1    
    50   33   31 1    
    51   49   31 1    
    52   33   32 1    
    53   56   32 1    
    54   35   33 1    
    55   50   33 1    
    56   35   34 1    
    57   57   34 1    
    58   36   35 1    
    59   51   35 1    
    60   52   36 1    
@<TRIPOS>SUBSTRUCTURE
     1 APR400      1 GROUP   
@<TRIPOS>SET

