#    Name: 1e3r_AND_1_INTS_M
#    Modification time : Mon Mar 24 22:50:04 2014

@<TRIPOS>MOLECULE
1e3r_AND_1_INTS_M
   56     0     9     0     0
SMALL
NO_CHARGES


@<TRIPOS>ATOM
      1 CA         25.9595  -32.8770  -36.1505 C.3       3 GLC5        0.0000 
      2 CA         24.7520  -33.0360  -37.9390 C.3       9 GLL5        0.0000 
      3 CA         27.1670  -32.7180  -34.3620 C.3       6 GLP5        0.0000 
      4 CA         22.8760  -36.1360  -38.7060 C.3       3 GLC5        0.0000 
      5 CA         23.9180  -34.3190  -38.0930 C.3       9 GLL5        0.0000 
      6 CA         21.8340  -37.9530  -39.3190 C.3       6 GLP5        0.0000 
      7 CA         23.1600  -34.4020  -40.1100 C.3       3 GLC5        0.0000 
      8 CA         22.4020  -34.4850  -42.1270 C.3       6 GLP5        0.0000 
      9 CA         24.2565  -34.8535  -35.9515 C.3       3 GLC5        0.0000 
     10 CA         24.5950  -35.3880  -33.8100 C.3       6 GLP5        0.0000 
     11 CA         22.6370  -36.3740  -37.5960 C.3       3 GLC5        0.0000 
     12 CA         22.8210  -34.2740  -36.9990 C.3       9 GLL5        0.0000 
     13 CA         22.4530  -38.4740  -38.1930 C.3       6 GLP5        0.0000 
     14 CA         23.0365  -34.9690  -35.3145 C.3       3 GLC5        0.0000 
     15 CA         23.2520  -35.6640  -33.6300 C.3       6 GLP5        0.0000 
     16 N          21.1650  -36.0725  -36.3040 N.am      2 SEC2        0.0000 
     17 N          21.9840  -35.4060  -37.0190 N.am      8 SEL2        0.0000 
     18 N          20.3460  -36.7390  -35.5890 N.am      5 SEP2        0.0000 
     19 O          21.8085  -36.0045  -38.2165 O.2       1 ALC1        0.0000 
     20 O          21.9840  -35.4060  -37.0190 O.2       7 ALL1        0.0000 
     21 O          21.6330  -36.6030  -39.4140 O.2       4 ALP1        0.0000 
     22 CA         20.2455  -32.8010  -35.8250 C.3       3 GLC5        0.0000 
     23 CA         21.9080  -33.0420  -37.1780 C.3       9 GLL5        0.0000 
     24 CA         18.5830  -32.5600  -34.4720 C.3       6 GLP5        0.0000 
     25 CA         21.7640  -29.1510  -35.0775 C.3       3 GLC5        0.0000 
     26 CA         22.4780  -30.7190  -36.3140 C.3       9 GLL5        0.0000 
     27 CA         21.0500  -27.5830  -33.8410 C.3       6 GLP5        0.0000 
     28 CA         24.3040  -28.6750  -34.7620 C.3       3 GLC5        0.0000 
     29 CA         23.1790  -29.3510  -36.3760 C.3       9 GLL5        0.0000 
     30 CA         25.4290  -27.9990  -33.1480 C.3       6 GLP5        0.0000 
     31 CA         22.2495  -27.9790  -35.5870 C.3       3 GLC5        0.0000 
     32 CA         21.3200  -26.6070  -34.7980 C.3       6 GLP5        0.0000 
     33 CA         27.0675  -31.4070  -40.3835 C.3       3 GLC5        0.0000 
     34 CA         26.0850  -30.3400  -38.9680 C.3       9 GLL5        0.0000 
     35 CA         28.0500  -32.4740  -41.7990 C.3       6 GLP5        0.0000 
     36 CA         23.3405  -26.0280  -35.7085 C.3       3 GLC5        0.0000 
     37 CA         24.7070  -26.5780  -37.0340 C.3       9 GLL5        0.0000 
     38 CA         21.9740  -25.4780  -34.3830 C.3       6 GLP5        0.0000 
     39 CA         25.7335  -27.7100  -41.6270 C.3       3 GLC5        0.0000 
     40 CA         25.5390  -27.3990  -39.8650 C.3       9 GLL5        0.0000 
     41 CA         25.9280  -28.0210  -43.3890 C.3       6 GLP5        0.0000 
     42 CA         21.8390  -30.6220  -40.5360 C.3       3 GLC5        0.0000 
     43 CA         23.4030  -31.6990  -39.6580 C.3       9 GLL5        0.0000 
     44 CA         20.2750  -29.5450  -41.4140 C.3       6 GLP5        0.0000 
     45 CA         22.9025  -33.0920  -40.8925 C.3       3 GLC5        0.0000 
     46 CA         25.6955  -34.6818  -38.9125 C.3       3 GLC5        0.0000 
     47 CA         27.0560  -35.6860  -39.8090 C.3       6 GLP5        0.0000 
     48 CA         20.4348  -34.2495  -37.5363 C.3       3 GLC5        0.0000 
     49 CA         18.5050  -34.8410  -37.9840 C.3       6 GLP5        0.0000 
     50 CA         28.3295  -30.6187  -38.9102 C.3       3 GLC5        0.0000 
     51 CA         30.1220  -31.5020  -39.0430 C.3       6 GLP5        0.0000 
     52 CA         27.6605  -30.5102  -37.2153 C.3       3 GLC5        0.0000 
     53 CA         26.9890  -29.1310  -38.5870 C.3       9 GLL5        0.0000 
     54 CA         28.7840  -31.2850  -35.6530 C.3       6 GLP5        0.0000 
     55 CA         25.1845  -27.6480  -35.1653 C.3       3 GLC5        0.0000 
     56 CA         25.1730  -28.0160  -37.3310 C.3       9 GLL5        0.0000 
@<TRIPOS>BOND
@<TRIPOS>SUBSTRUCTURE
     1 ALC1       19 GROUP        1 X    ALC  0     ROOT ALC X 1
     2 SEC2       16 GROUP        1 X    SEC  0     **** SEC X 2
     3 GLC5        1 GROUP        1 X    GLC  0     **** GLC X 6
     4 ALP1       21 GROUP        1 Y    ALP  0     ROOT ALP Y 8
     5 SEP2       18 GROUP        1 Y    SEP  0     **** SEP Y 9
     6 GLP5        3 GROUP        1 Y    GLP  0     **** GLP Y 13
     7 ALL1       20 GROUP        1 Z    ALL  0     ROOT ALL Z 15
     8 SEL2       17 GROUP        1 Z    SEL  0     **** SEL Z 16
     9 GLL5        2 GROUP        1 Z    GLL  0     **** GLL Z 20
@<TRIPOS>SET

