#    Name: 1e3r_AND_1_ligand
#    Modification time : Mon Mar 24 22:50:04 2014

@<TRIPOS>MOLECULE
1e3r_AND_1_ligand
   49    52     1     0     0
SMALL
NO_CHARGES


@<TRIPOS>ATOM
      1 C1         24.7520  -33.0360  -37.9390 C.3       1 AND801      0.0000 
      2 C2         23.9180  -34.3190  -38.0930 C.3       1 AND801      0.0000 
      3 C3         22.8210  -34.2740  -36.9990 C.3       1 AND801      0.0000 
      4 O3         21.9840  -35.4060  -37.0190 O.3       1 AND801      0.0000 
      5 C4         21.9080  -33.0420  -37.1780 C.3       1 AND801      0.0000 
      6 C5         22.6980  -31.7190  -37.2180 C.2       1 AND801      0.0000 
      7 C6         22.4780  -30.7190  -36.3140 C.2       1 AND801      0.0000 
      8 C7         23.1790  -29.3510  -36.3760 C.3       1 AND801      0.0000 
      9 C8         24.1430  -29.1670  -37.6000 C.3       1 AND801      0.0000 
     10 C9         24.8950  -30.5010  -37.9050 C.3       1 AND801      0.0000 
     11 C10        23.9310  -31.7240  -38.1910 C.3       1 AND801      0.0000 
     12 C11        26.0850  -30.3400  -38.9680 C.3       1 AND801      0.0000 
     13 C12        26.9890  -29.1310  -38.5870 C.3       1 AND801      0.0000 
     14 C13        26.1580  -27.8220  -38.4860 C.3       1 AND801      0.0000 
     15 C14        25.1730  -28.0160  -37.3310 C.3       1 AND801      0.0000 
     16 C15        24.7070  -26.5780  -37.0340 C.3       1 AND801      0.0000 
     17 C16        26.0350  -25.7680  -37.0690 C.3       1 AND801      0.0000 
     18 C17        26.9340  -26.6030  -38.0090 C.2       1 AND801      0.0000 
     19 O17        28.0590  -26.3300  -38.3130 O.2       1 AND801      0.0000 
     20 C18        25.5390  -27.3990  -39.8650 C.3       1 AND801      0.0000 
     21 C19        23.4030  -31.6990  -39.6580 C.3       1 AND801      0.0000 
     22 H          25.5870  -33.0581  -38.6467 H         1 AND801      0.0000 
     23 H          25.1662  -32.9911  -36.9266 H         1 AND801      0.0000 
     24 H          24.5390  -35.1738  -37.9336 H         1 AND801      0.0000 
     25 H          23.4545  -34.3341  -39.0556 H         1 AND801      0.0000 
     26 H          23.3113  -34.1613  -36.0357 H         1 AND801      0.0000 
     27 H          21.1949  -33.0060  -36.3500 H         1 AND801      0.0000 
     28 H          21.3462  -33.1496  -38.1097 H         1 AND801      0.0000 
     29 H          21.8189  -30.8180  -35.5211 H         1 AND801      0.0000 
     30 H          23.7628  -29.2005  -35.4565 H         1 AND801      0.0000 
     31 H          22.4203  -28.5561  -36.4169 H         1 AND801      0.0000 
     32 H          23.5552  -28.9029  -38.4596 H         1 AND801      0.0000 
     33 H          25.4281  -30.7737  -36.9273 H         1 AND801      0.0000 
     34 H          25.6453  -30.1758  -39.9353 H         1 AND801      0.0000 
     35 H          26.6640  -31.2458  -38.9569 H         1 AND801      0.0000 
     36 H          27.7519  -29.0086  -39.3469 H         1 AND801      0.0000 
     37 H          27.4563  -29.3288  -37.6294 H         1 AND801      0.0000 
     38 H          25.8177  -28.3202  -36.4659 H         1 AND801      0.0000 
     39 H          24.2931  -26.5268  -36.0678 H         1 AND801      0.0000 
     40 H          24.0725  -26.2400  -37.8025 H         1 AND801      0.0000 
     41 H          26.4545  -25.7425  -36.1036 H         1 AND801      0.0000 
     42 H          25.8561  -24.8214  -37.4941 H         1 AND801      0.0000 
     43 H          26.2447  -27.2353  -40.5543 H         1 AND801      0.0000 
     44 H          24.9301  -28.1031  -40.2304 H         1 AND801      0.0000 
     45 H          25.0028  -26.5583  -39.7892 H         1 AND801      0.0000 
     46 H          24.1498  -31.7334  -40.3221 H         1 AND801      0.0000 
     47 H          22.8037  -32.4761  -39.8503 H         1 AND801      0.0000 
     48 H          22.8782  -30.8697  -39.8497 H         1 AND801      0.0000 
     49 H          21.9845  -35.7113  -37.9712 H         1 AND801      0.0000 
@<TRIPOS>BOND
     1    2    1 1    
     2   11    1 1    
     3   22    1 1    
     4   23    1 1    
     5    3    2 1    
     6   24    2 1    
     7   25    2 1    
     8    4    3 1    
     9    5    3 1    
    10   26    3 1    
    11   49    4 1    
    12    6    5 1    
    13   27    5 1    
    14   28    5 1    
    15    7    6 2    
    16   11    6 1    
    17    8    7 1    
    18   29    7 1    
    19    9    8 1    
    20   30    8 1    
    21   31    8 1    
    22   10    9 1    
    23   15    9 1    
    24   32    9 1    
    25   11   10 1    
    26   12   10 1    
    27   33   10 1    
    28   21   11 1    
    29   13   12 1    
    30   34   12 1    
    31   35   12 1    
    32   14   13 1    
    33   36   13 1    
    34   37   13 1    
    35   15   14 1    
    36   18   14 1    
    37   20   14 1    
    38   16   15 1    
    39   38   15 1    
    40   17   16 1    
    41   39   16 1    
    42   40   16 1    
    43   18   17 1    
    44   41   17 1    
    45   42   17 1    
    46   19   18 2    
    47   43   20 1    
    48   44   20 1    
    49   45   20 1    
    50   46   21 1    
    51   47   21 1    
    52   48   21 1    
@<TRIPOS>SUBSTRUCTURE
     1 AND801      1 GROUP   
@<TRIPOS>SET

