#    Name: 3ipu_O40_2_INTS_M
#    Modification time : Tue Mar 25 17:04:51 2014

@<TRIPOS>MOLECULE
3ipu_O40_2_INTS_M
   85     0     6     0     0
SMALL
NO_CHARGES


@<TRIPOS>ATOM
      1 CA         51.7200  -39.3820   26.4615 C.3       2 GLC5        0.0000 
      2 CA         49.6010  -39.6540   27.1500 C.3       6 GLL5        0.0000 
      3 CA         53.8390  -39.1100   25.7730 C.3       4 GLP5        0.0000 
      4 N          46.2695  -36.4045   25.1500 N.am      1 SEC2        0.0000 
      5 N          47.2660  -36.9220   26.3370 N.am      5 SEL2        0.0000 
      6 N          45.2730  -35.8870   23.9630 N.am      3 SEP2        0.0000 
      7 CA         45.3955  -41.7130   25.2600 C.3       2 GLC5        0.0000 
      8 CA         45.3320  -40.7970   27.0830 C.3       6 GLL5        0.0000 
      9 CA         45.4590  -42.6290   23.4370 C.3       4 GLP5        0.0000 
     10 CA         49.6620  -51.4695   29.6910 C.3       2 GLC5        0.0000 
     11 CA         47.7120  -51.5950   28.8510 C.3       6 GLL5        0.0000 
     12 CA         51.6120  -51.3440   30.5310 C.3       4 GLP5        0.0000 
     13 CA         49.3705  -42.3660   29.7940 C.3       2 GLC5        0.0000 
     14 CA         48.3600  -43.4980   28.4430 C.3       6 GLL5        0.0000 
     15 CA         50.3810  -41.2340   31.1450 C.3       4 GLP5        0.0000 
     16 CA         42.3865  -40.1110   28.5010 C.3       2 GLC5        0.0000 
     17 CA         44.5750  -40.3420   28.3590 C.3       6 GLL5        0.0000 
     18 CA         40.1980  -39.8800   28.6430 C.3       4 GLP5        0.0000 
     19 CA         44.4345  -38.1995   28.5440 C.3       2 GLC5        0.0000 
     20 CA         44.2940  -36.0570   28.7290 C.3       4 GLP5        0.0000 
     21 CA         43.3325  -42.6985   30.6630 C.3       2 GLC5        0.0000 
     22 CA         44.6480  -41.3900   29.4980 C.3       6 GLL5        0.0000 
     23 CA         42.0170  -44.0070   31.8280 C.3       4 GLP5        0.0000 
     24 CA         45.2425  -41.0840   31.4705 C.3       2 GLC5        0.0000 
     25 CA         45.8370  -40.7780   33.4430 C.3       4 GLP5        0.0000 
     26 CA         44.4670  -44.9655   25.5335 C.3       2 GLC5        0.0000 
     27 CA         44.7690  -46.0710   27.3360 C.3       6 GLL5        0.0000 
     28 CA         44.1650  -43.8600   23.7310 C.3       4 GLP5        0.0000 
     29 CA         43.0145  -47.1855   26.9375 C.3       2 GLC5        0.0000 
     30 CA         41.2600  -48.3000   26.5390 C.3       4 GLP5        0.0000 
     31 CA         45.2690  -46.3085   29.1660 C.3       2 GLC5        0.0000 
     32 CA         45.7690  -46.5460   30.9960 C.3       4 GLP5        0.0000 
     33 CA         48.3830  -44.7330   25.5480 C.3       2 GLC5        0.0000 
     34 CA         47.1780  -45.3350   27.1180 C.3       6 GLL5        0.0000 
     35 CA         49.5880  -44.1310   23.9780 C.3       4 GLP5        0.0000 
     36 CA         47.0345  -46.2075   25.1765 C.3       2 GLC5        0.0000 
     37 CA         46.8910  -47.0800   23.2350 C.3       4 GLP5        0.0000 
     38 CA         46.4735  -45.9405   29.0570 C.3       2 GLC5        0.0000 
     39 N          46.0565  -55.3940   26.6515 N.am      1 SEC2        0.0000 
     40 N          46.8290  -55.0190   28.0620 N.am      5 SEL2        0.0000 
     41 N          45.2840  -55.7690   25.2410 N.am      3 SEP2        0.0000 
     42 CA         48.1780  -34.0830   26.8705 C.3       2 GLC5        0.0000 
     43 CA         49.2520  -35.3630   25.6600 C.3       6 GLL5        0.0000 
     44 CA         47.1040  -32.8030   28.0810 C.3       4 GLP5        0.0000 
     45 CA         48.1335  -34.0730   24.2080 C.3       2 GLC5        0.0000 
     46 CA         47.0150  -32.7830   22.7560 C.3       4 GLP5        0.0000 
     47 CA         52.5905  -36.4415   26.7700 C.3       2 GLC5        0.0000 
     48 CA         50.7290  -37.0690   25.8330 C.3       6 GLL5        0.0000 
     49 CA         54.4520  -35.8140   27.7070 C.3       4 GLP5        0.0000 
     50 CA         52.2840  -38.0895   25.8030 C.3       2 GLC5        0.0000 
     51 CA         52.2980  -35.8755   27.6425 C.3       2 GLC5        0.0000 
     52 CA         50.1440  -35.9370   27.5780 C.3       6 GLL5        0.0000 
     53 CA         50.2045  -36.4930   29.2860 C.3       2 GLC5        0.0000 
     54 CA         50.2650  -37.0490   30.9940 C.3       4 GLP5        0.0000 
     55 CA         48.6240  -34.3700   27.8295 C.3       2 GLC5        0.0000 
     56 CA         50.9815  -40.8860   28.6088 C.3       2 GLC5        0.0000 
     57 CA         49.2170  -40.9640   27.4290 C.3       6 GLL5        0.0000 
     58 CA         52.5540  -41.4630   29.9280 C.3       4 GLP5        0.0000 
     59 CA         49.3561  -41.5090   25.7067 C.3       2 GLC5        0.0000 
     60 CA         49.6440  -42.6150   24.1280 C.3       4 GLP5        0.0000 
     61 CA         45.0838  -50.5010   29.4967 C.3       2 GLC5        0.0000 
     62 CA         46.1890  -50.0080   27.7930 C.3       6 GLL5        0.0000 
     63 CA         43.4260  -50.8550   30.7890 C.3       4 GLP5        0.0000 
     64 CA         47.6320  -50.5042   30.6863 C.3       2 GLC5        0.0000 
     65 CA         47.2940  -50.2860   28.6160 C.3       6 GLL5        0.0000 
     66 CA         47.7610  -50.0680   32.6390 C.3       4 GLP5        0.0000 
     67 CA         44.0583  -39.7878   26.0550 C.3       2 GLC5        0.0000 
     68 CA         43.1630  -39.0060   24.3890 C.3       4 GLP5        0.0000 
     69 CA         48.8780  -52.4128   27.4123 C.3       2 GLC5        0.0000 
     70 CA         50.3860  -52.6910   26.2570 C.3       4 GLP5        0.0000 
     71 CA         47.0610  -44.7737   30.0405 C.3       2 GLC5        0.0000 
     72 CA         47.6800  -44.8790   28.5150 C.3       6 GLL5        0.0000 
     73 CA         46.1020  -45.3590   31.6020 C.3       4 GLP5        0.0000 
     74 CA         43.9357  -39.4335   30.2133 C.3       2 GLC5        0.0000 
     75 CA         43.2600  -38.0010   31.4980 C.3       4 GLP5        0.0000 
     76 CA         44.5655  -51.3017   29.0693 C.3       2 GLC5        0.0000 
     77 CA         45.4950  -51.0870   27.2260 C.3       6 GLL5        0.0000 
     78 CA         49.3945  -45.6054   27.6293 C.3       2 GLC5        0.0000 
     79 CA         51.1900  -46.4490   27.4600 C.3       4 GLP5        0.0000 
     80 CA         51.1393  -36.0408   24.5694 C.3       2 GLC5        0.0000 
     81 CA         52.1820  -35.6030   23.2070 C.3       4 GLP5        0.0000 
     82 CA         49.0983  -37.3362   24.2764 C.3       2 GLC5        0.0000 
     83 CA         48.1000  -38.1940   22.6210 C.3       4 GLP5        0.0000 
     84 CA         50.8331  -34.4954   26.3339 C.3       2 GLC5        0.0000 
     85 CA         51.5460  -32.7830   25.9130 C.3       4 GLP5        0.0000 
@<TRIPOS>BOND
@<TRIPOS>SUBSTRUCTURE
     1 SEC2        4 GROUP        1 X    SEC  0     ROOT SEC X 2
     2 GLC5        1 GROUP        1 X    GLC  0     **** GLC X 6
     3 SEP2        6 GROUP        1 Y    SEP  0     ROOT SEP Y 9
     4 GLP5        3 GROUP        1 Y    GLP  0     **** GLP Y 13
     5 SEL2        5 GROUP        1 Z    SEL  0     ROOT SEL Z 16
     6 GLL5        2 GROUP        1 Z    GLL  0     **** GLL Z 20
@<TRIPOS>SET

