#    Name: 3ipu_O40_2_ligand
#    Modification time : Tue Mar 25 17:04:51 2014

@<TRIPOS>MOLECULE
3ipu_O40_2_ligand
   57    59     1     0     0
SMALL
NO_CHARGES


@<TRIPOS>ATOM
      1 C1         49.2170  -40.9640   27.4290 C.ar      1 O40801      0.0000 
      2 C2         47.8540  -41.3400   27.4130 C.ar      1 O40801      0.0000 
      3 C3         46.8300  -40.4140   27.1170 C.ar      1 O40801      0.0000 
      4 C4         47.2420  -39.1090   26.8440 C.ar      1 O40801      0.0000 
      5 C5         48.5770  -38.7620   26.8660 C.ar      1 O40801      0.0000 
      6 C6         49.6010  -39.6540   27.1500 C.ar      1 O40801      0.0000 
      7 O7         46.3970  -38.0540   26.5390 O.3       1 O40801      0.0000 
      8 N8         47.2660  -36.9220   26.3370 N.2       1 O40801      0.0000 
      9 C9         48.4780  -37.3090   26.5300 C.2       1 O40801      0.0000 
     10 C10        47.2940  -50.2860   28.6160 C.ar      1 O40801      0.0000 
     11 O11        47.4830  -42.6500   27.6830 O.3       1 O40801      0.0000 
     12 C12        45.3320  -40.7970   27.0830 C.3       1 O40801      0.0000 
     13 C13        47.7120  -51.5950   28.8510 C.ar      1 O40801      0.0000 
     14 C14        49.6760  -36.4130   26.4010 C.3       1 O40801      0.0000 
     15 C15        48.3600  -43.4980   28.4430 C.3       1 O40801      0.0000 
     16 C16        47.0280  -52.6740   28.2840 C.ar      1 O40801      0.0000 
     17 C17        44.5750  -40.3420   28.3590 C.3       1 O40801      0.0000 
     18 C18        45.9150  -52.4100   27.4730 C.ar      1 O40801      0.0000 
     19 C19        45.4950  -51.0870   27.2260 C.ar      1 O40801      0.0000 
     20 C20        44.6480  -41.3900   29.4980 C.3       1 O40801      0.0000 
     21 N21        46.1930  -46.4110   27.2950 N.am      1 O40801      0.0000 
     22 C22        44.7690  -46.0710   27.3360 C.3       1 O40801      0.0000 
     23 C23        46.6230  -47.7050   27.4030 C.2       1 O40801      0.0000 
     24 N24        45.7940  -48.7260   27.5530 N.am      1 O40801      0.0000 
     25 C26        47.6800  -44.8790   28.5150 C.3       1 O40801      0.0000 
     26 C29        47.1780  -45.3350   27.1180 C.3       1 O40801      0.0000 
     27 O30        48.5430  -54.3360   29.3550 O.co2     1 O40801      0.0000 
     28 C32        47.4740  -54.1000   28.5610 C.2       1 O40801      0.0000 
     29 O33        47.8330  -47.9230   27.3660 O.2       1 O40801      0.0000 
     30 O34        46.8290  -55.0190   28.0620 O.co2     1 O40801      0.0000 
     31 F38        49.2520  -35.3630   25.6600 F         1 O40801      0.0000 
     32 F39        50.7290  -37.0690   25.8330 F         1 O40801      0.0000 
     33 F40        50.1440  -35.9370   27.5780 F         1 O40801      0.0000 
     34 C42        46.1890  -50.0080   27.7930 C.ar      1 O40801      0.0000 
     35 H          49.9289  -41.6749   27.6510 H         1 O40801      0.0000 
     36 H          50.5635  -39.3747   27.1549 H         1 O40801      0.0000 
     37 H          47.8043  -49.4996   29.0540 H         1 O40801      0.0000 
     38 H          45.2437  -41.8804   26.9887 H         1 O40801      0.0000 
     39 H          44.8657  -40.3329   26.2126 H         1 O40801      0.0000 
     40 H          48.5336  -51.7706   29.4487 H         1 O40801      0.0000 
     41 H          48.4946  -43.1415   29.4542 H         1 O40801      0.0000 
     42 H          49.3194  -43.6255   27.9624 H         1 O40801      0.0000 
     43 H          43.5284  -40.1670   28.1048 H         1 O40801      0.0000 
     44 H          45.0088  -39.4048   28.7113 H         1 O40801      0.0000 
     45 H          45.3945  -53.1916   27.0500 H         1 O40801      0.0000 
     46 H          44.6793  -50.9164   26.6296 H         1 O40801      0.0000 
     47 H          44.7371  -48.5488   27.4838 H         1 O40801      0.0000 
     48 H          46.8319  -44.8269   29.1925 H         1 O40801      0.0000 
     49 H          48.3916  -45.6108   28.8879 H         1 O40801      0.0000 
     50 H          46.7371  -44.4751   26.6251 H         1 O40801      0.0000 
     51 H          48.0368  -45.6772   26.5505 H         1 O40801      0.0000 
     52 H          45.5913  -41.5712   29.7761 H         1 O40801      0.0000 
     53 H          44.1551  -41.0870   30.3136 H         1 O40801      0.0000 
     54 H          44.2501  -42.2654   29.2233 H         1 O40801      0.0000 
     55 H          44.6193  -45.0867   27.2422 H         1 O40801      0.0000 
     56 H          44.2595  -46.5164   26.5998 H         1 O40801      0.0000 
     57 H          44.3449  -46.3512   28.1972 H         1 O40801      0.0000 
@<TRIPOS>BOND
     1    2    1 ar   
     2    6    1 ar   
     3   35    1 1    
     4    3    2 ar   
     5   11    2 1    
     6    4    3 ar   
     7   12    3 1    
     8    5    4 ar   
     9    7    4 1    
    10    6    5 ar   
    11    9    5 1    
    12   36    6 1    
    13    8    7 1    
    14    9    8 2    
    15   14    9 1    
    16   13   10 ar   
    17   34   10 ar   
    18   37   10 1    
    19   15   11 1    
    20   17   12 1    
    21   38   12 1    
    22   39   12 1    
    23   16   13 ar   
    24   40   13 1    
    25   31   14 1    
    26   32   14 1    
    27   33   14 1    
    28   25   15 1    
    29   41   15 1    
    30   42   15 1    
    31   18   16 ar   
    32   28   16 1    
    33   20   17 1    
    34   43   17 1    
    35   44   17 1    
    36   19   18 ar   
    37   45   18 1    
    38   34   19 ar   
    39   46   19 1    
    40   52   20 1    
    41   53   20 1    
    42   54   20 1    
    43   22   21 1    
    44   23   21 am   
    45   26   21 1    
    46   55   22 1    
    47   56   22 1    
    48   57   22 1    
    49   24   23 am   
    50   29   23 2    
    51   34   24 1    
    52   47   24 1    
    53   26   25 1    
    54   48   25 1    
    55   49   25 1    
    56   50   26 1    
    57   51   26 1    
    58   28   27 ar   
    59   30   28 ar   
@<TRIPOS>SUBSTRUCTURE
     1 O40801      1 GROUP   
@<TRIPOS>SET

