#    Name: 3upk_UD1_1_INTS_M
#    Modification time : Mon Mar 24 23:14:26 2014

@<TRIPOS>MOLECULE
3upk_UD1_1_INTS_M
   72     0    12     0     0
SMALL
NO_CHARGES


@<TRIPOS>ATOM
      1 CA         87.8345    1.6305  124.8370 C.3       4 GLC5        0.0000 
      2 CA         86.0700    1.0000  124.1080 C.3      12 GLL5        0.0000 
      3 CA         89.5990    2.2610  125.5660 C.3       8 GLP5        0.0000 
      4 CA         83.5985   -2.4915  127.3835 C.3       4 GLC5        0.0000 
      5 CA         84.7080   -1.1030  126.9920 C.3      12 GLL5        0.0000 
      6 CA         82.4890   -3.8800  127.7750 C.3       8 GLP5        0.0000 
      7 CA         83.0700   -0.7950  128.3190 C.3       4 GLC5        0.0000 
      8 CA         81.4320   -0.4870  129.6460 C.3       8 GLP5        0.0000 
      9 CA         87.8825    1.3805  117.9140 C.3       4 GLC5        0.0000 
     10 CA         87.1370    1.8140  119.7570 C.3      12 GLL5        0.0000 
     11 CA         88.6280    0.9470  116.0710 C.3       8 GLP5        0.0000 
     12 CA         86.9195    3.2295  118.3835 C.3       4 GLC5        0.0000 
     13 CA         86.7020    4.6450  117.0100 C.3       8 GLP5        0.0000 
     14 CA         88.3915    2.8905  120.3285 C.3       4 GLC5        0.0000 
     15 CA         89.6460    3.9670  120.9000 C.3       8 GLP5        0.0000 
     16 N          86.1930   -2.2265  121.4580 N.am      2 SEC2        0.0000 
     17 N          84.6090   -1.8320  121.9860 N.am     10 SEL2        0.0000 
     18 N          87.7770   -2.6210  120.9300 N.am      6 SEP2        0.0000 
     19 O          84.9950   -3.1860  122.6000 O.2       1 ALC1        0.0000 
     20 O          84.6090   -1.8320  121.9860 O.2       9 ALL1        0.0000 
     21 O          85.3810   -4.5400  123.2140 O.2       5 ALP1        0.0000 
     22 O          83.3420   -3.5320  124.0410 O.2       1 ALC1        0.0000 
     23 O          83.4630   -2.3320  124.5890 O.2       9 ALL1        0.0000 
     24 O          83.2210   -4.7320  123.4930 O.2       5 ALP1        0.0000 
     25 O          84.4220   -3.4360  123.9015 O.2       1 ALC1        0.0000 
     26 O          80.9910   10.8015  128.9995 O.2       1 ALC1        0.0000 
     27 O          81.5760    9.6100  128.9700 O.2       9 ALL1        0.0000 
     28 O          80.4060   11.9930  129.0290 O.2       5 ALP1        0.0000 
     29 CA         83.8790    9.1165  129.6940 C.3       4 GLC5        0.0000 
     30 CA         83.3820    8.2890  127.7980 C.3      12 GLL5        0.0000 
     31 CA         84.3760    9.9440  131.5900 C.3       8 GLP5        0.0000 
     32 CA         84.4230    9.4845  126.4495 C.3       4 GLC5        0.0000 
     33 CA         85.4640   10.6800  125.1010 C.3       8 GLP5        0.0000 
     34 N          79.2335    7.8985  131.4765 N.am      2 SEC2        0.0000 
     35 N          79.9080    8.5830  130.1930 N.am     10 SEL2        0.0000 
     36 N          78.5590    7.2140  132.7600 N.am      6 SEP2        0.0000 
     37 N          83.4390   11.9305  128.2140 N.am      2 SEC2        0.0000 
     38 N          83.2390   10.6780  127.7430 N.am     10 SEL2        0.0000 
     39 N          83.6390   13.1830  128.6850 N.am      6 SEP2        0.0000 
     40 CA         80.9650    6.6105  131.5025 C.3       4 GLC5        0.0000 
     41 CA         80.9210    5.9070  129.6490 C.3      12 GLL5        0.0000 
     42 CA         81.0090    7.3140  133.3560 C.3       8 GLP5        0.0000 
     43 O          78.7975    2.0795  130.2430 O.2       1 ALC1        0.0000 
     44 O          79.2330    3.4430  129.9570 O.2       9 ALL1        0.0000 
     45 O          78.3620    0.7160  130.5290 O.2       5 ALP1        0.0000 
     46 N          86.8165    3.5050  128.4195 N.am      2 SEC2        0.0000 
     47 N          85.5730    2.9090  128.3250 N.am     10 SEL2        0.0000 
     48 N          88.0600    4.1010  128.5140 N.am      6 SEP2        0.0000 
     49 N          85.6375    6.0135  127.7730 N.am      2 SEC2        0.0000 
     50 N          85.0380    5.0470  127.1370 N.am     10 SEL2        0.0000 
     51 N          86.2370    6.9800  128.4090 N.am      6 SEP2        0.0000 
     52 N          86.5910    5.1875  126.5550 N.am      2 SEC2        0.0000 
     53 N          88.1440    5.3280  125.9730 N.am      6 SEP2        0.0000 
     54 N          87.0680    4.6355  125.2965 N.am      2 SEC2        0.0000 
     55 N          85.9920    3.9430  124.6200 N.am     10 SEL2        0.0000 
     56 NZ         82.7025    3.1905  123.1660 N.4       3 LYC4        0.0000 
     57 NZ         83.6490    4.0030  124.0090 N.4      11 LYL4        0.0000 
     58 NZ         80.4290    2.4500  122.2820 N.4       7 LYP4        0.0000 
     59 N          82.7025    3.1905  123.1660 N.am      2 SEC2        0.0000 
     60 N          83.6490    4.0030  124.0090 N.am     10 SEL2        0.0000 
     61 N          81.7560    2.3780  122.3230 N.am      6 SEP2        0.0000 
     62 CA         82.7433   -0.8496  125.9811 C.3       4 GLC5        0.0000 
     63 CA         84.6860   -0.4830  125.5840 C.3      12 GLL5        0.0000 
     64 CA         80.8040   -0.6280  125.9680 C.3       8 GLP5        0.0000 
     65 CA         84.6842    7.2542  128.9348 C.3       4 GLC5        0.0000 
     66 CA         82.7610    7.1620  128.2990 C.3      12 GLL5        0.0000 
     67 CA         86.2970    6.7830  129.8210 C.3       8 GLP5        0.0000 
     68 CA         80.0367    2.9223  127.5535 C.3       4 GLC5        0.0000 
     69 CA         80.4040    5.0650  128.4590 C.3      12 GLL5        0.0000 
     70 CA         79.6780    1.4800  126.3240 C.3       8 GLP5        0.0000 
     71 CA         81.6943    1.4672  129.5679 C.3       4 GLC5        0.0000 
     72 CA         80.3870    3.6640  129.1070 C.3      12 GLL5        0.0000 
@<TRIPOS>BOND
@<TRIPOS>SUBSTRUCTURE
     1 ALC1       19 GROUP        1 X    ALC  0     ROOT ALC X 1
     2 SEC2       16 GROUP        1 X    SEC  0     **** SEC X 2
     3 LYC4       56 GROUP        1 X    LYC  0     **** LYC X 4
     4 GLC5        1 GROUP        1 X    GLC  0     **** GLC X 6
     5 ALP1       21 GROUP        1 Y    ALP  0     ROOT ALP Y 8
     6 SEP2       18 GROUP        1 Y    SEP  0     **** SEP Y 9
     7 LYP4       58 GROUP        1 Y    LYP  0     **** LYP Y 11
     8 GLP5        3 GROUP        1 Y    GLP  0     **** GLP Y 13
     9 ALL1       20 GROUP        1 Z    ALL  0     ROOT ALL Z 15
    10 SEL2       17 GROUP        1 Z    SEL  0     **** SEL Z 16
    11 LYL4       57 GROUP        1 Z    LYL  0     **** LYL Z 18
    12 GLL5        2 GROUP        1 Z    GLL  0     **** GLL Z 20
@<TRIPOS>SET

