#    Name: 3upk_UD1_1_ligand
#    Modification time : Mon Mar 24 23:14:26 2014

@<TRIPOS>MOLECULE
3upk_UD1_1_ligand
   64    66     1     0     0
SMALL
NO_CHARGES


@<TRIPOS>ATOM
      1 C1'        86.0700    1.0000  124.1080 C.3       1 UD1427      0.0000 
      2 C2'        85.9740   -0.0700  122.9490 C.3       1 UD1427      0.0000 
      3 C3'        84.6350   -0.8750  123.0440 C.3       1 UD1427      0.0000 
      4 C4'        84.6280   -1.5960  124.4090 C.3       1 UD1427      0.0000 
      5 C5'        84.6860   -0.4830  125.5840 C.3       1 UD1427      0.0000 
      6 C6'        84.7080   -1.1030  126.9920 C.3       1 UD1427      0.0000 
      7 C7'        87.2290    1.0760  121.0780 C.2       1 UD1427      0.0000 
      8 C8'        87.1370    1.8140  119.7570 C.3       1 UD1427      0.0000 
      9 N2'        86.0740    0.6730  121.6430 N.am      1 UD1427      0.0000 
     10 O1'        85.0430    1.9140  123.7780 O.3       1 UD1427      0.0000 
     11 O3'        84.6090   -1.8320  121.9860 O.3       1 UD1427      0.0000 
     12 O4'        83.4630   -2.3320  124.5890 O.3       1 UD1427      0.0000 
     13 O5'        85.9420    0.3410  125.3960 O.3       1 UD1427      0.0000 
     14 O6'        85.8450   -1.9560  127.0740 O.3       1 UD1427      0.0000 
     15 O7'        88.3070    0.8500  121.6110 O.2       1 UD1427      0.0000 
     16 N1         81.5500    7.1780  129.1420 N.am      1 UD1427      0.0000 
     17 C2         80.9220    8.4590  129.4980 C.2       1 UD1427      0.0000 
     18 N3         81.5760    9.6100  128.9700 N.am      1 UD1427      0.0000 
     19 C4         82.7810    9.6120  128.1320 C.2       1 UD1427      0.0000 
     20 C5         83.3820    8.2890  127.7980 C.2       1 UD1427      0.0000 
     21 C6         82.7610    7.1620  128.2990 C.2       1 UD1427      0.0000 
     22 O2         79.9080    8.5830  130.1930 O.2       1 UD1427      0.0000 
     23 O4         83.2390   10.6780  127.7430 O.2       1 UD1427      0.0000 
     24 C1B        80.9210    5.9070  129.6490 C.3       1 UD1427      0.0000 
     25 C2B        80.4040    5.0650  128.4590 C.3       1 UD1427      0.0000 
     26 O2'        79.1050    5.4970  128.1270 O.3       1 UD1427      0.0000 
     27 C3B        80.3870    3.6640  129.1070 C.3       1 UD1427      0.0000 
     28 C4B        81.6270    3.7480  130.0560 C.3       1 UD1427      0.0000 
     29 O4B        81.8640    5.1290  130.3290 O.3       1 UD1427      0.0000 
     30 O3B        79.2330    3.4430  129.9570 O.3       1 UD1427      0.0000 
     31 C5B        82.9060    3.1370  129.3980 C.3       1 UD1427      0.0000 
     32 O5B        83.1680    3.6360  128.0750 O.3       1 UD1427      0.0000 
     33 PA         84.6600    3.6620  127.4820 P.3       1 UD1427      0.0000 
     34 O1A        85.5730    2.9090  128.3250 O.co2     1 UD1427      0.0000 
     35 O2A        85.0380    5.0470  127.1370 O.co2     1 UD1427      0.0000 
     36 O3A        84.3620    2.9610  126.1130 O.3       1 UD1427      0.0000 
     37 PB         84.7330    3.2490  124.5910 P.3       1 UD1427      0.0000 
     38 O1B        85.9920    3.9430  124.6200 O.co2     1 UD1427      0.0000 
     39 O2B        83.6490    4.0030  124.0090 O.co2     1 UD1427      0.0000 
     40 H          87.0456    1.4492  123.9813 H         1 UD1427      0.0000 
     41 H          86.7967   -0.7394  123.0559 H         1 UD1427      0.0000 
     42 H          83.8369   -0.1878  123.0105 H         1 UD1427      0.0000 
     43 H          85.5219   -2.1675  124.5069 H         1 UD1427      0.0000 
     44 H          83.8294    0.1429  125.4727 H         1 UD1427      0.0000 
     45 H          83.7751   -1.6457  127.1271 H         1 UD1427      0.0000 
     46 H          84.7522   -0.2872  127.7101 H         1 UD1427      0.0000 
     47 H          85.1435    0.8604  121.1892 H         1 UD1427      0.0000 
     48 H          81.1682   10.5570  129.1934 H         1 UD1427      0.0000 
     49 H          84.2012    8.2732  127.2310 H         1 UD1427      0.0000 
     50 H          83.1486    6.2098  128.0865 H         1 UD1427      0.0000 
     51 H          80.0741    6.1473  130.2615 H         1 UD1427      0.0000 
     52 H          81.1124    5.0862  127.7110 H         1 UD1427      0.0000 
     53 H          80.5705    2.9378  128.4043 H         1 UD1427      0.0000 
     54 H          81.4057    3.2012  130.9439 H         1 UD1427      0.0000 
     55 H          82.7702    2.0373  129.3999 H         1 UD1427      0.0000 
     56 H          83.7485    3.3453  130.0869 H         1 UD1427      0.0000 
     57 H          88.0395    2.0715  119.4118 H         1 UD1427      0.0000 
     58 H          86.7007    1.2572  119.0501 H         1 UD1427      0.0000 
     59 H          86.6032    2.6557  119.8382 H         1 UD1427      0.0000 
     60 H          84.8354   -2.7039  122.4202 H         1 UD1427      0.0000 
     61 H          83.6239   -3.1931  124.1068 H         1 UD1427      0.0000 
     62 H          86.1336   -1.9111  128.0304 H         1 UD1427      0.0000 
     63 H          78.5011    5.0091  128.7574 H         1 UD1427      0.0000 
     64 H          79.1466    2.4489  130.0225 H         1 UD1427      0.0000 
@<TRIPOS>BOND
     1    2    1 1    
     2   10    1 1    
     3   13    1 1    
     4   40    1 1    
     5    3    2 1    
     6    9    2 1    
     7   41    2 1    
     8    4    3 1    
     9   11    3 1    
    10   42    3 1    
    11    5    4 1    
    12   12    4 1    
    13   43    4 1    
    14    6    5 1    
    15   13    5 1    
    16   44    5 1    
    17   14    6 1    
    18   45    6 1    
    19   46    6 1    
    20    8    7 1    
    21    9    7 am   
    22   15    7 2    
    23   57    8 1    
    24   58    8 1    
    25   59    8 1    
    26   47    9 1    
    27   37   10 1    
    28   60   11 1    
    29   61   12 1    
    30   62   14 1    
    31   17   16 1    
    32   21   16 1    
    33   24   16 1    
    34   18   17 1    
    35   22   17 2    
    36   19   18 1    
    37   48   18 1    
    38   20   19 1    
    39   23   19 2    
    40   21   20 2    
    41   49   20 1    
    42   50   21 1    
    43   25   24 1    
    44   29   24 1    
    45   51   24 1    
    46   26   25 1    
    47   27   25 1    
    48   52   25 1    
    49   63   26 1    
    50   28   27 1    
    51   30   27 1    
    52   53   27 1    
    53   29   28 1    
    54   31   28 1    
    55   54   28 1    
    56   64   30 1    
    57   32   31 1    
    58   55   31 1    
    59   56   31 1    
    60   33   32 1    
    61   34   33 ar   
    62   35   33 ar   
    63   36   33 1    
    64   37   36 1    
    65   38   37 ar   
    66   39   37 ar   
@<TRIPOS>SUBSTRUCTURE
     1 UD1427      1 GROUP   
@<TRIPOS>SET

