#    Name: 4fg7_ATP_1_INTS_M
#    Modification time : Mon Mar 24 19:57:47 2014

@<TRIPOS>MOLECULE
4fg7_ATP_1_INTS_M
   44     0    12     0     0
SMALL
NO_CHARGES


@<TRIPOS>ATOM
      1 NZ        140.5250  -27.2685   23.8165 N.4       3 LYC4        0.0000 
      2 NZ        141.6410  -26.4900   22.6720 N.4      11 LYL4        0.0000 
      3 NZ        139.4090  -28.0470   24.9610 N.4       7 LYP4        0.0000 
      4 N         142.1715  -27.1505   21.5345 N.am      2 SEC2        0.0000 
      5 N         141.6410  -26.4900   22.6720 N.am     10 SEL2        0.0000 
      6 N         142.7020  -27.8110   20.3970 N.am      6 SEP2        0.0000 
      7 NZ        139.2120  -27.8270   23.2040 N.4       3 LYC4        0.0000 
      8 NZ        139.0150  -27.6070   21.4470 N.4      11 LYL4        0.0000 
      9 CA        138.0265  -29.6245   16.0585 C.3       4 GLC5        0.0000 
     10 CA        137.2430  -28.5520   17.6250 C.3      12 GLL5        0.0000 
     11 CA        138.8100  -30.6970   14.4920 C.3       8 GLP5        0.0000 
     12 CA        133.2105  -28.7400   18.1200 C.3       4 GLC5        0.0000 
     13 CA        135.0460  -29.4030   17.3870 C.3      12 GLL5        0.0000 
     14 CA        131.3750  -28.0770   18.8530 C.3       8 GLP5        0.0000 
     15 CA        137.4130  -30.6225   16.0815 C.3       4 GLC5        0.0000 
     16 CA        136.0160  -30.5480   17.6710 C.3      12 GLL5        0.0000 
     17 CA        137.7480  -31.6030   18.1500 C.3       4 GLC5        0.0000 
     18 CA        139.4800  -32.6580   18.6290 C.3       8 GLP5        0.0000 
     19 O         133.5170  -34.8475   23.0405 O.2       1 ALC1        0.0000 
     20 O         134.1490  -33.7560   22.4140 O.2       9 ALL1        0.0000 
     21 O         132.8850  -35.9390   23.6670 O.2       5 ALP1        0.0000 
     22 N         132.3080  -35.2320   20.4835 N.am      2 SEC2        0.0000 
     23 N         133.6320  -34.3710   20.2730 N.am     10 SEL2        0.0000 
     24 N         130.9840  -36.0930   20.6940 N.am      6 SEP2        0.0000 
     25 CA        135.0475  -35.2605   18.0690 C.3       4 GLC5        0.0000 
     26 CA        133.7070  -34.1690   18.9690 C.3      12 GLL5        0.0000 
     27 CA        136.3880  -36.3520   17.1690 C.3       8 GLP5        0.0000 
     28 CA        134.9750  -35.3835   20.0225 C.3       4 GLC5        0.0000 
     29 CA        136.2430  -36.5980   21.0760 C.3       8 GLP5        0.0000 
     30 CA        133.6170  -36.2350   18.8860 C.3       4 GLC5        0.0000 
     31 CA        133.5270  -38.3010   18.8030 C.3       8 GLP5        0.0000 
     32 CA        132.2325  -33.6885   19.7330 C.3       4 GLC5        0.0000 
     33 CA        130.7580  -33.2080   20.4970 C.3       8 GLP5        0.0000 
     34 CA        138.6817  -29.9255   18.8773 C.3       4 GLC5        0.0000 
     35 CA        139.6330  -31.4140   19.5730 C.3       8 GLP5        0.0000 
     36 CA        136.7165  -33.0162   19.5602 C.3       4 GLC5        0.0000 
     37 CA        134.9870  -32.2460   19.2520 C.3      12 GLL5        0.0000 
     38 CA        138.4710  -33.6940   19.1820 C.3       8 GLP5        0.0000 
     39 CA        135.4142  -34.7888   20.9750 C.3       4 GLC5        0.0000 
     40 CA        134.9370  -32.4310   20.6250 C.3      12 GLL5        0.0000 
     41 CA        132.6718  -33.0938   20.6855 C.3       4 GLC5        0.0000 
     42 CA        134.2340  -33.5280   21.1230 C.3      12 GLL5        0.0000 
     43 CA        133.4821  -31.2154   20.3205 C.3       4 GLC5        0.0000 
     44 CA        132.1780  -29.8180   20.5780 C.3       8 GLP5        0.0000 
@<TRIPOS>BOND
@<TRIPOS>SUBSTRUCTURE
     1 ALC1       19 GROUP        1 X    ALC  0     ROOT ALC X 1
     2 SEC2        4 GROUP        1 X    SEC  0     **** SEC X 2
     3 LYC4        1 GROUP        1 X    LYC  0     **** LYC X 4
     4 GLC5        9 GROUP        1 X    GLC  0     **** GLC X 6
     5 ALP1       21 GROUP        1 Y    ALP  0     ROOT ALP Y 8
     6 SEP2        6 GROUP        1 Y    SEP  0     **** SEP Y 9
     7 LYP4        3 GROUP        1 Y    LYP  0     **** LYP Y 11
     8 GLP5       11 GROUP        1 Y    GLP  0     **** GLP Y 13
     9 ALL1       20 GROUP        1 Z    ALL  0     ROOT ALL Z 15
    10 SEL2        5 GROUP        1 Z    SEL  0     **** SEL Z 16
    11 LYL4        2 GROUP        1 Z    LYL  0     **** LYL Z 18
    12 GLL5       10 GROUP        1 Z    GLL  0     **** GLL Z 20
@<TRIPOS>SET

