#    Name: 4fg7_ATP_1_ligand
#    Modification time : Mon Mar 24 19:57:47 2014

@<TRIPOS>MOLECULE
4fg7_ATP_1_ligand
   43    45     1     0     0
SMALL
NO_CHARGES


@<TRIPOS>ATOM
      1 PG        141.2760  -25.1340   21.8800 P.3       1 ATP301      0.0000 
      2 O1G       140.4690  -24.2490   22.7700 O.co2     1 ATP301      0.0000 
      3 O2G       142.7200  -24.5290   21.3570 O.co2     1 ATP301      0.0000 
      4 O3G       141.6410  -26.4900   22.6720 O.co2     1 ATP301      0.0000 
      5 PB        139.3540  -24.6500   20.0900 P.3       1 ATP301      0.0000 
      6 O1B       139.5150  -23.2460   20.5250 O.co2     1 ATP301      0.0000 
      7 O2B       139.1810  -24.9510   18.6550 O.co2     1 ATP301      0.0000 
      8 O3B       140.5590  -25.5290   20.5530 O.3       1 ATP301      0.0000 
      9 PA        137.9140  -26.8780   20.8410 P.3       1 ATP301      0.0000 
     10 O1A       139.0150  -27.6070   21.4470 O.co2     1 ATP301      0.0000 
     11 O2A       136.5450  -27.1130   21.3250 O.co2     1 ATP301      0.0000 
     12 O3A       138.1810  -25.3110   20.9460 O.3       1 ATP301      0.0000 
     13 O5'       138.0460  -27.0820   19.2910 O.3       1 ATP301      0.0000 
     14 C5'       138.2180  -28.3220   18.7380 C.3       1 ATP301      0.0000 
     15 C4'       137.2430  -28.5520   17.6250 C.3       1 ATP301      0.0000 
     16 O4'       137.3200  -29.9600   17.5870 O.3       1 ATP301      0.0000 
     17 C3'       135.7940  -28.2290   17.9670 C.3       1 ATP301      0.0000 
     18 O3'       135.3760  -27.0730   17.2910 O.3       1 ATP301      0.0000 
     19 C2'       135.0460  -29.4030   17.3870 C.3       1 ATP301      0.0000 
     20 O2'       134.8660  -29.2750   15.9830 O.3       1 ATP301      0.0000 
     21 C1'       136.0160  -30.5480   17.6710 C.3       1 ATP301      0.0000 
     22 N9        135.7060  -31.1450   19.0260 N.pl3     1 ATP301      0.0000 
     23 C8        136.0730  -30.6580   20.2040 C.2       1 ATP301      0.0000 
     24 N7        135.6180  -31.4370   21.1770 N.2       1 ATP301      0.0000 
     25 C5        134.9370  -32.4310   20.6250 C.ar      1 ATP301      0.0000 
     26 C6        134.2340  -33.5280   21.1230 C.ar      1 ATP301      0.0000 
     27 N6        134.1490  -33.7560   22.4140 N.pl3     1 ATP301      0.0000 
     28 N1        133.6320  -34.3710   20.2730 N.ar      1 ATP301      0.0000 
     29 C2        133.7070  -34.1690   18.9690 C.ar      1 ATP301      0.0000 
     30 N3        134.3590  -33.1370   18.4480 N.ar      1 ATP301      0.0000 
     31 C4        134.9870  -32.2460   19.2520 C.ar      1 ATP301      0.0000 
     32 H         138.0783  -29.1415   19.4763 H         1 ATP301      0.0000 
     33 H         139.2384  -28.4650   18.3203 H         1 ATP301      0.0000 
     34 H         137.5552  -28.1230   16.7505 H         1 ATP301      0.0000 
     35 H         135.6730  -28.2158   18.9977 H         1 ATP301      0.0000 
     36 H         134.1721  -29.5682   17.9351 H         1 ATP301      0.0000 
     37 H         135.8699  -31.2850   16.9046 H         1 ATP301      0.0000 
     38 H         136.6040  -29.8402   20.3369 H         1 ATP301      0.0000 
     39 H         134.5760  -33.0759   23.0100 H         1 ATP301      0.0000 
     40 H         133.6651  -34.5888   22.6828 H         1 ATP301      0.0000 
     41 H         133.2282  -34.8571   18.3112 H         1 ATP301      0.0000 
     42 H         135.0683  -27.3941   16.3953 H         1 ATP301      0.0000 
     43 H         134.0364  -29.7952   15.7800 H         1 ATP301      0.0000 
@<TRIPOS>BOND
     1    2    1 ar   
     2    3    1 ar   
     3    4    1 ar   
     4    8    1 1    
     5    6    5 ar   
     6    7    5 ar   
     7    8    5 1    
     8   12    5 1    
     9   10    9 ar   
    10   11    9 ar   
    11   12    9 1    
    12   13    9 1    
    13   14   13 1    
    14   15   14 1    
    15   32   14 1    
    16   33   14 1    
    17   16   15 1    
    18   17   15 1    
    19   34   15 1    
    20   21   16 1    
    21   18   17 1    
    22   19   17 1    
    23   35   17 1    
    24   42   18 1    
    25   20   19 1    
    26   21   19 1    
    27   36   19 1    
    28   43   20 1    
    29   22   21 1    
    30   37   21 1    
    31   23   22 1    
    32   31   22 1    
    33   24   23 2    
    34   38   23 1    
    35   25   24 1    
    36   26   25 ar   
    37   31   25 ar   
    38   27   26 1    
    39   28   26 ar   
    40   39   27 1    
    41   40   27 1    
    42   29   28 ar   
    43   30   29 ar   
    44   41   29 1    
    45   31   30 ar   
@<TRIPOS>SUBSTRUCTURE
     1 ATP301      1 GROUP   
@<TRIPOS>SET

