#    Name: 1p93_DEX_1_INTS_M
#    Modification time : Mon Mar 24 21:12:08 2014

@<TRIPOS>MOLECULE
1p93_DEX_1_INTS_M
   78     0     9     0     0
SMALL
NO_CHARGES


@<TRIPOS>ATOM
      1 CA         45.7970   13.6810    0.9255 C.3       3 GLC5        0.0000 
      2 CA         45.3620   11.6490    1.4280 C.3       9 GLL5        0.0000 
      3 CA         46.2320   15.7130    0.4230 C.3       6 GLP5        0.0000 
      4 CA         45.0080   12.7425    4.0120 C.3       3 GLC5        0.0000 
      5 CA         44.5080   11.6060    2.5580 C.3       9 GLL5        0.0000 
      6 CA         45.5080   13.8790    5.4660 C.3       6 GLP5        0.0000 
      7 CA         41.0290   10.6220    0.8275 C.3       3 GLC5        0.0000 
      8 CA         43.0340    9.8980    1.2260 C.3       9 GLL5        0.0000 
      9 CA         39.0240   11.3460    0.4290 C.3       6 GLP5        0.0000 
     10 CA         43.7965    7.6270   -0.3260 C.3       3 GLC5        0.0000 
     11 CA         43.5710    9.0470   -1.2390 C.3       9 GLL5        0.0000 
     12 CA         44.0220    6.2070    0.5870 C.3       6 GLP5        0.0000 
     13 CA         45.4310    9.0600   -3.6810 C.3       3 GLC5        0.0000 
     14 CA         44.9910   10.8500   -2.6160 C.3       9 GLL5        0.0000 
     15 CA         45.8710    7.2700   -4.7460 C.3       6 GLP5        0.0000 
     16 CA         48.3565   13.3070   -0.6010 C.3       3 GLC5        0.0000 
     17 CA         46.5450   12.6900   -1.4270 C.3       9 GLL5        0.0000 
     18 CA         50.1680   13.9240    0.2250 C.3       6 GLP5        0.0000 
     19 CA         45.3355    9.1990   -5.0495 C.3       3 GLC5        0.0000 
     20 CA         44.8000   11.1280   -5.3530 C.3       9 GLL5        0.0000 
     21 CA         43.7250    9.6150   -6.4890 C.3       3 GLC5        0.0000 
     22 CA         42.6500    8.1020   -7.6250 C.3       6 GLP5        0.0000 
     23 CA         45.4400   15.6075   -5.6795 C.3       3 GLC5        0.0000 
     24 CA         45.7500   13.4130   -5.4670 C.3       9 GLL5        0.0000 
     25 CA         45.1300   17.8020   -5.8920 C.3       6 GLP5        0.0000 
     26 CA         48.6040   10.7800   -5.8460 C.3       3 GLC5        0.0000 
     27 CA         47.6290   11.8760   -4.4420 C.3       9 GLL5        0.0000 
     28 CA         49.5790    9.6840   -7.2500 C.3       6 GLP5        0.0000 
     29 CA         49.6620   11.9565   -4.9085 C.3       3 GLC5        0.0000 
     30 CA         51.6950   12.0370   -5.3750 C.3       6 GLP5        0.0000 
     31 CA         47.3940    8.2035   -0.7845 C.3       3 GLC5        0.0000 
     32 CA         46.4090    9.8030    0.0310 C.3       9 GLL5        0.0000 
     33 CA         48.3790    6.6040   -1.6000 C.3       6 GLP5        0.0000 
     34 CA         45.8890    7.7840    0.5915 C.3       3 GLC5        0.0000 
     35 CA         45.3690    5.7650    1.1520 C.3       6 GLP5        0.0000 
     36 CA         46.4060   16.5110   -5.7735 C.3       3 GLC5        0.0000 
     37 CA         47.6820   15.2200   -5.6550 C.3       9 GLL5        0.0000 
     38 CA         48.5470   17.1865   -6.2095 C.3       3 GLC5        0.0000 
     39 CA         49.4120   19.1530   -6.7640 C.3       6 GLP5        0.0000 
     40 CA         42.1380   14.2085   -7.6435 C.3       3 GLC5        0.0000 
     41 CA         43.3910   12.8960   -6.5150 C.3       9 GLL5        0.0000 
     42 CA         40.8850   15.5210   -8.7720 C.3       6 GLP5        0.0000 
     43 CA         41.9880   11.2010   -6.9155 C.3       3 GLC5        0.0000 
     44 CA         40.5850    9.5060   -7.3160 C.3       6 GLP5        0.0000 
     45 CA         44.3110   14.6140   -1.0900 C.3       3 GLC5        0.0000 
     46 CA         44.1630   12.5830   -1.1720 C.3       9 GLL5        0.0000 
     47 CA         44.4590   16.6450   -1.0080 C.3       6 GLP5        0.0000 
     48 CA         42.6660   13.2705   -0.4530 C.3       3 GLC5        0.0000 
     49 CA         41.1690   13.9580    0.2660 C.3       6 GLP5        0.0000 
     50 CA         42.5315   12.3330   -2.0085 C.3       3 GLC5        0.0000 
     51 CA         40.9000   12.0830   -2.8450 C.3       6 GLP5        0.0000 
     52 N          41.5440   10.6015    4.3355 N.am      2 SEC2        0.0000 
     53 N          42.4370   10.6010    3.4880 N.am      8 SEL2        0.0000 
     54 N          40.6510   10.6020    5.1830 N.am      5 SEP2        0.0000 
     55 O          48.7850   12.8055   -1.9980 O.2       1 ALC1        0.0000 
     56 O          47.7590   12.0980   -1.3080 O.2       7 ALL1        0.0000 
     57 O          49.8110   13.5130   -2.6880 O.2       4 ALP1        0.0000 
     58 O          44.2770   15.2555   -6.3845 O.2       1 ALC1        0.0000 
     59 O          45.0280   14.5770   -5.2180 O.2       7 ALL1        0.0000 
     60 O          43.5260   15.9340   -7.5510 O.2       4 ALP1        0.0000 
     61 O          49.0945   15.0120   -7.8635 O.2       1 ALC1        0.0000 
     62 O          48.5160   15.7820   -6.5820 O.2       7 ALL1        0.0000 
     63 O          49.6730   14.2420   -9.1450 O.2       4 ALP1        0.0000 
     64 CA         46.8220   11.0172    2.3950 C.3       3 GLC5        0.0000 
     65 CA         48.7090   10.4070    2.7970 C.3       6 GLP5        0.0000 
     66 CA         43.7365    8.0615    0.6278 C.3       3 GLC5        0.0000 
     67 CA         43.8680    9.9340    0.1110 C.3       9 GLL5        0.0000 
     68 CA         43.9363    8.1393   -3.0550 C.3       3 GLC5        0.0000 
     69 CA         44.2690    6.7740   -4.2400 C.3       6 GLP5        0.0000 
     70 CA         42.2518   10.7938   -2.3575 C.3       3 GLC5        0.0000 
     71 CA         43.6360    9.9620   -2.5010 C.3       9 GLL5        0.0000 
     72 CA         42.9417   11.7027   -3.0568 C.3       3 GLC5        0.0000 
     73 CA         47.2550   10.3650    1.4185 C.3       3 GLC5        0.0000 
     74 CA         45.1930   10.8430    0.0490 C.3       9 GLL5        0.0000 
     75 CA         46.2235   14.2877   -0.8199 C.3       3 GLC5        0.0000 
     76 CA         45.2330   11.7580   -1.3120 C.3       9 GLL5        0.0000 
     77 CA         46.4295   10.9223   -6.9345 C.3       3 GLC5        0.0000 
     78 CA         48.0370   10.1030   -8.0730 C.3       6 GLP5        0.0000 
@<TRIPOS>BOND
@<TRIPOS>SUBSTRUCTURE
     1 ALC1       55 GROUP        1 X    ALC  0     ROOT ALC X 1
     2 SEC2       52 GROUP        1 X    SEC  0     **** SEC X 2
     3 GLC5        1 GROUP        1 X    GLC  0     **** GLC X 6
     4 ALP1       57 GROUP        1 Y    ALP  0     ROOT ALP Y 8
     5 SEP2       54 GROUP        1 Y    SEP  0     **** SEP Y 9
     6 GLP5        3 GROUP        1 Y    GLP  0     **** GLP Y 13
     7 ALL1       56 GROUP        1 Z    ALL  0     ROOT ALL Z 15
     8 SEL2       53 GROUP        1 Z    SEL  0     **** SEL Z 16
     9 GLL5        2 GROUP        1 Z    GLL  0     **** GLL Z 20
@<TRIPOS>SET

