#    Name: 1p93_DEX_1_ligand
#    Modification time : Mon Mar 24 21:12:08 2014

@<TRIPOS>MOLECULE
1p93_DEX_1_ligand
   57    60     1     0     0
SMALL
NO_CHARGES


@<TRIPOS>ATOM
      1 C1         45.3620   11.6490    1.4280 C.2       1 DEX1999     0.0000 
      2 C2         44.5080   11.6060    2.5580 C.2       1 DEX1999     0.0000 
      3 C3         43.2750   10.7160    2.5210 C.2       1 DEX1999     0.0000 
      4 C4         43.0340    9.8980    1.2260 C.2       1 DEX1999     0.0000 
      5 C5         43.8680    9.9340    0.1110 C.2       1 DEX1999     0.0000 
      6 C6         43.5710    9.0470   -1.2390 C.3       1 DEX1999     0.0000 
      7 C7         43.6360    9.9620   -2.5010 C.3       1 DEX1999     0.0000 
      8 C8         44.9910   10.8500   -2.6160 C.3       1 DEX1999     0.0000 
      9 C9         45.2330   11.7580   -1.3120 C.3       1 DEX1999     0.0000 
     10 C10        45.1930   10.8430    0.0490 C.3       1 DEX1999     0.0000 
     11 C11        46.5450   12.6900   -1.4270 C.3       1 DEX1999     0.0000 
     12 C12        46.5410   13.5010   -2.7560 C.3       1 DEX1999     0.0000 
     13 C13        46.2500   12.7010   -4.1270 C.3       1 DEX1999     0.0000 
     14 C14        44.9760   11.7950   -3.9210 C.3       1 DEX1999     0.0000 
     15 C15        44.8000   11.1280   -5.3530 C.3       1 DEX1999     0.0000 
     16 C16        44.8440   12.3550   -6.2390 C.3       1 DEX1999     0.0000 
     17 C17        45.7500   13.4130   -5.4670 C.3       1 DEX1999     0.0000 
     18 C18        47.6290   11.8760   -4.4420 C.3       1 DEX1999     0.0000 
     19 C19        46.4090    9.8030    0.0310 C.3       1 DEX1999     0.0000 
     20 C20        46.7980   14.1950   -6.3250 C.2       1 DEX1999     0.0000 
     21 C21        47.6820   15.2200   -5.6550 C.3       1 DEX1999     0.0000 
     22 C22        43.3910   12.8960   -6.5150 C.3       1 DEX1999     0.0000 
     23 F1         44.1630   12.5830   -1.1720 F         1 DEX1999     0.0000 
     24 O1         42.4370   10.6010    3.4880 O.2       1 DEX1999     0.0000 
     25 O2         47.7590   12.0980   -1.3080 O.3       1 DEX1999     0.0000 
     26 O3         45.0280   14.5770   -5.2180 O.3       1 DEX1999     0.0000 
     27 O4         46.8780   13.9440   -7.5680 O.2       1 DEX1999     0.0000 
     28 O5         48.5160   15.7820   -6.5820 O.3       1 DEX1999     0.0000 
     29 H          46.2176   12.2534    1.4239 H         1 DEX1999     0.0000 
     30 H          44.6725   12.1338    3.3874 H         1 DEX1999     0.0000 
     31 H          42.1844    9.3078    1.2534 H         1 DEX1999     0.0000 
     32 H          42.5922    8.6296   -1.1319 H         1 DEX1999     0.0000 
     33 H          44.3241    8.2894   -1.2893 H         1 DEX1999     0.0000 
     34 H          42.7953   10.6570   -2.4943 H         1 DEX1999     0.0000 
     35 H          43.5749    9.3499   -3.4018 H         1 DEX1999     0.0000 
     36 H          45.8244   10.1786   -2.7098 H         1 DEX1999     0.0000 
     37 H          46.3979   13.4805   -0.6336 H         1 DEX1999     0.0000 
     38 H          47.5207   14.0048   -2.8775 H         1 DEX1999     0.0000 
     39 H          45.7855   14.3090   -2.6866 H         1 DEX1999     0.0000 
     40 H          44.1310   12.5124   -3.8269 H         1 DEX1999     0.0000 
     41 H          43.8622   10.6717   -5.3858 H         1 DEX1999     0.0000 
     42 H          45.6211   10.5077   -5.5255 H         1 DEX1999     0.0000 
     43 H          45.3234   12.1215   -7.1553 H         1 DEX1999     0.0000 
     44 H          48.2253   14.7026   -4.8435 H         1 DEX1999     0.0000 
     45 H          47.0173   15.9575   -5.1694 H         1 DEX1999     0.0000 
     46 H          48.4120   12.4887   -4.5496 H         1 DEX1999     0.0000 
     47 H          47.8557   11.2370   -3.7069 H         1 DEX1999     0.0000 
     48 H          47.5576   11.3410   -5.2838 H         1 DEX1999     0.0000 
     49 H          47.2945   10.2663    0.0661 H         1 DEX1999     0.0000 
     50 H          46.3743    9.1775    0.8105 H         1 DEX1999     0.0000 
     51 H          46.4048    9.2410   -0.7961 H         1 DEX1999     0.0000 
     52 H          43.4013   13.7047   -7.1031 H         1 DEX1999     0.0000 
     53 H          42.8196   12.2115   -6.9678 H         1 DEX1999     0.0000 
     54 H          42.9241   13.1545   -5.6693 H         1 DEX1999     0.0000 
     55 H          48.2251   12.2876   -2.1722 H         1 DEX1999     0.0000 
     56 H          44.6041   14.8107   -6.0931 H         1 DEX1999     0.0000 
     57 H          48.7056   15.0503   -7.2367 H         1 DEX1999     0.0000 
@<TRIPOS>BOND
     1    2    1 2    
     2   10    1 1    
     3   29    1 1    
     4    3    2 1    
     5   30    2 1    
     6    4    3 1    
     7   24    3 2    
     8    5    4 2    
     9   31    4 1    
    10    6    5 1    
    11   10    5 1    
    12    7    6 1    
    13   32    6 1    
    14   33    6 1    
    15    8    7 1    
    16   34    7 1    
    17   35    7 1    
    18    9    8 1    
    19   14    8 1    
    20   36    8 1    
    21   10    9 1    
    22   11    9 1    
    23   23    9 1    
    24   19   10 1    
    25   12   11 1    
    26   25   11 1    
    27   37   11 1    
    28   13   12 1    
    29   38   12 1    
    30   39   12 1    
    31   14   13 1    
    32   17   13 1    
    33   18   13 1    
    34   15   14 1    
    35   40   14 1    
    36   16   15 1    
    37   41   15 1    
    38   42   15 1    
    39   17   16 1    
    40   22   16 1    
    41   43   16 1    
    42   20   17 1    
    43   26   17 1    
    44   46   18 1    
    45   47   18 1    
    46   48   18 1    
    47   49   19 1    
    48   50   19 1    
    49   51   19 1    
    50   21   20 1    
    51   27   20 2    
    52   28   21 1    
    53   44   21 1    
    54   45   21 1    
    55   52   22 1    
    56   53   22 1    
    57   54   22 1    
    58   55   25 1    
    59   56   26 1    
    60   57   28 1    
@<TRIPOS>SUBSTRUCTURE
     1 DEX1999     1 GROUP   
@<TRIPOS>SET

