#    Name: 2y8q_ADP_1_INTS_M
#    Modification time : Tue Mar 25 07:58:02 2014

@<TRIPOS>MOLECULE
2y8q_ADP_1_INTS_M
   66     0    12     0     0
SMALL
NO_CHARGES


@<TRIPOS>ATOM
      1 NZ         24.8110   65.4655   25.1920 N.4       3 LYC4        0.0000 
      2 NZ         26.3690   65.9120   25.6990 N.4      11 LYL4        0.0000 
      3 NZ         22.6710   65.0710   25.8780 N.4       7 LYP4        0.0000 
      4 N          24.7710   65.8840   26.2665 N.am      2 SEC2        0.0000 
      5 N          26.3690   65.9120   25.6990 N.am     10 SEL2        0.0000 
      6 N          23.1730   65.8560   26.8340 N.am      6 SEP2        0.0000 
      7 N          24.8110   65.4655   25.1920 N.am      2 SEC2        0.0000 
      8 N          23.2530   65.0190   24.6850 N.am      6 SEP2        0.0000 
      9 N          29.4875   67.7210   25.0485 N.am      2 SEC2        0.0000 
     10 N          28.4830   67.3380   25.6740 N.am     10 SEL2        0.0000 
     11 N          30.4920   68.1040   24.4230 N.am      6 SEP2        0.0000 
     12 N          28.8340   66.7815   26.9575 N.am      2 SEC2        0.0000 
     13 N          29.1850   66.2250   28.2410 N.am      6 SEP2        0.0000 
     14 N          29.7085   66.3140   25.5765 N.am      2 SEC2        0.0000 
     15 N          30.9340   65.2900   25.4790 N.am      6 SEP2        0.0000 
     16 N          24.8920   70.8060   27.6940 N.am      2 SEC2        0.0000 
     17 N          26.0650   70.2110   28.0580 N.am     10 SEL2        0.0000 
     18 N          23.7190   71.4010   27.3300 N.am      6 SEP2        0.0000 
     19 N          26.3000   70.7695   25.0985 N.am      2 SEC2        0.0000 
     20 N          27.3660   70.4050   25.8130 N.am     10 SEL2        0.0000 
     21 N          25.2340   71.1340   24.3840 N.am      6 SEP2        0.0000 
     22 O          32.4820   68.0920   30.3110 O.2       1 ALC1        0.0000 
     23 O          31.8440   69.1370   30.0790 O.2       9 ALL1        0.0000 
     24 O          33.1200   67.0470   30.5430 O.2       5 ALP1        0.0000 
     25 O          31.5745   67.4735   30.3245 O.2       1 ALC1        0.0000 
     26 O          31.3050   65.8100   30.5700 O.2       5 ALP1        0.0000 
     27 CA         28.4230   67.2710   30.2275 C.3       4 GLC5        0.0000 
     28 CA         29.5370   68.7210   30.7630 C.3      12 GLL5        0.0000 
     29 CA         27.3090   65.8210   29.6920 C.3       8 GLP5        0.0000 
     30 O          30.7085   66.7925   31.1200 O.2       1 ALC1        0.0000 
     31 O          30.1120   67.7750   31.6700 O.2       9 ALL1        0.0000 
     32 CA         28.0760   71.4800   30.8375 C.3       4 GLC5        0.0000 
     33 CA         29.2100   70.0480   31.4370 C.3      12 GLL5        0.0000 
     34 CA         26.9420   72.9120   30.2380 C.3       8 GLP5        0.0000 
     35 CA         24.9465   69.8745   35.9625 C.3       4 GLC5        0.0000 
     36 CA         25.1470   70.8180   34.2630 C.3      12 GLL5        0.0000 
     37 CA         24.7460   68.9310   37.6620 C.3       8 GLP5        0.0000 
     38 CA         23.8685   72.4805   34.6885 C.3       4 GLC5        0.0000 
     39 CA         22.5900   74.1430   35.1140 C.3       8 GLP5        0.0000 
     40 O          22.9510   70.4285   32.9405 O.2       1 ALC1        0.0000 
     41 O          23.8070   70.6310   34.3500 O.2       9 ALL1        0.0000 
     42 O          22.0950   70.2260   31.5310 O.2       5 ALP1        0.0000 
     43 O          23.0355   71.0545   35.4180 O.2       1 ALC1        0.0000 
     44 O          22.2640   71.4780   36.4860 O.2       5 ALP1        0.0000 
     45 N          25.2225   72.0505   36.3855 N.am      2 SEC2        0.0000 
     46 N          25.8470   71.4390   35.2440 N.am     10 SEL2        0.0000 
     47 N          24.5980   72.6620   37.5270 N.am      6 SEP2        0.0000 
     48 CA         26.7880   71.5730   36.9330 C.3       4 GLC5        0.0000 
     49 CA         27.1850   71.6090   35.1510 C.3      12 GLL5        0.0000 
     50 CA         26.3910   71.5370   38.7150 C.3       8 GLP5        0.0000 
     51 CA         25.9585   73.2990   35.5715 C.3       4 GLC5        0.0000 
     52 CA         24.7320   74.9890   35.9920 C.3       8 GLP5        0.0000 
     53 CA         27.0880   68.6010   33.5365 C.3       4 GLC5        0.0000 
     54 CA         27.3580   70.5670   33.0530 C.3      12 GLL5        0.0000 
     55 CA         26.8180   66.6350   34.0200 C.3       8 GLP5        0.0000 
     56 CA         27.1500   71.7395   31.6455 C.3       4 GLC5        0.0000 
     57 CA         28.3020   71.7620   29.4567 C.3       4 GLC5        0.0000 
     58 CA         29.2190   70.6660   28.0540 C.3      12 GLL5        0.0000 
     59 CA         31.1513   69.3500   27.5144 C.3       4 GLC5        0.0000 
     60 CA         30.1050   70.5580   29.2970 C.3      12 GLL5        0.0000 
     61 CA         32.2310   68.8330   25.8710 C.3       8 GLP5        0.0000 
     62 CA         25.4770   68.7175   34.1315 C.3       4 GLC5        0.0000 
     63 CA         25.9050   70.3360   33.0790 C.3      12 GLL5        0.0000 
     64 CA         25.4280   66.8580   34.5920 C.3       8 GLP5        0.0000 
     65 CA         25.5275   71.4865   31.9565 C.3       4 GLC5        0.0000 
     66 CA         25.5290   72.3960   30.2420 C.3       8 GLP5        0.0000 
@<TRIPOS>BOND
@<TRIPOS>SUBSTRUCTURE
     1 ALC1       22 GROUP        1 X    ALC  0     ROOT ALC X 1
     2 SEC2        4 GROUP        1 X    SEC  0     **** SEC X 2
     3 LYC4        1 GROUP        1 X    LYC  0     **** LYC X 4
     4 GLC5       27 GROUP        1 X    GLC  0     **** GLC X 6
     5 ALP1       24 GROUP        1 Y    ALP  0     ROOT ALP Y 8
     6 SEP2        6 GROUP        1 Y    SEP  0     **** SEP Y 9
     7 LYP4        3 GROUP        1 Y    LYP  0     **** LYP Y 11
     8 GLP5       29 GROUP        1 Y    GLP  0     **** GLP Y 13
     9 ALL1       23 GROUP        1 Z    ALL  0     ROOT ALL Z 15
    10 SEL2        5 GROUP        1 Z    SEL  0     **** SEL Z 16
    11 LYL4        2 GROUP        1 Z    LYL  0     **** LYL Z 18
    12 GLL5       28 GROUP        1 Z    GLL  0     **** GLL Z 20
@<TRIPOS>SET

