#    Name: 2y8q_ADP_1_ligand
#    Modification time : Tue Mar 25 07:58:02 2014

@<TRIPOS>MOLECULE
2y8q_ADP_1_ligand
   39    41     1     0     0
SMALL
NO_CHARGES


@<TRIPOS>ATOM
      1 PB         26.9930   67.2870   25.4890 P.3       1 ADP1327     0.0000 
      2 O1B        26.3690   65.9120   25.6990 O.co2     1 ADP1327     0.0000 
      3 O2B        28.4830   67.3380   25.6740 O.co2     1 ADP1327     0.0000 
      4 O3B        26.4450   68.0090   24.2730 O.co2     1 ADP1327     0.0000 
      5 PA         27.0640   69.6510   27.0740 P.3       1 ADP1327     0.0000 
      6 O1A        26.0650   70.2110   28.0580 O.co2     1 ADP1327     0.0000 
      7 O2A        27.3660   70.4050   25.8130 O.co2     1 ADP1327     0.0000 
      8 O3A        26.5390   68.1570   26.7660 O.3       1 ADP1327     0.0000 
      9 O5'        28.4550   69.4780   27.8440 O.3       1 ADP1327     0.0000 
     10 C5'        29.2190   70.6660   28.0540 C.3       1 ADP1327     0.0000 
     11 C4'        30.1050   70.5580   29.2970 C.3       1 ADP1327     0.0000 
     12 O4'        29.4300   71.0770   30.4520 O.3       1 ADP1327     0.0000 
     13 C3'        30.4810   69.1220   29.6400 C.3       1 ADP1327     0.0000 
     14 O3'        31.8440   69.1370   30.0790 O.3       1 ADP1327     0.0000 
     15 C2'        29.5370   68.7210   30.7630 C.3       1 ADP1327     0.0000 
     16 O2'        30.1120   67.7750   31.6700 O.3       1 ADP1327     0.0000 
     17 C1'        29.2100   70.0480   31.4370 C.3       1 ADP1327     0.0000 
     18 N9         27.7980   70.0530   31.9010 N.pl3     1 ADP1327     0.0000 
     19 C8         26.7510   69.5440   31.2230 C.2       1 ADP1327     0.0000 
     20 N7         25.6000   69.7020   31.9300 N.2       1 ADP1327     0.0000 
     21 C5         25.9050   70.3360   33.0790 C.ar      1 ADP1327     0.0000 
     22 C6         25.1470   70.8180   34.2630 C.ar      1 ADP1327     0.0000 
     23 N6         23.8070   70.6310   34.3500 N.pl3     1 ADP1327     0.0000 
     24 N1         25.8470   71.4390   35.2440 N.ar      1 ADP1327     0.0000 
     25 C2         27.1850   71.6090   35.1510 C.ar      1 ADP1327     0.0000 
     26 N3         27.9300   71.2000   34.1010 N.ar      1 ADP1327     0.0000 
     27 C4         27.3580   70.5670   33.0530 C.ar      1 ADP1327     0.0000 
     28 H          28.5689   71.5489   28.1856 H         1 ADP1327     0.0000 
     29 H          29.8779   70.8822   27.1947 H         1 ADP1327     0.0000 
     30 H          31.0208   71.1089   29.1245 H         1 ADP1327     0.0000 
     31 H          30.3145   68.5199   28.7988 H         1 ADP1327     0.0000 
     32 H          28.6263   68.3650   30.3058 H         1 ADP1327     0.0000 
     33 H          29.8750   70.1690   32.2686 H         1 ADP1327     0.0000 
     34 H          26.8039   69.1184   30.3438 H         1 ADP1327     0.0000 
     35 H          23.3721   70.1915   33.5640 H         1 ADP1327     0.0000 
     36 H          23.3721   70.9491   35.1924 H         1 ADP1327     0.0000 
     37 H          27.6850   72.0984   35.9603 H         1 ADP1327     0.0000 
     38 H          31.9421   68.3193   30.6463 H         1 ADP1327     0.0000 
     39 H          30.1069   66.9061   31.1751 H         1 ADP1327     0.0000 
@<TRIPOS>BOND
     1    2    1 ar   
     2    3    1 ar   
     3    4    1 ar   
     4    8    1 1    
     5    6    5 ar   
     6    7    5 ar   
     7    8    5 1    
     8    9    5 1    
     9   10    9 1    
    10   11   10 1    
    11   28   10 1    
    12   29   10 1    
    13   12   11 1    
    14   13   11 1    
    15   30   11 1    
    16   17   12 1    
    17   14   13 1    
    18   15   13 1    
    19   31   13 1    
    20   38   14 1    
    21   16   15 1    
    22   17   15 1    
    23   32   15 1    
    24   39   16 1    
    25   18   17 1    
    26   33   17 1    
    27   19   18 1    
    28   27   18 1    
    29   20   19 2    
    30   34   19 1    
    31   21   20 1    
    32   22   21 ar   
    33   27   21 ar   
    34   23   22 1    
    35   24   22 ar   
    36   35   23 1    
    37   36   23 1    
    38   25   24 ar   
    39   26   25 ar   
    40   37   25 1    
    41   27   26 ar   
@<TRIPOS>SUBSTRUCTURE
     1 ADP1327     1 GROUP   
@<TRIPOS>SET

