#    Name: 1owe_675_1_INTS_M
#    Modification time : Mon Mar 24 20:41:37 2014

@<TRIPOS>MOLECULE
1owe_675_1_INTS_M
   39     0     6     0     0
SMALL
NO_CHARGES


@<TRIPOS>ATOM
      1 O          15.9270   20.2195   34.4565 O.2       1 ALC1        0.0000 
      2 O          16.9100   19.4810   33.7500 O.2       5 ALL1        0.0000 
      3 O          14.9440   20.9580   35.1630 O.2       3 ALP1        0.0000 
      4 O          16.7200   20.8005   34.8655 O.2       1 ALC1        0.0000 
      5 O          16.5300   22.1200   35.9810 O.2       3 ALP1        0.0000 
      6 O          15.9990   18.4425   33.8585 O.2       1 ALC1        0.0000 
      7 O          15.0880   17.4040   33.9670 O.2       3 ALP1        0.0000 
      8 O          17.5970   21.5545   35.2145 O.2       1 ALC1        0.0000 
      9 O          18.6640   20.9890   34.4480 O.2       5 ALL1        0.0000 
     10 O          20.0015   21.2530   34.9800 O.2       1 ALC1        0.0000 
     11 O          21.3390   21.5170   35.5120 O.2       3 ALP1        0.0000 
     12 CA         23.3230   15.5635   35.6170 C.3       2 GLC5        0.0000 
     13 CA         23.5420   16.6870   34.0250 C.3       6 GLL5        0.0000 
     14 CA         23.1040   14.4400   37.2090 C.3       4 GLP5        0.0000 
     15 CA         17.8865   15.9685   32.0505 C.3       2 GLC5        0.0000 
     16 CA         18.9160   17.6690   32.6200 C.3       6 GLL5        0.0000 
     17 CA         16.4300   14.8100   31.6540 C.3       4 GLP5        0.0000 
     18 CA         20.3255   17.5285   30.8478 C.3       2 GLC5        0.0000 
     19 CA         19.7700   16.5850   32.2740 C.3       6 GLL5        0.0000 
     20 CA         20.4620   18.2200   29.0180 C.3       4 GLP5        0.0000 
     21 CA         22.1677   14.8710   34.7590 C.3       2 GLC5        0.0000 
     22 CA         21.9800   15.5860   32.5700 C.3       6 GLL5        0.0000 
     23 CA         21.6860   14.1690   36.6820 C.3       4 GLP5        0.0000 
     24 CA         21.8605   15.9028   35.3983 C.3       2 GLC5        0.0000 
     25 CA         22.6570   17.6790   34.3910 C.3       6 GLL5        0.0000 
     26 CA         19.7625   17.3634   35.5715 C.3       2 GLC5        0.0000 
     27 CA         20.5120   18.5880   34.1190 C.3       6 GLL5        0.0000 
     28 CA         18.8940   16.6040   37.3000 C.3       4 GLP5        0.0000 
     29 CA         20.2218   19.9215   32.3064 C.3       2 GLC5        0.0000 
     30 CA         20.6620   21.4530   31.0040 C.3       4 GLP5        0.0000 
     31 CA         21.0898   18.6691   36.0469 C.3       2 GLC5        0.0000 
     32 CA         20.9060   19.2260   37.9770 C.3       4 GLP5        0.0000 
     33 CA         24.5413   12.4955   29.5033 C.3       2 GLC5        0.0000 
     34 CA         25.3720   13.3340   30.9910 C.3       6 GLL5        0.0000 
     35 CA         23.4860   11.4740   28.6520 C.3       4 GLP5        0.0000 
     36 CA         25.2465   11.8987   29.0275 C.3       2 GLC5        0.0000 
     37 CA         26.7490   12.8940   29.0580 C.3       6 GLL5        0.0000 
     38 CA         24.9537   11.6522   30.0110 C.3       2 GLC5        0.0000 
     39 CA         26.9000   11.4270   31.0520 C.3       6 GLL5        0.0000 
@<TRIPOS>BOND
@<TRIPOS>SUBSTRUCTURE
     1 ALC1        1 GROUP        1 X    ALC  0     ROOT ALC X 1
     2 GLC5       12 GROUP        1 X    GLC  0     **** GLC X 6
     3 ALP1        3 GROUP        1 Y    ALP  0     ROOT ALP Y 8
     4 GLP5       14 GROUP        1 Y    GLP  0     **** GLP Y 13
     5 ALL1        2 GROUP        1 Z    ALL  0     ROOT ALL Z 15
     6 GLL5       13 GROUP        1 Z    GLL  0     **** GLL Z 20
@<TRIPOS>SET

