#    Name: 1owe_675_1_ligand
#    Modification time : Mon Mar 24 20:41:37 2014

@<TRIPOS>MOLECULE
1owe_675_1_ligand
   38    40     1     0     0
SMALL
NO_CHARGES


@<TRIPOS>ATOM
      1 N18        16.9100   19.4810   33.7500 N.pl3     1 6751001     0.0000 
      2 C17        18.2190   19.7910   33.9580 C.ar      1 6751001     0.0000 
      3 N19        18.6640   20.9890   34.4480 N.pl3     1 6751001     0.0000 
      4 C12        19.1860   18.7150   33.5770 C.ar      1 6751001     0.0000 
      5 C11        18.9160   17.6690   32.6200 C.ar      1 6751001     0.0000 
      6 C10        19.7700   16.5850   32.2740 C.ar      1 6751001     0.0000 
      7 C2         21.0350   16.5470   32.9080 C.ar      1 6751001     0.0000 
      8 C1         21.9800   15.5860   32.5700 C.ar      1 6751001     0.0000 
      9 C6         23.3190   15.5600   33.1020 C.ar      1 6751001     0.0000 
     10 C5         23.5420   16.6870   34.0250 C.ar      1 6751001     0.0000 
     11 C4         22.6570   17.6790   34.3910 C.ar      1 6751001     0.0000 
     12 C3         21.4130   17.5940   33.8380 C.ar      1 6751001     0.0000 
     13 C13        20.5120   18.5880   34.1190 C.ar      1 6751001     0.0000 
     14 C23        24.3420   14.5750   32.7800 C.2       1 6751001     0.0000 
     15 O36        25.1790   14.3330   33.6420 O.2       1 6751001     0.0000 
     16 N24        24.3970   14.1850   31.4660 N.am      1 6751001     0.0000 
     17 C25        25.3720   13.3340   30.9910 C.ar      1 6751001     0.0000 
     18 C30        25.8210   13.7000   29.7180 C.ar      1 6751001     0.0000 
     19 C29        26.7490   12.8940   29.0580 C.ar      1 6751001     0.0000 
     20 C28        27.2650   11.7530   29.7480 C.ar      1 6751001     0.0000 
     21 C27        26.9000   11.4270   31.0520 C.ar      1 6751001     0.0000 
     22 C26        25.9430   12.2340   31.6880 C.ar      1 6751001     0.0000 
     23 H          16.7292   18.5860   33.3422 H         1 6751001     0.0000 
     24 H          16.2445   20.1756   34.0233 H         1 6751001     0.0000 
     25 H          19.6541   21.0805   34.5541 H         1 6751001     0.0000 
     26 H          17.9600   21.6677   34.6570 H         1 6751001     0.0000 
     27 H          17.9748   17.7209   32.1238 H         1 6751001     0.0000 
     28 H          19.4892   15.8907   31.6193 H         1 6751001     0.0000 
     29 H          21.7253   14.8297   31.8926 H         1 6751001     0.0000 
     30 H          24.5322   16.7085   34.4497 H         1 6751001     0.0000 
     31 H          22.9186   18.4139   35.0246 H         1 6751001     0.0000 
     32 H          20.7989   19.3565   34.8056 H         1 6751001     0.0000 
     33 H          23.6733   14.5452   30.7971 H         1 6751001     0.0000 
     34 H          25.4705   14.5529   29.2753 H         1 6751001     0.0000 
     35 H          27.0577   13.0970   28.1197 H         1 6751001     0.0000 
     36 H          27.9441   11.1473   29.2390 H         1 6751001     0.0000 
     37 H          27.3082   10.6352   31.5302 H         1 6751001     0.0000 
     38 H          25.6535   12.0386   32.6454 H         1 6751001     0.0000 
@<TRIPOS>BOND
     1    2    1 ar   
     2   23    1 1    
     3   24    1 1    
     4    3    2 ar   
     5    4    2 1    
     6   25    3 1    
     7   26    3 1    
     8    5    4 ar   
     9   13    4 ar   
    10    6    5 ar   
    11   27    5 1    
    12    7    6 ar   
    13   28    6 1    
    14    8    7 ar   
    15   12    7 ar   
    16    9    8 ar   
    17   29    8 1    
    18   10    9 ar   
    19   14    9 1    
    20   11   10 ar   
    21   30   10 1    
    22   12   11 ar   
    23   31   11 1    
    24   13   12 ar   
    25   32   13 1    
    26   15   14 2    
    27   16   14 am   
    28   17   16 1    
    29   33   16 1    
    30   18   17 ar   
    31   22   17 ar   
    32   19   18 ar   
    33   34   18 1    
    34   20   19 ar   
    35   35   19 1    
    36   21   20 ar   
    37   36   20 1    
    38   22   21 ar   
    39   37   21 1    
    40   38   22 1    
@<TRIPOS>SUBSTRUCTURE
     1 6751001     1 GROUP   
@<TRIPOS>SET

