#    Name: 4ky8_1UF_4_INTS_M
#    Modification time : Tue Mar 25 09:16:56 2014

@<TRIPOS>MOLECULE
4ky8_1UF_4_INTS_M
   57     0     6     0     0
SMALL
NO_CHARGES


@<TRIPOS>ATOM
      1 CA        263.1140  -81.5865  523.5895 C.3       2 GLC5        0.0000 
      2 CA        261.6070  -81.5130  522.2330 C.3       6 GLL5        0.0000 
      3 CA        264.6210  -81.6600  524.9460 C.3       4 GLP5        0.0000 
      4 CA        261.1610  -82.2710  523.8665 C.3       2 GLC5        0.0000 
      5 CA        260.7150  -83.0290  525.5000 C.3       4 GLP5        0.0000 
      6 CA        258.0325  -83.6285  520.4425 C.3       2 GLC5        0.0000 
      7 CA        259.8720  -82.6640  520.6820 C.3       6 GLL5        0.0000 
      8 CA        256.1930  -84.5930  520.2030 C.3       4 GLP5        0.0000 
      9 CA        256.0690  -78.7305  523.3500 C.3       2 GLC5        0.0000 
     10 CA        255.8090  -80.0760  521.6740 C.3       6 GLL5        0.0000 
     11 CA        256.3290  -77.3850  525.0260 C.3       4 GLP5        0.0000 
     12 CA        255.6955  -81.6425  520.8640 C.3       2 GLC5        0.0000 
     13 CA        255.5820  -83.2090  520.0540 C.3       4 GLP5        0.0000 
     14 CA        255.2315  -84.9540  525.1645 C.3       2 GLC5        0.0000 
     15 CA        256.1030  -82.9010  525.1610 C.3       6 GLL5        0.0000 
     16 CA        254.3600  -87.0070  525.1680 C.3       4 GLP5        0.0000 
     17 CA        252.1080  -83.3555  526.7790 C.3       2 GLC5        0.0000 
     18 CA        253.5050  -82.5280  525.9200 C.3       6 GLL5        0.0000 
     19 CA        250.7110  -84.1830  527.6380 C.3       4 GLP5        0.0000 
     20 O         251.3805  -85.0545  521.1650 O.2       1 ALC1        0.0000 
     21 O         251.0480  -83.8740  521.9680 O.2       5 ALL1        0.0000 
     22 O         251.7130  -86.2350  520.3620 O.2       3 ALP1        0.0000 
     23 O         248.6975  -82.2135  519.8340 O.2       1 ALC1        0.0000 
     24 O         249.0670  -83.3470  520.5270 O.2       5 ALL1        0.0000 
     25 O         248.3280  -81.0800  519.1410 O.2       3 ALP1        0.0000 
     26 O         248.1010  -84.6100  520.2435 O.2       1 ALC1        0.0000 
     27 O         247.1350  -85.8730  519.9600 O.2       3 ALP1        0.0000 
     28 O         249.8555  -79.4920  524.1075 O.2       1 ALC1        0.0000 
     29 O         250.2350  -80.6930  524.5980 O.2       5 ALL1        0.0000 
     30 O         249.4760  -78.2910  523.6170 O.2       3 ALP1        0.0000 
     31 CA        251.7930  -79.0355  528.1765 C.3       2 GLC5        0.0000 
     32 CA        251.5240  -79.9720  526.6880 C.3       6 GLL5        0.0000 
     33 CA        252.0620  -78.0990  529.6650 C.3       4 GLP5        0.0000 
     34 CA        257.6825  -80.5960  524.7428 C.3       2 GLC5        0.0000 
     35 CA        257.2180  -82.6890  524.3600 C.3       6 GLL5        0.0000 
     36 CA        258.1980  -78.9410  525.6630 C.3       4 GLP5        0.0000 
     37 CA        255.6232  -82.3209  521.7694 C.3       2 GLC5        0.0000 
     38 CA        254.8120  -81.3780  523.8200 C.3       6 GLL5        0.0000 
     39 CA        253.8694  -80.2668  522.3240 C.3       2 GLC5        0.0000 
     40 CA        255.9180  -81.1620  523.0140 C.3       6 GLL5        0.0000 
     41 CA        252.4010  -79.5350  521.5660 C.3       4 GLP5        0.0000 
     42 CA        256.1333  -84.0495  523.0933 C.3       2 GLC5        0.0000 
     43 CA        255.6060  -85.3040  521.4260 C.3       4 GLP5        0.0000 
     44 CA        257.3567  -84.1785  526.2278 C.3       2 GLC5        0.0000 
     45 CA        258.0530  -85.5620  527.6950 C.3       4 GLP5        0.0000 
     46 CA        255.9615  -80.1255  525.0750 C.3       2 GLC5        0.0000 
     47 CA        254.9130  -82.2480  524.8910 C.3       6 GLL5        0.0000 
     48 CA        256.7840  -78.4920  525.9960 C.3       4 GLP5        0.0000 
     49 CA        250.5054  -83.1088  525.2998 C.3       2 GLC5        0.0000 
     50 CA        250.3570  -81.7030  523.6240 C.3       6 GLL5        0.0000 
     51 CA        249.9500  -84.2680  526.5280 C.3       4 GLP5        0.0000 
     52 CA        251.0292  -81.7450  527.2590 C.3       2 GLC5        0.0000 
     53 CA        251.2830  -80.8400  525.5000 C.3       6 GLL5        0.0000 
     54 CA        250.6550  -83.0840  528.4240 C.3       4 GLP5        0.0000 
     55 CA        249.2772  -80.5070  526.3445 C.3       2 GLC5        0.0000 
     56 CA        247.1510  -80.6080  526.5950 C.3       4 GLP5        0.0000 
     57 CA        251.7864  -80.4649  523.1759 C.3       2 GLC5        0.0000 
@<TRIPOS>BOND
@<TRIPOS>SUBSTRUCTURE
     1 ALC1       20 GROUP        1 X    ALC  0     ROOT ALC X 1
     2 GLC5        1 GROUP        1 X    GLC  0     **** GLC X 6
     3 ALP1       22 GROUP        1 Y    ALP  0     ROOT ALP Y 8
     4 GLP5        3 GROUP        1 Y    GLP  0     **** GLP Y 13
     5 ALL1       21 GROUP        1 Z    ALL  0     ROOT ALL Z 15
     6 GLL5        2 GROUP        1 Z    GLL  0     **** GLL Z 20
@<TRIPOS>SET

