#    Name: 4ky8_1UF_4_ligand
#    Modification time : Tue Mar 25 09:16:56 2014

@<TRIPOS>MOLECULE
4ky8_1UF_4_ligand
   48    50     1     0     0
SMALL
NO_CHARGES


@<TRIPOS>ATOM
      1 OE1       261.9010  -79.3860  523.2750 O.co2     1 1UF604      0.0000 
      2 CD        262.4050  -80.2960  522.5640 C.2       1 1UF604      0.0000 
      3 OE2       263.5840  -80.1800  522.1360 O.co2     1 1UF604      0.0000 
      4 CG        261.6070  -81.5130  522.2330 C.3       1 1UF604      0.0000 
      5 CB        260.8730  -81.5860  520.9360 C.3       1 1UF604      0.0000 
      6 CA        259.8720  -82.6640  520.6820 C.3       1 1UF604      0.0000 
      7 C         260.5480  -83.9980  520.7190 C.2       1 1UF604      0.0000 
      8 O         261.0750  -84.4670  519.6750 O.co2     1 1UF604      0.0000 
      9 OXT       260.5930  -84.6590  521.7900 O.co2     1 1UF604      0.0000 
     10 N         258.7650  -82.6710  521.6000 N.am      1 1UF604      0.0000 
     11 CAV       258.2970  -81.5750  522.4050 C.2       1 1UF604      0.0000 
     12 OAE       258.8170  -80.4680  522.3940 O.2       1 1UF604      0.0000 
     13 CBA       257.1160  -81.8130  523.2850 C.ar      1 1UF604      0.0000 
     14 CAZ       255.9180  -81.1620  523.0140 C.ar      1 1UF604      0.0000 
     15 CL1       255.8090  -80.0760  521.6740 Cl        1 1UF604      0.0000 
     16 CAL       254.8120  -81.3780  523.8200 C.ar      1 1UF604      0.0000 
     17 CAK       257.2180  -82.6890  524.3600 C.ar      1 1UF604      0.0000 
     18 CAJ       256.1030  -82.9010  525.1610 C.ar      1 1UF604      0.0000 
     19 CAY       254.9130  -82.2480  524.8910 C.ar      1 1UF604      0.0000 
     20 SAS       253.5050  -82.5280  525.9200 S.3       1 1UF604      0.0000 
     21 CBB       252.0540  -81.9220  525.1110 C.2       1 1UF604      0.0000 
     22 CBE       251.4750  -82.4700  523.9270 C.2       1 1UF604      0.0000 
     23 CBC       251.8290  -83.5760  523.0840 C.2       1 1UF604      0.0000 
     24 OAF       252.9320  -84.3440  523.3700 O.2       1 1UF604      0.0000 
     25 NAQ       251.0480  -83.8740  521.9680 N.am      1 1UF604      0.0000 
     26 CAW       249.8820  -83.0610  521.6660 C.2       1 1UF604      0.0000 
     27 NAB       249.0670  -83.3470  520.5270 N.pl3     1 1UF604      0.0000 
     28 NAO       249.5800  -81.9900  522.5220 N.2       1 1UF604      0.0000 
     29 CBD       250.3570  -81.7030  523.6240 C.2       1 1UF604      0.0000 
     30 NAR       250.2350  -80.6930  524.5980 N.pl3     1 1UF604      0.0000 
     31 CAX       251.2830  -80.8400  525.5000 C.2       1 1UF604      0.0000 
     32 CAA       251.5240  -79.9720  526.6880 C.3       1 1UF604      0.0000 
     33 H         260.8648  -81.6930  523.0743 H         1 1UF604      0.0000 
     34 H         262.2888  -82.4187  522.3092 H         1 1UF604      0.0000 
     35 H         261.6424  -81.6103  520.0929 H         1 1UF604      0.0000 
     36 H         260.3637  -80.5798  520.7585 H         1 1UF604      0.0000 
     37 H         259.4912  -82.5351  519.6500 H         1 1UF604      0.0000 
     38 H         258.2331  -83.5891  521.6941 H         1 1UF604      0.0000 
     39 H         253.9274  -80.8972  523.6239 H         1 1UF604      0.0000 
     40 H         258.0976  -83.1680  524.5568 H         1 1UF604      0.0000 
     41 H         256.1647  -83.5497  525.9616 H         1 1UF604      0.0000 
     42 H         251.2712  -84.6505  521.3525 H         1 1UF604      0.0000 
     43 H         248.6236  -84.2433  520.5171 H         1 1UF604      0.0000 
     44 H         249.0086  -82.6268  519.8357 H         1 1UF604      0.0000 
     45 H         249.5580  -80.0373  524.6246 H         1 1UF604      0.0000 
     46 H         252.4172  -79.5243  526.6458 H         1 1UF604      0.0000 
     47 H         250.8372  -79.2492  526.7653 H         1 1UF604      0.0000 
     48 H         251.4977  -80.4938  527.5407 H         1 1UF604      0.0000 
@<TRIPOS>BOND
     1    2    1 ar   
     2    3    2 ar   
     3    4    2 1    
     4    5    4 1    
     5   33    4 1    
     6   34    4 1    
     7    6    5 1    
     8   35    5 1    
     9   36    5 1    
    10    7    6 1    
    11   10    6 1    
    12   37    6 1    
    13    8    7 ar   
    14    9    7 ar   
    15   11   10 am   
    16   38   10 1    
    17   12   11 2    
    18   13   11 1    
    19   14   13 ar   
    20   17   13 ar   
    21   15   14 1    
    22   16   14 ar   
    23   19   16 ar   
    24   39   16 1    
    25   18   17 ar   
    26   40   17 1    
    27   19   18 ar   
    28   41   18 1    
    29   20   19 1    
    30   21   20 1    
    31   22   21 1    
    32   31   21 2    
    33   23   22 1    
    34   29   22 2    
    35   24   23 2    
    36   25   23 am   
    37   26   25 1    
    38   42   25 1    
    39   27   26 1    
    40   28   26 2    
    41   43   27 1    
    42   44   27 1    
    43   29   28 1    
    44   30   29 1    
    45   31   30 1    
    46   45   30 1    
    47   32   31 1    
    48   46   32 1    
    49   47   32 1    
    50   48   32 1    
@<TRIPOS>SUBSTRUCTURE
     1 1UF604      1 GROUP   
@<TRIPOS>SET

