#    Name: 3lzu_017_1_INTS_M
#    Modification time : Mon Mar 24 22:29:44 2014

@<TRIPOS>MOLECULE
3lzu_017_1_INTS_M
   89     0     9     0     0
SMALL
NO_CHARGES


@<TRIPOS>ATOM
      1 O          10.5405  -16.8000   -8.0370 O.2       1 ALC1        0.0000 
      2 O           8.9630  -16.2910   -7.9310 O.2       7 ALL1        0.0000 
      3 O          12.1180  -17.3090   -8.1430 O.2       4 ALP1        0.0000 
      4 O           8.3595  -16.5650   -9.2380 O.2       1 ALC1        0.0000 
      5 O           7.7560  -16.8390  -10.5450 O.2       4 ALP1        0.0000 
      6 CA          9.4620  -16.6035   -8.6725 C.3       3 GLC5        0.0000 
      7 CA          8.8030  -16.0010   -6.6240 C.3       9 GLL5        0.0000 
      8 CA         10.1210  -17.2060  -10.7210 C.3       6 GLP5        0.0000 
      9 CA          5.7090  -20.6630   -0.9045 C.3       3 GLC5        0.0000 
     10 CA          5.4090  -18.7900   -1.0160 C.3       9 GLL5        0.0000 
     11 CA          6.0090  -22.5360   -0.7930 C.3       6 GLP5        0.0000 
     12 CA          3.5455  -19.4460   -0.3465 C.3       3 GLC5        0.0000 
     13 CA          1.6820  -20.1020    0.3230 C.3       6 GLP5        0.0000 
     14 CA         10.4130  -17.9230   -3.0820 C.3       3 GLC5        0.0000 
     15 CA          9.5510  -17.1450   -1.3220 C.3       9 GLL5        0.0000 
     16 CA         11.2750  -18.7010   -4.8420 C.3       6 GLP5        0.0000 
     17 N          11.0190  -19.4085    0.7550 N.am      2 SEC2        0.0000 
     18 N          11.0550  -18.0650    0.3350 N.am      8 SEL2        0.0000 
     19 N          10.9830  -20.7520    1.1750 N.am      5 SEP2        0.0000 
     20 N          11.7510  -18.9655   -0.2875 N.am      2 SEC2        0.0000 
     21 N          12.4470  -19.8660   -0.9100 N.am      5 SEP2        0.0000 
     22 O          11.9175  -17.9445   -0.6450 O.2       1 ALC1        0.0000 
     23 O          11.0550  -18.0650    0.3350 O.2       7 ALL1        0.0000 
     24 O          12.7800  -17.8240   -1.6250 O.2       4 ALP1        0.0000 
     25 O          12.0215  -16.5000    2.5915 O.2       1 ALC1        0.0000 
     26 O          10.5840  -15.8550    2.0680 O.2       7 ALL1        0.0000 
     27 O          13.4590  -17.1450    3.1150 O.2       4 ALP1        0.0000 
     28 CA          9.8155  -17.3815    5.7495 C.3       3 GLC5        0.0000 
     29 CA          9.1030  -15.6180    6.3950 C.3       9 GLL5        0.0000 
     30 CA         10.5280  -19.1450    5.1040 C.3       6 GLP5        0.0000 
     31 CA          7.4405  -16.3060    7.3065 C.3       3 GLC5        0.0000 
     32 CA          5.7780  -16.9940    8.2180 C.3       6 GLP5        0.0000 
     33 CA          7.6075  -14.5355    7.3855 C.3       3 GLC5        0.0000 
     34 CA          6.1120  -13.4530    8.3760 C.3       6 GLP5        0.0000 
     35 CA          7.8130  -16.9695    5.5545 C.3       3 GLC5        0.0000 
     36 CA          6.5230  -18.3210    4.7140 C.3       6 GLP5        0.0000 
     37 N          11.6130  -16.7545    7.1175 N.am      2 SEC2        0.0000 
     38 N          10.3110  -15.7140    7.1450 N.am      8 SEL2        0.0000 
     39 N          12.9150  -17.7950    7.0900 N.am      5 SEP2        0.0000 
     40 CA         12.5325  -15.5465    7.9940 C.3       3 GLC5        0.0000 
     41 CA         11.0480  -14.4960    7.0400 C.3       9 GLL5        0.0000 
     42 CA         14.0170  -16.5970    8.9480 C.3       6 GLP5        0.0000 
     43 N          12.6685  -16.3025    6.9495 N.am      2 SEC2        0.0000 
     44 N          12.4220  -14.8100    6.8090 N.am      8 SEL2        0.0000 
     45 CA         12.3480  -16.5685    5.2305 C.3       3 GLC5        0.0000 
     46 CA         12.7650  -14.5840    5.4510 C.3       9 GLL5        0.0000 
     47 CA         11.9310  -18.5530    5.0100 C.3       6 GLP5        0.0000 
     48 CA         13.3910  -15.5905    7.1995 C.3       3 GLC5        0.0000 
     49 CA         14.8345  -15.2600    1.3055 C.3       3 GLC5        0.0000 
     50 CA         13.2830  -14.0060    1.5940 C.3       9 GLL5        0.0000 
     51 CA         16.3860  -16.5140    1.0170 C.3       6 GLP5        0.0000 
     52 CA         14.8915  -12.7565    0.7720 C.3       3 GLC5        0.0000 
     53 CA         16.5000  -11.5070   -0.0500 C.3       6 GLP5        0.0000 
     54 CA         10.7345  -11.8740   -1.4255 C.3       3 GLC5        0.0000 
     55 CA         11.5650  -12.8590    0.3660 C.3       9 GLL5        0.0000 
     56 CA          9.9040  -10.8890   -3.2170 C.3       6 GLP5        0.0000 
     57 CA         10.3225  -17.3212   -5.5380 C.3       3 GLC5        0.0000 
     58 CA          9.9370  -15.8820   -5.8440 C.3       9 GLL5        0.0000 
     59 CA         10.6015  -14.7452   -7.1040 C.3       3 GLC5        0.0000 
     60 CA         11.8330  -13.5490   -7.9740 C.3       6 GLP5        0.0000 
     61 CA          8.3592  -13.9720   -7.1707 C.3       3 GLC5        0.0000 
     62 CA          8.5500  -12.0370   -7.9860 C.3       6 GLP5        0.0000 
     63 CA          8.9915  -13.6605   -4.3432 C.3       3 GLC5        0.0000 
     64 CA          7.3980  -15.5000   -4.7360 C.3       9 GLL5        0.0000 
     65 CA         10.0140  -11.8770   -4.3440 C.3       6 GLP5        0.0000 
     66 CA         10.2220  -17.0902   -4.5343 C.3       3 GLC5        0.0000 
     67 CA          8.5400  -15.3880   -3.9490 C.3       9 GLL5        0.0000 
     68 CA          9.9407  -13.8018   -4.7590 C.3       3 GLC5        0.0000 
     69 CA          9.7980  -15.5710   -4.5040 C.3       9 GLL5        0.0000 
     70 CA         11.0815  -15.2274   -4.7536 C.3       3 GLC5        0.0000 
     71 CA         12.6100  -14.7740   -4.4720 C.3       6 GLP5        0.0000 
     72 CA          5.6615  -19.2259    1.2299 C.3       3 GLC5        0.0000 
     73 CA          6.6310  -17.9590   -0.6290 C.3       9 GLL5        0.0000 
     74 CA          5.3920  -20.3120    2.9960 C.3       6 GLP5        0.0000 
     75 CA          7.3590  -14.9228    5.2465 C.3       3 GLC5        0.0000 
     76 CA          9.5010  -14.7070    5.2530 C.3       9 GLL5        0.0000 
     77 CA          5.4160  -14.6830    4.6690 C.3       6 GLP5        0.0000 
     78 CA         13.4375  -14.7490   -1.1685 C.3       3 GLC5        0.0000 
     79 CA         12.2210  -14.0340    0.6920 C.3       9 GLL5        0.0000 
     80 CA         14.8710  -14.8130   -2.7180 C.3       6 GLP5        0.0000 
     81 CA         14.8670  -11.5328    1.6732 C.3       3 GLC5        0.0000 
     82 CA         13.6800  -12.8060    2.1660 C.3       9 GLL5        0.0000 
     83 CA         16.3840  -10.8480    1.3440 C.3       6 GLP5        0.0000 
     84 CA         12.5480  -10.0575    0.8030 C.3       3 GLC5        0.0000 
     85 CA         11.9620  -11.6590    0.9410 C.3       9 GLL5        0.0000 
     86 CA         12.6050   -8.4710    0.2160 C.3       6 GLP5        0.0000 
     87 CA         10.4970  -11.4243    1.4980 C.3       3 GLC5        0.0000 
     88 CA         13.0200  -11.6290    1.8390 C.3       9 GLL5        0.0000 
     89 CA          8.9660  -10.5970    2.1180 C.3       6 GLP5        0.0000 
@<TRIPOS>BOND
@<TRIPOS>SUBSTRUCTURE
     1 ALC1        1 GROUP        1 X    ALC  0     ROOT ALC X 1
     2 SEC2       17 GROUP        1 X    SEC  0     **** SEC X 2
     3 GLC5        6 GROUP        1 X    GLC  0     **** GLC X 6
     4 ALP1        3 GROUP        1 Y    ALP  0     ROOT ALP Y 8
     5 SEP2       19 GROUP        1 Y    SEP  0     **** SEP Y 9
     6 GLP5        8 GROUP        1 Y    GLP  0     **** GLP Y 13
     7 ALL1        2 GROUP        1 Z    ALL  0     ROOT ALL Z 15
     8 SEL2       18 GROUP        1 Z    SEL  0     **** SEL Z 16
     9 GLL5        7 GROUP        1 Z    GLL  0     **** GLL Z 20
@<TRIPOS>SET

