#    Name: 3lzu_017_1_ligand
#    Modification time : Mon Mar 24 22:29:44 2014

@<TRIPOS>MOLECULE
3lzu_017_1_ligand
   75    78     1     0     0
SMALL
NO_CHARGES


@<TRIPOS>ATOM
      1 N1          8.9630  -16.2910   -7.9310 N.pl3     1 017200      0.0000 
      2 C2          8.8030  -16.0010   -6.6240 C.ar      1 017200      0.0000 
      3 C3          7.5340  -15.8130   -6.0870 C.ar      1 017200      0.0000 
      4 C4          7.3980  -15.5000   -4.7360 C.ar      1 017200      0.0000 
      5 C5          8.5400  -15.3880   -3.9490 C.ar      1 017200      0.0000 
      6 C6          9.7980  -15.5710   -4.5040 C.ar      1 017200      0.0000 
      7 C7          9.9370  -15.8820   -5.8440 C.ar      1 017200      0.0000 
      8 S8          8.4700  -15.0480   -2.3950 S.o2      1 017200      0.0000 
      9 O9          9.6710  -14.3460   -2.0590 O.2       1 017200      0.0000 
     10 O10         7.3100  -14.2510   -2.1400 O.2       1 017200      0.0000 
     11 N11         8.3160  -16.3440   -1.4310 N.pl3     1 017200      0.0000 
     12 C12         7.1740  -17.1870   -1.8270 C.3       1 017200      0.0000 
     13 C13         6.6310  -17.9590   -0.6290 C.3       1 017200      0.0000 
     14 C14         6.2750  -17.0200    0.5160 C.3       1 017200      0.0000 
     15 C15         5.4090  -18.7900   -1.0160 C.3       1 017200      0.0000 
     16 C16         9.5510  -17.1450   -1.3220 C.3       1 017200      0.0000 
     17 C17         9.9820  -17.1410    0.1440 C.3       1 017200      0.0000 
     18 O18        11.0550  -18.0650    0.3350 O.3       1 017200      0.0000 
     19 C19        10.4380  -15.7720    0.6320 C.3       1 017200      0.0000 
     20 N20        10.5840  -15.8550    2.0680 N.am      1 017200      0.0000 
     21 C21         9.7690  -15.2500    2.9200 C.2       1 017200      0.0000 
     22 O22         8.7960  -14.5570    2.6300 O.2       1 017200      0.0000 
     23 O23        10.1670  -15.5040    4.2900 O.3       1 017200      0.0000 
     24 C24         9.5010  -14.7070    5.2530 C.3       1 017200      0.0000 
     25 C25         9.1030  -15.6180    6.3950 C.3       1 017200      0.0000 
     26 O26        10.3110  -15.7140    7.1450 O.3       1 017200      0.0000 
     27 C27        11.0480  -14.4960    7.0400 C.3       1 017200      0.0000 
     28 O28        12.4220  -14.8100    6.8090 O.3       1 017200      0.0000 
     29 C29        12.7650  -14.5840    5.4510 C.3       1 017200      0.0000 
     30 C30        11.7670  -13.5410    4.9610 C.3       1 017200      0.0000 
     31 C31        10.5340  -13.7550    5.8250 C.3       1 017200      0.0000 
     32 C32        11.7870  -15.3360    0.0700 C.3       1 017200      0.0000 
     33 C33        13.2830  -14.0060    1.5940 C.ar      1 017200      0.0000 
     34 C34        13.6800  -12.8060    2.1660 C.ar      1 017200      0.0000 
     35 C35        13.0200  -11.6290    1.8390 C.ar      1 017200      0.0000 
     36 C36        11.9620  -11.6590    0.9410 C.ar      1 017200      0.0000 
     37 C37        11.5650  -12.8590    0.3660 C.ar      1 017200      0.0000 
     38 C38        12.2210  -14.0340    0.6920 C.ar      1 017200      0.0000 
     39 H           9.9062  -16.3956   -8.2462 H         1 017200      0.0000 
     40 H           8.1242  -16.3758   -8.4688 H         1 017200      0.0000 
     41 H           6.7032  -15.9038   -6.6802 H         1 017200      0.0000 
     42 H           6.4722  -15.3549   -4.3298 H         1 017200      0.0000 
     43 H          10.6380  -15.4735   -3.9087 H         1 017200      0.0000 
     44 H          10.8659  -16.0218   -6.2513 H         1 017200      0.0000 
     45 H           7.4761  -17.9065   -2.5951 H         1 017200      0.0000 
     46 H           6.3668  -16.5717   -2.2377 H         1 017200      0.0000 
     47 H           7.4048  -18.6416   -0.2795 H         1 017200      0.0000 
     48 H          10.3438  -16.7124   -1.9180 H         1 017200      0.0000 
     49 H           9.3746  -18.1675   -1.6291 H         1 017200      0.0000 
     50 H           9.1246  -17.4414    0.7486 H         1 017200      0.0000 
     51 H           9.6977  -15.0405    0.3810 H         1 017200      0.0000 
     52 H          11.3957  -16.4386    2.4054 H         1 017200      0.0000 
     53 H           8.6879  -14.1888    4.8965 H         1 017200      0.0000 
     54 H           8.7998  -16.5602    5.9910 H         1 017200      0.0000 
     55 H           8.3175  -15.1493    6.9484 H         1 017200      0.0000 
     56 H          10.9204  -13.8825    7.8917 H         1 017200      0.0000 
     57 H          12.6502  -15.4686    4.8446 H         1 017200      0.0000 
     58 H          13.7575  -14.1767    5.3393 H         1 017200      0.0000 
     59 H          11.5294  -13.7227    3.9394 H         1 017200      0.0000 
     60 H          12.1583  -12.5645    5.1238 H         1 017200      0.0000 
     61 H          10.1094  -12.8606    6.1306 H         1 017200      0.0000 
     62 H          11.7005  -15.2176   -1.0100 H         1 017200      0.0000 
     63 H          12.5260  -16.1090    0.2800 H         1 017200      0.0000 
     64 H          13.7722  -14.8792    1.8346 H         1 017200      0.0000 
     65 H          14.4637  -12.7877    2.8328 H         1 017200      0.0000 
     66 H          13.3138  -10.7392    2.2603 H         1 017200      0.0000 
     67 H          11.4685  -10.7865    0.6996 H         1 017200      0.0000 
     68 H          10.7822  -12.8732   -0.3029 H         1 017200      0.0000 
     69 H           7.0693  -16.5006    0.8310 H         1 017200      0.0000 
     70 H           5.5776  -16.3553    0.2480 H         1 017200      0.0000 
     71 H           5.9176  -17.5172    1.3066 H         1 017200      0.0000 
     72 H           5.6249  -19.4590   -1.7272 H         1 017200      0.0000 
     73 H           5.0437  -19.2986   -0.2363 H         1 017200      0.0000 
     74 H           4.6672  -18.2185   -1.3667 H         1 017200      0.0000 
     75 H          11.8491  -17.6308   -0.0903 H         1 017200      0.0000 
@<TRIPOS>BOND
     1    2    1 1    
     2   39    1 1    
     3   40    1 1    
     4    3    2 ar   
     5    7    2 ar   
     6    4    3 ar   
     7   41    3 1    
     8    5    4 ar   
     9   42    4 1    
    10    6    5 ar   
    11    8    5 1    
    12    7    6 ar   
    13   43    6 1    
    14   44    7 1    
    15    9    8 2    
    16   10    8 2    
    17   11    8 1    
    18   12   11 1    
    19   16   11 1    
    20   13   12 1    
    21   45   12 1    
    22   46   12 1    
    23   14   13 1    
    24   15   13 1    
    25   47   13 1    
    26   69   14 1    
    27   70   14 1    
    28   71   14 1    
    29   72   15 1    
    30   73   15 1    
    31   74   15 1    
    32   17   16 1    
    33   48   16 1    
    34   49   16 1    
    35   18   17 1    
    36   19   17 1    
    37   50   17 1    
    38   75   18 1    
    39   20   19 1    
    40   32   19 1    
    41   51   19 1    
    42   21   20 am   
    43   52   20 1    
    44   22   21 2    
    45   23   21 1    
    46   24   23 1    
    47   25   24 1    
    48   31   24 1    
    49   53   24 1    
    50   26   25 1    
    51   54   25 1    
    52   55   25 1    
    53   27   26 1    
    54   28   27 1    
    55   31   27 1    
    56   56   27 1    
    57   29   28 1    
    58   30   29 1    
    59   57   29 1    
    60   58   29 1    
    61   31   30 1    
    62   59   30 1    
    63   60   30 1    
    64   61   31 1    
    65   38   32 1    
    66   62   32 1    
    67   63   32 1    
    68   34   33 ar   
    69   38   33 ar   
    70   64   33 1    
    71   35   34 ar   
    72   65   34 1    
    73   36   35 ar   
    74   66   35 1    
    75   37   36 ar   
    76   67   36 1    
    77   38   37 ar   
    78   68   37 1    
@<TRIPOS>SUBSTRUCTURE
     1 017200      1 GROUP   
@<TRIPOS>SET

