#    Name: 4kiq_1RA_2_INTS_M
#    Modification time : Tue Mar 25 07:58:57 2014

@<TRIPOS>MOLECULE
4kiq_1RA_2_INTS_M
   93     0     9     0     0
SMALL
NO_CHARGES


@<TRIPOS>ATOM
      1 O           0.6540   -5.3215   47.0390 O.2       1 ALC1        0.0000 
      2 O           0.1830   -4.3430   46.1320 O.2       7 ALL1        0.0000 
      3 O           1.1250   -6.3000   47.9460 O.2       4 ALP1        0.0000 
      4 CA         -0.4585   -6.6485   45.0385 C.3       3 GLC5        0.0000 
      5 CA          0.0400   -4.8170   44.7540 C.3       9 GLL5        0.0000 
      6 CA         -0.9570   -8.4800   45.3230 C.3       6 GLP5        0.0000 
      7 CA          1.9130   -5.9460   42.2995 C.3       3 GLC5        0.0000 
      8 CA          1.2460   -5.2470   44.0320 C.3       9 GLL5        0.0000 
      9 CA          2.5800   -6.6450   40.5670 C.3       6 GLP5        0.0000 
     10 CA          2.7405   -4.1395   44.9795 C.3       3 GLC5        0.0000 
     11 CA          4.2350   -3.0320   45.9270 C.3       6 GLP5        0.0000 
     12 CA          0.2780   -7.0345   43.9475 C.3       3 GLC5        0.0000 
     13 CA         -0.6900   -8.8220   43.8630 C.3       6 GLP5        0.0000 
     14 CA          0.7165   -2.7600   42.4405 C.3       3 GLC5        0.0000 
     15 CA          0.5870   -3.9860   43.6710 C.3       9 GLL5        0.0000 
     16 CA          0.8460   -1.5340   41.2100 C.3       6 GLP5        0.0000 
     17 O          -0.8485    0.6555   50.4750 O.2       1 ALC1        0.0000 
     18 O          -1.8870   -0.5320   50.3510 O.2       7 ALL1        0.0000 
     19 O           0.1900    1.8430   50.5990 O.2       4 ALP1        0.0000 
     20 N          -3.3235   -3.2340   50.1600 N.am      2 SEC2        0.0000 
     21 N          -3.6400   -1.9220   50.7390 N.am      8 SEL2        0.0000 
     22 N          -3.0070   -4.5460   49.5810 N.am      5 SEP2        0.0000 
     23 CA         -3.7730    4.2265   51.9090 C.3       3 GLC5        0.0000 
     24 CA         -4.5270    2.7450   50.9820 C.3       9 GLL5        0.0000 
     25 CA         -3.0190    5.7080   52.8360 C.3       6 GLP5        0.0000 
     26 CA         -5.1940    1.4640   49.3770 C.3       3 GLC5        0.0000 
     27 CA         -5.8610    0.1830   47.7720 C.3       6 GLP5        0.0000 
     28 CA         -3.7295    1.4470   48.8035 C.3       3 GLC5        0.0000 
     29 CA         -3.6600    1.7030   50.7030 C.3       9 GLL5        0.0000 
     30 CA         -3.7990    1.1910   46.9040 C.3       6 GLP5        0.0000 
     31 CA         -2.4730   -0.3905   47.7340 C.3       3 GLC5        0.0000 
     32 CA         -1.1470   -1.9720   48.5640 C.3       9 GLL5        0.0000 
     33 CA         -7.3295   -1.2335   55.1225 C.3       3 GLC5        0.0000 
     34 CA         -8.2340   -2.2310   53.4480 C.3       9 GLL5        0.0000 
     35 CA         -6.4250   -0.2360   56.7970 C.3       6 GLP5        0.0000 
     36 CA         -7.3685   -5.3605   54.1235 C.3       3 GLC5        0.0000 
     37 CA         -7.3910   -3.3880   53.2040 C.3       9 GLL5        0.0000 
     38 CA         -7.3460   -7.3330   55.0430 C.3       6 GLP5        0.0000 
     39 CA         -6.7205   -4.8000   52.4190 C.3       3 GLC5        0.0000 
     40 CA         -6.0500   -6.2120   51.6340 C.3       6 GLP5        0.0000 
     41 CA         -5.5385   -3.6020   53.6645 C.3       3 GLC5        0.0000 
     42 CA         -3.6860   -3.8160   54.1250 C.3       6 GLP5        0.0000 
     43 CA          1.4875   -2.3845   46.8985 C.3       3 GLC5        0.0000 
     44 CA         -0.2440   -2.8840   48.0320 C.3       9 GLL5        0.0000 
     45 CA          3.2190   -1.8850   45.7650 C.3       6 GLP5        0.0000 
     46 CA          2.4310   -4.5270   49.6095 C.3       3 GLC5        0.0000 
     47 CA          0.8140   -3.3180   48.8250 C.3       9 GLL5        0.0000 
     48 CA          4.0480   -5.7360   50.3940 C.3       6 GLP5        0.0000 
     49 CA          2.7135   -3.2615   50.9150 C.3       3 GLC5        0.0000 
     50 CA          0.9700   -2.8350   50.1130 C.3       9 GLL5        0.0000 
     51 CA          4.4570   -3.6880   51.7170 C.3       6 GLP5        0.0000 
     52 CA         -0.6790    0.2345   52.9245 C.3       3 GLC5        0.0000 
     53 CA          0.3180   -1.3330   52.0350 C.3       9 GLL5        0.0000 
     54 CA         -1.6760    1.8020   53.8140 C.3       6 GLP5        0.0000 
     55 CA          1.1655   -0.2650   50.7005 C.3       3 GLC5        0.0000 
     56 CA          2.0130    0.8030   49.3660 C.3       6 GLP5        0.0000 
     57 N          -2.3815   -2.9360   45.1400 N.am      2 SEC2        0.0000 
     58 N          -1.2810   -2.6440   45.9180 N.am      8 SEL2        0.0000 
     59 N          -3.4820   -3.2280   44.3620 N.am      5 SEP2        0.0000 
     60 CA          0.2548   -3.0800   52.5995 C.3       3 GLC5        0.0000 
     61 CA          0.0970   -1.8930   50.6510 C.3       9 GLL5        0.0000 
     62 CA          0.3020   -4.5470   53.8560 C.3       6 GLP5        0.0000 
     63 CA          1.7920   -6.1100   45.5525 C.3       3 GLC5        0.0000 
     64 CA          2.9410   -7.1880   46.7120 C.3       6 GLP5        0.0000 
     65 CA          1.7662   -3.1433   44.9888 C.3       3 GLC5        0.0000 
     66 CA         -1.6422   -4.5393   44.2157 C.3       3 GLC5        0.0000 
     67 CA         -3.5980   -4.6770   44.2190 C.3       6 GLP5        0.0000 
     68 CA         -3.9430   -0.6173   53.2878 C.3       3 GLC5        0.0000 
     69 CA         -3.9630    0.4070   51.1160 C.3       9 GLL5        0.0000 
     70 CA         -3.3420   -1.5260   55.0920 C.3       6 GLP5        0.0000 
     71 CA         -3.1100    1.0468   52.6487 C.3       3 GLC5        0.0000 
     72 CA         -5.1250    0.1760   51.8510 C.3       9 GLL5        0.0000 
     73 CA         -2.8848    2.0130   52.3282 C.3       3 GLC5        0.0000 
     74 CA         -5.6478    3.4785   49.4753 C.3       3 GLC5        0.0000 
     75 CA         -6.1680    4.3260   47.6260 C.3       6 GLP5        0.0000 
     76 CA         -5.5717    0.4674   49.7834 C.3       3 GLC5        0.0000 
     77 CA         -6.0210    1.2120   52.1060 C.3       9 GLL5        0.0000 
     78 CA         -5.8148    3.4358   53.7112 C.3       3 GLC5        0.0000 
     79 CA         -5.7280    2.5170   51.6670 C.3       9 GLL5        0.0000 
     80 CA         -4.5810    4.1440   55.2260 C.3       6 GLP5        0.0000 
     81 CA         -8.8195    4.4485   52.0532 C.3       3 GLC5        0.0000 
     82 CA         -6.8740    3.3310   51.9830 C.3       9 GLL5        0.0000 
     83 CA        -10.3040    5.9660   51.8310 C.3       6 GLP5        0.0000 
     84 CA         -0.3808   -1.0205   46.7160 C.3       3 GLC5        0.0000 
     85 CA         -0.0660    0.3870   45.1340 C.3       6 GLP5        0.0000 
     86 CA          0.6099   -0.5125   49.3866 C.3       3 GLC5        0.0000 
     87 CA         -8.2993   -3.6532   55.2060 C.3       3 GLC5        0.0000 
     88 CA         -8.7860   -4.4970   57.0860 C.3       6 GLP5        0.0000 
     89 CA          2.5305   -3.3533   48.3860 C.3       3 GLC5        0.0000 
     90 CA          4.1690   -3.6300   47.3030 C.3       6 GLP5        0.0000 
     91 CA          1.4525   -1.1368   49.4175 C.3       3 GLC5        0.0000 
     92 CA          0.2862   -4.5905   50.1594 C.3       3 GLC5        0.0000 
     93 CA         -0.0550   -6.2130   51.0480 C.3       6 GLP5        0.0000 
@<TRIPOS>BOND
@<TRIPOS>SUBSTRUCTURE
     1 ALC1        1 GROUP        1 X    ALC  0     ROOT ALC X 1
     2 SEC2       20 GROUP        1 X    SEC  0     **** SEC X 2
     3 GLC5        4 GROUP        1 X    GLC  0     **** GLC X 6
     4 ALP1        3 GROUP        1 Y    ALP  0     ROOT ALP Y 8
     5 SEP2       22 GROUP        1 Y    SEP  0     **** SEP Y 9
     6 GLP5        6 GROUP        1 Y    GLP  0     **** GLP Y 13
     7 ALL1        2 GROUP        1 Z    ALL  0     ROOT ALL Z 15
     8 SEL2       21 GROUP        1 Z    SEL  0     **** SEL Z 16
     9 GLL5        5 GROUP        1 Z    GLL  0     **** GLL Z 20
@<TRIPOS>SET

