#    Name: 4kiq_1RA_2_ligand
#    Modification time : Tue Mar 25 07:58:57 2014

@<TRIPOS>MOLECULE
4kiq_1RA_2_ligand
   53    56     1     0     0
SMALL
NO_CHARGES


@<TRIPOS>ATOM
      1 C1          0.0970   -1.8930   50.6510 C.ar      1 1RA401      0.0000 
      2 N10         0.1830   -4.3430   46.1320 N.am      1 1RA401      0.0000 
      3 C11         0.0400   -4.8170   44.7540 C.3       1 1RA401      0.0000 
      4 C12         1.2460   -5.2470   44.0320 C.3       1 1RA401      0.0000 
      5 C13         0.5870   -3.9860   43.6710 C.3       1 1RA401      0.0000 
      6 N14        -1.8870   -0.5320   50.3510 N.am      1 1RA401      0.0000 
      7 C16        -3.1580   -0.7880   50.7170 C.2       1 1RA401      0.0000 
      8 O17        -3.6400   -1.9220   50.7390 O.2       1 1RA401      0.0000 
      9 C18        -3.9630    0.4070   51.1160 C.ar      1 1RA401      0.0000 
     10 C19        -5.1250    0.1760   51.8510 C.ar      1 1RA401      0.0000 
     11 C2         -0.9760   -1.4750   49.8500 C.ar      1 1RA401      0.0000 
     12 C20        -4.5270    2.7450   50.9820 C.ar      1 1RA401      0.0000 
     13 C21        -3.6600    1.7030   50.7030 C.ar      1 1RA401      0.0000 
     14 C22        -5.7280    2.5170   51.6670 C.ar      1 1RA401      0.0000 
     15 C23        -6.0210    1.2120   52.1060 C.ar      1 1RA401      0.0000 
     16 N24        -7.3170    1.2290   52.6510 N.am      1 1RA401      0.0000 
     17 C25        -7.7960    2.5310   52.5680 C.2       1 1RA401      0.0000 
     18 C26        -6.8740    3.3310   51.9830 C.2       1 1RA401      0.0000 
     19 C27        -8.1040    0.1410   53.1510 C.2       1 1RA401      0.0000 
     20 O28        -9.2380    0.2780   53.5340 O.2       1 1RA401      0.0000 
     21 O29        -7.4580   -1.0390   53.1080 O.3       1 1RA401      0.0000 
     22 C3         -1.1470   -1.9720   48.5640 C.ar      1 1RA401      0.0000 
     23 C30        -8.2340   -2.2310   53.4480 C.3       1 1RA401      0.0000 
     24 C31        -7.3910   -3.3880   53.2040 C.3       1 1RA401      0.0000 
     25 C4         -0.2440   -2.8840   48.0320 C.ar      1 1RA401      0.0000 
     26 C5          0.8140   -3.3180   48.8250 C.ar      1 1RA401      0.0000 
     27 C6          0.9700   -2.8350   50.1130 C.ar      1 1RA401      0.0000 
     28 C7          0.3180   -1.3330   52.0350 C.3       1 1RA401      0.0000 
     29 C8         -0.4860   -3.2740   46.6070 C.2       1 1RA401      0.0000 
     30 O9         -1.2810   -2.6440   45.9180 O.2       1 1RA401      0.0000 
     31 H           0.8408   -4.8876   46.7318 H         1 1RA401      0.0000 
     32 H          -0.7128   -5.3164   44.3804 H         1 1RA401      0.0000 
     33 H           1.0069   -5.9209   43.3952 H         1 1RA401      0.0000 
     34 H           2.0167   -5.0576   44.5677 H         1 1RA401      0.0000 
     35 H           1.0744   -3.2555   44.0523 H         1 1RA401      0.0000 
     36 H           0.0646   -4.1189   42.8798 H         1 1RA401      0.0000 
     37 H          -1.5188    0.4714   50.4419 H         1 1RA401      0.0000 
     38 H          -5.3228   -0.7709   52.2092 H         1 1RA401      0.0000 
     39 H          -4.2925    3.7067   50.6844 H         1 1RA401      0.0000 
     40 H          -2.7853    1.8819   50.1877 H         1 1RA401      0.0000 
     41 H          -8.6675    2.8062   52.8886 H         1 1RA401      0.0000 
     42 H          -6.9236    4.2534   51.7950 H         1 1RA401      0.0000 
     43 H          -1.9531   -1.6606   47.9980 H         1 1RA401      0.0000 
     44 H          -9.1329   -2.2789   52.8311 H         1 1RA401      0.0000 
     45 H          -8.5339   -2.1937   54.4966 H         1 1RA401      0.0000 
     46 H           1.4856   -4.0051   48.4472 H         1 1RA401      0.0000 
     47 H           1.7584   -3.1825   50.6965 H         1 1RA401      0.0000 
     48 H          -7.0999   -3.4406   52.2487 H         1 1RA401      0.0000 
     49 H          -6.5617   -3.3677   53.7624 H         1 1RA401      0.0000 
     50 H          -7.8646   -4.2434   53.4136 H         1 1RA401      0.0000 
     51 H           1.1248   -1.7306   52.4721 H         1 1RA401      0.0000 
     52 H           0.4524   -0.3422   52.0177 H         1 1RA401      0.0000 
     53 H          -0.4600   -1.5128   52.6370 H         1 1RA401      0.0000 
@<TRIPOS>BOND
     1   11    1 ar   
     2   27    1 ar   
     3   28    1 1    
     4    3    2 1    
     5   29    2 am   
     6   31    2 1    
     7    4    3 1    
     8    5    3 1    
     9   32    3 1    
    10    5    4 1    
    11   33    4 1    
    12   34    4 1    
    13   35    5 1    
    14   36    5 1    
    15    7    6 am   
    16   11    6 1    
    17   37    6 1    
    18    8    7 2    
    19    9    7 1    
    20   10    9 ar   
    21   13    9 ar   
    22   15   10 ar   
    23   38   10 1    
    24   22   11 ar   
    25   13   12 ar   
    26   14   12 ar   
    27   39   12 1    
    28   40   13 1    
    29   15   14 ar   
    30   18   14 1    
    31   16   15 1    
    32   17   16 1    
    33   19   16 am   
    34   18   17 2    
    35   41   17 1    
    36   42   18 1    
    37   20   19 2    
    38   21   19 1    
    39   23   21 1    
    40   25   22 ar   
    41   43   22 1    
    42   24   23 1    
    43   44   23 1    
    44   45   23 1    
    45   48   24 1    
    46   49   24 1    
    47   50   24 1    
    48   26   25 ar   
    49   29   25 1    
    50   27   26 ar   
    51   46   26 1    
    52   47   27 1    
    53   51   28 1    
    54   52   28 1    
    55   53   28 1    
    56   30   29 2    
@<TRIPOS>SUBSTRUCTURE
     1 1RA401      1 GROUP   
@<TRIPOS>SET

