#    Name: 2vo4_GTB_3_INTS_M
#    Modification time : Tue Mar 25 02:15:04 2014

@<TRIPOS>MOLECULE
2vo4_GTB_3_INTS_M
   64     0    15     0     0
SMALL
NO_CHARGES


@<TRIPOS>ATOM
      1 OD1        17.3825  -19.2660   -4.0770 O.co2     3 ASC3        0.0000 
      2 OD1        17.6740  -18.4520   -3.0560 O.co2    13 ASL3        0.0000 
      3 OD1        17.0910  -20.0800   -5.0980 O.co2     8 ASP3        0.0000 
      4 OD1        16.3295  -19.3480   -3.7565 O.co2     3 ASC3        0.0000 
      5 OD1        14.9850  -20.2440   -4.4570 O.co2     8 ASP3        0.0000 
      6 O          17.3825  -19.2660   -4.0770 O.2       1 ALC1        0.0000 
      7 O          17.6740  -18.4520   -3.0560 O.2      11 ALL1        0.0000 
      8 O          17.0910  -20.0800   -5.0980 O.2       6 ALP1        0.0000 
      9 N          17.5455  -16.4550   -6.4270 N.am      2 SEC2        0.0000 
     10 N          18.3220  -16.5470   -4.9430 N.am     12 SEL2        0.0000 
     11 N          16.7690  -16.3630   -7.9110 N.am      7 SEP2        0.0000 
     12 N          18.6750  -15.7285   -5.8800 N.am      2 SEC2        0.0000 
     13 N          19.0280  -14.9100   -6.8170 N.am      7 SEP2        0.0000 
     14 N          16.5050  -16.1490   -6.5125 N.am      2 SEC2        0.0000 
     15 N          16.2410  -15.9350   -5.1140 N.am     12 SEL2        0.0000 
     16 N          17.6345  -15.4225   -5.9655 N.am      2 SEC2        0.0000 
     17 CA         17.8470  -14.7900   -2.4315 C.3       5 GLC5        0.0000 
     18 CA         16.9070  -16.4060   -1.9810 C.3      15 GLL5        0.0000 
     19 CA         18.7870  -13.1740   -2.8820 C.3      10 GLP5        0.0000 
     20 CA         17.1790  -14.1270   -1.7670 C.3       5 GLC5        0.0000 
     21 CA         15.8200  -15.3180   -2.0060 C.3      15 GLL5        0.0000 
     22 CA         18.5380  -12.9360   -1.5280 C.3      10 GLP5        0.0000 
     23 CA         15.1835  -14.1155   -3.7180 C.3       5 GLC5        0.0000 
     24 CA         14.5470  -12.9130   -5.4300 C.3      10 GLP5        0.0000 
     25 O          13.9485  -13.8125   -1.7460 O.2       1 ALC1        0.0000 
     26 O          14.4870  -13.9730   -0.4830 O.2      11 ALL1        0.0000 
     27 O          13.4100  -13.6520   -3.0090 O.2       6 ALP1        0.0000 
     28 N          11.2910  -13.9220   -1.1015 N.am      2 SEC2        0.0000 
     29 N          11.8190  -13.7830    0.2740 N.am     12 SEL2        0.0000 
     30 N          10.7630  -14.0610   -2.4770 N.am      7 SEP2        0.0000 
     31 CA         15.6355   -9.8590   -0.6915 C.3       5 GLC5        0.0000 
     32 CA         15.6910  -11.1960    0.6230 C.3      15 GLL5        0.0000 
     33 CA         15.5800   -8.5220   -2.0060 C.3      10 GLP5        0.0000 
     34 CA         17.5265  -10.0955   -0.0120 C.3       5 GLC5        0.0000 
     35 CA         19.3620   -8.9950   -0.6470 C.3      10 GLP5        0.0000 
     36 CA         17.1145  -12.0660   -0.4525 C.3       5 GLC5        0.0000 
     37 CA         11.0035  -12.7850    2.3155 C.3       5 GLC5        0.0000 
     38 CA         11.0950  -14.8350    2.6880 C.3      15 GLL5        0.0000 
     39 CA         10.9120  -10.7350    1.9430 C.3      10 GLP5        0.0000 
     40 CA          9.1535  -14.9955    2.8450 C.3       5 GLC5        0.0000 
     41 CA          7.2120  -15.1560    3.0020 C.3      10 GLP5        0.0000 
     42 CA         11.5930  -16.1640    1.3200 C.3       5 GLC5        0.0000 
     43 CA         12.0910  -17.4930   -0.0480 C.3      10 GLP5        0.0000 
     44 NZ          8.8720  -15.9440    3.8500 N.4       4 LYC4        0.0000 
     45 NZ          9.8940  -15.3640    4.6130 N.4      14 LYL4        0.0000 
     46 NZ          7.8500  -16.5240    3.0870 N.4       9 LYP4        0.0000 
     47 N           8.8720  -15.9440    3.8500 N.am      2 SEC2        0.0000 
     48 N           9.8940  -15.3640    4.6130 N.am     12 SEL2        0.0000 
     49 N           7.8500  -16.5240    3.0870 N.am      7 SEP2        0.0000 
     50 CA         18.0240  -12.6420    0.7030 C.3       5 GLC5        0.0000 
     51 CA         16.6640  -11.7710    1.9530 C.3      15 GLL5        0.0000 
     52 CA         19.3840  -13.5130   -0.5470 C.3      10 GLP5        0.0000 
     53 CA         18.2575  -12.0220    2.9005 C.3       5 GLC5        0.0000 
     54 CA         19.8510  -12.2730    3.8480 C.3      10 GLP5        0.0000 
     55 CA         14.9653  -16.9075   -1.0423 C.3       5 GLC5        0.0000 
     56 CA         13.5670  -17.9530   -0.0910 C.3      10 GLP5        0.0000 
     57 CA         12.5023  -11.7033    1.3895 C.3       5 GLC5        0.0000 
     58 CA         14.1070  -13.4390    0.8460 C.3      15 GLL5        0.0000 
     59 CA         13.8233  -11.0140   -0.8538 C.3       5 GLC5        0.0000 
     60 CA         14.0780  -11.9040    0.8260 C.3      15 GLL5        0.0000 
     61 CA         12.7620  -10.4780   -2.4320 C.3      10 GLP5        0.0000 
     62 CA         16.6333  -10.0754    6.5125 C.3       5 GLC5        0.0000 
     63 CA         15.0550  -11.7910    5.3860 C.3      15 GLL5        0.0000 
     64 CA         17.9440   -9.8610    7.8770 C.3      10 GLP5        0.0000 
@<TRIPOS>BOND
@<TRIPOS>SUBSTRUCTURE
     1 ALC1        6 GROUP        1 X    ALC  0     ROOT ALC X 1
     2 SEC2        9 GROUP        1 X    SEC  0     **** SEC X 2
     3 ASC3        1 GROUP        1 X    ASC  0     **** ASC X 3
     4 LYC4       44 GROUP        1 X    LYC  0     **** LYC X 4
     5 GLC5       17 GROUP        1 X    GLC  0     **** GLC X 6
     6 ALP1        8 GROUP        1 Y    ALP  0     ROOT ALP Y 8
     7 SEP2       11 GROUP        1 Y    SEP  0     **** SEP Y 9
     8 ASP3        3 GROUP        1 Y    ASP  0     **** ASP Y 10
     9 LYP4       46 GROUP        1 Y    LYP  0     **** LYP Y 11
    10 GLP5       19 GROUP        1 Y    GLP  0     **** GLP Y 13
    11 ALL1        7 GROUP        1 Z    ALL  0     ROOT ALL Z 15
    12 SEL2       10 GROUP        1 Z    SEL  0     **** SEL Z 16
    13 ASL3        2 GROUP        1 Z    ASL  0     **** ASL Z 17
    14 LYL4       45 GROUP        1 Z    LYL  0     **** LYL Z 18
    15 GLL5       18 GROUP        1 Z    GLL  0     **** GLL Z 20
@<TRIPOS>SET

