#    Name: 2vo4_GTB_3_ligand
#    Modification time : Tue Mar 25 02:15:05 2014

@<TRIPOS>MOLECULE
2vo4_GTB_3_ligand
   51    51     1     0     0
SMALL
NO_CHARGES


@<TRIPOS>ATOM
      1 N1         17.6740  -18.4520   -3.0560 N.4       1 GTB1220     0.0000 
      2 CA1        16.7830  -17.2900   -3.2240 C.3       1 GTB1220     0.0000 
      3 C1         17.1520  -16.5320   -4.4970 C.2       1 GTB1220     0.0000 
      4 O11        18.3220  -16.5470   -4.9430 O.co2     1 GTB1220     0.0000 
      5 O12        16.2410  -15.9350   -5.1140 O.co2     1 GTB1220     0.0000 
      6 CB1        16.9070  -16.4060   -1.9810 C.3       1 GTB1220     0.0000 
      7 CG1        15.8200  -15.3180   -2.0060 C.3       1 GTB1220     0.0000 
      8 CD1        15.5660  -14.7790   -0.6210 C.2       1 GTB1220     0.0000 
      9 OE1        16.3170  -15.0520    0.3210 O.2       1 GTB1220     0.0000 
     10 N2         14.4870  -13.9730   -0.4830 N.am      1 GTB1220     0.0000 
     11 CA2        14.1070  -13.4390    0.8460 C.3       1 GTB1220     0.0000 
     12 C2         12.6930  -13.8770    1.1230 C.2       1 GTB1220     0.0000 
     13 O2         11.8190  -13.7830    0.2740 O.2       1 GTB1220     0.0000 
     14 CB2        14.0780  -11.9040    0.8260 C.3       1 GTB1220     0.0000 
     15 SG2        15.6910  -11.1960    0.6230 S.3       1 GTB1220     0.0000 
     16 N3         12.4210  -14.3860    2.3090 N.am      1 GTB1220     0.0000 
     17 CA3        11.0950  -14.8350    2.6880 C.3       1 GTB1220     0.0000 
     18 C3         10.9130  -14.7840    4.1680 C.2       1 GTB1220     0.0000 
     19 O31        11.7530  -14.1530    4.8600 O.co2     1 GTB1220     0.0000 
     20 O32         9.8940  -15.3640    4.6130 O.co2     1 GTB1220     0.0000 
     21 C'         16.6640  -11.7710    1.9530 C.3       1 GTB1220     0.0000 
     22 C1'        16.0800  -11.2610    3.2490 C.ar      1 GTB1220     0.0000 
     23 C2'        15.5700  -12.1930    4.1680 C.ar      1 GTB1220     0.0000 
     24 C3'        15.0550  -11.7910    5.3860 C.ar      1 GTB1220     0.0000 
     25 C4'        15.0630  -10.4140    5.6660 C.ar      1 GTB1220     0.0000 
     26 N41        14.5560   -9.9630    6.8880 N.pl3     1 GTB1220     0.0000 
     27 O41        14.2860  -10.7760    7.7770 O.2       1 GTB1220     0.0000 
     28 O42        14.4090   -8.7580    7.0630 O.2       1 GTB1220     0.0000 
     29 C5'        15.5860   -9.4770    4.7700 C.ar      1 GTB1220     0.0000 
     30 C6'        16.1100   -9.8940    3.5410 C.ar      1 GTB1220     0.0000 
     31 H          15.7609  -17.6259   -3.3013 H         1 GTB1220     0.0000 
     32 H          17.8816  -15.9343   -1.9693 H         1 GTB1220     0.0000 
     33 H          16.7822  -17.0126   -1.0928 H         1 GTB1220     0.0000 
     34 H          14.9037  -15.7489   -2.4103 H         1 GTB1220     0.0000 
     35 H          16.1474  -14.5123   -2.6635 H         1 GTB1220     0.0000 
     36 H          13.8914  -13.6969   -1.2710 H         1 GTB1220     0.0000 
     37 H          14.7418  -13.7746    1.6047 H         1 GTB1220     0.0000 
     38 H          13.7361  -11.4832    1.7527 H         1 GTB1220     0.0000 
     39 H          13.5265  -11.5101   -0.0067 H         1 GTB1220     0.0000 
     40 H          13.1600  -14.4940    3.0501 H         1 GTB1220     0.0000 
     41 H          10.9240  -15.8685    2.3437 H         1 GTB1220     0.0000 
     42 H          10.3238  -14.2064    2.2127 H         1 GTB1220     0.0000 
     43 H          17.6325  -11.3808    1.7474 H         1 GTB1220     0.0000 
     44 H          16.6199  -12.8304    1.8616 H         1 GTB1220     0.0000 
     45 H          15.5845  -13.1987    3.9189 H         1 GTB1220     0.0000 
     46 H          14.6861  -12.4503    6.0538 H         1 GTB1220     0.0000 
     47 H          15.5861   -8.4793    5.0137 H         1 GTB1220     0.0000 
     48 H          16.4970   -9.2286    2.8868 H         1 GTB1220     0.0000 
     49 H          17.4551  -18.9715   -2.2300 H         1 GTB1220     0.0000 
     50 H          17.6075  -19.0856   -3.8269 H         1 GTB1220     0.0000 
     51 H          18.6329  -18.1774   -2.9841 H         1 GTB1220     0.0000 
@<TRIPOS>BOND
     1    2    1 1    
     2   49    1 1    
     3   50    1 1    
     4   51    1 1    
     5    3    2 1    
     6    6    2 1    
     7   31    2 1    
     8    4    3 ar   
     9    5    3 ar   
    10    7    6 1    
    11   32    6 1    
    12   33    6 1    
    13    8    7 1    
    14   34    7 1    
    15   35    7 1    
    16    9    8 2    
    17   10    8 am   
    18   11   10 1    
    19   36   10 1    
    20   12   11 1    
    21   14   11 1    
    22   37   11 1    
    23   13   12 2    
    24   16   12 am   
    25   15   14 1    
    26   38   14 1    
    27   39   14 1    
    28   21   15 1    
    29   17   16 1    
    30   40   16 1    
    31   18   17 1    
    32   41   17 1    
    33   42   17 1    
    34   19   18 ar   
    35   20   18 ar   
    36   22   21 1    
    37   43   21 1    
    38   44   21 1    
    39   23   22 ar   
    40   30   22 ar   
    41   24   23 ar   
    42   45   23 1    
    43   25   24 ar   
    44   46   24 1    
    45   26   25 1    
    46   29   25 ar   
    47   27   26 2    
    48   28   26 2    
    49   30   29 ar   
    50   47   29 1    
    51   48   30 1    
@<TRIPOS>SUBSTRUCTURE
     1 GTB1220     1 GROUP   
@<TRIPOS>SET

