#    Name: 3lmg_ANP_1_INTS_M
#    Modification time : Mon Mar 24 21:50:00 2014

@<TRIPOS>MOLECULE
3lmg_ANP_1_INTS_M
   71     0    15     0     0
SMALL
NO_CHARGES


@<TRIPOS>ATOM
      1 Zn         13.9510  -28.3660   51.7500 Zn        4 ZIC7        0.0000 
      2 Zn         14.1310  -27.5140   52.3180 Zn       14 ZIL7        0.0000 
      3 Zn         13.7710  -29.2180   51.1820 Zn        9 ZIP7        0.0000 
      4 N          13.5350  -28.5185   52.9680 N.am      2 SEC2        0.0000 
      5 N          14.1310  -27.5140   52.3180 N.am     12 SEL2        0.0000 
      6 N          12.9390  -29.5230   53.6180 N.am      7 SEP2        0.0000 
      7 NZ         12.2530  -25.3395   53.8955 N.4       3 LYC4        0.0000 
      8 NZ         13.6770  -25.2380   53.3270 N.4      13 LYL4        0.0000 
      9 NZ         10.4010  -24.8340   55.5690 N.4       8 LYP4        0.0000 
     10 N          14.7305  -25.6705   54.4460 N.am      2 SEC2        0.0000 
     11 N          13.6770  -25.2380   53.3270 N.am     12 SEL2        0.0000 
     12 N          15.7840  -26.1030   55.5650 N.am      7 SEP2        0.0000 
     13 N          12.2530  -25.3395   53.8955 N.am      2 SEC2        0.0000 
     14 N          10.8290  -25.4410   54.4640 N.am      7 SEP2        0.0000 
     15 N          15.4140  -24.0930   50.8925 N.am      2 SEC2        0.0000 
     16 N          14.9620  -25.4340   51.1560 N.am     12 SEL2        0.0000 
     17 N          15.8660  -22.7520   50.6290 N.am      7 SEP2        0.0000 
     18 Zn         13.0585  -28.8205   50.7510 Zn        4 ZIC7        0.0000 
     19 Zn         12.3460  -28.4230   50.3200 Zn       14 ZIL7        0.0000 
     20 NZ         16.6715  -27.7985   48.8835 N.4       3 LYC4        0.0000 
     21 NZ         15.5990  -27.0120   47.6560 N.4      13 LYL4        0.0000 
     22 NZ         17.7440  -28.5850   50.1110 N.4       8 LYP4        0.0000 
     23 N          15.2475  -25.6205   47.5790 N.am      2 SEC2        0.0000 
     24 N          15.5990  -27.0120   47.6560 N.am     12 SEL2        0.0000 
     25 N          14.8960  -24.2290   47.5020 N.am      7 SEP2        0.0000 
     26 NZ         16.3130  -28.5690   49.8755 N.4       3 LYC4        0.0000 
     27 NZ         14.8820  -28.5530   49.6400 N.4      13 LYL4        0.0000 
     28 Zn         14.3265  -28.8855   50.4110 Zn        4 ZIC7        0.0000 
     29 Zn         14.8820  -28.5530   49.6400 Zn       14 ZIL7        0.0000 
     30 N          16.3130  -28.5690   49.8755 N.am      2 SEC2        0.0000 
     31 N          14.8820  -28.5530   49.6400 N.am     12 SEL2        0.0000 
     32 N          17.7440  -28.5850   50.1110 N.am      7 SEP2        0.0000 
     33 N          15.2335  -29.3055   50.7320 N.am      2 SEC2        0.0000 
     34 N          15.5850  -30.0580   51.8240 N.am      7 SEP2        0.0000 
     35 CA         13.8185  -26.3325   45.7080 C.3       5 GLC5        0.0000 
     36 CA         12.9680  -28.1910   46.3070 C.3      15 GLL5        0.0000 
     37 CA         14.6690  -24.4740   45.1090 C.3      10 GLP5        0.0000 
     38 CA         14.6150  -29.0840   46.1535 C.3       5 GLC5        0.0000 
     39 CA         16.2620  -29.9770   46.0000 C.3      10 GLP5        0.0000 
     40 CA         13.8740  -29.7270   45.2010 C.3       5 GLC5        0.0000 
     41 CA         11.9250  -29.2010   45.8290 C.3      15 GLL5        0.0000 
     42 CA         15.8230  -30.2530   44.5730 C.3      10 GLP5        0.0000 
     43 CA         12.0535  -32.2895   44.1120 C.3       5 GLC5        0.0000 
     44 CA         11.7380  -31.5120   46.1360 C.3      15 GLL5        0.0000 
     45 CA         12.3690  -33.0670   42.0880 C.3      10 GLP5        0.0000 
     46 CA         13.7115  -31.6275   45.2490 C.3       5 GLC5        0.0000 
     47 CA         15.6850  -31.7430   44.3620 C.3      10 GLP5        0.0000 
     48 CA         13.7695  -37.9125   45.0500 C.3       5 GLC5        0.0000 
     49 CA         13.5160  -36.1560   46.3650 C.3      15 GLL5        0.0000 
     50 CA         14.0230  -39.6690   43.7350 C.3      10 GLP5        0.0000 
     51 O          14.9635  -38.1910   46.5015 O.2       1 ALC1        0.0000 
     52 O          14.4600  -36.9670   46.8960 O.2      11 ALL1        0.0000 
     53 O          15.4670  -39.4150   46.1070 O.2       6 ALP1        0.0000 
     54 N          12.2305  -38.0705   45.1840 N.am      2 SEC2        0.0000 
     55 N          12.5780  -36.6350   45.5140 N.am     12 SEL2        0.0000 
     56 N          11.8830  -39.5060   44.8540 N.am      7 SEP2        0.0000 
     57 CA         12.0000  -34.4530   43.5325 C.3       5 GLC5        0.0000 
     58 CA         11.6310  -35.8390   44.9770 C.3      15 GLL5        0.0000 
     59 CA         13.4955  -35.3670   44.3430 C.3       5 GLC5        0.0000 
     60 CA         15.3600  -34.8950   43.7090 C.3      10 GLP5        0.0000 
     61 CA         11.1260  -37.9155   45.1895 C.3       5 GLC5        0.0000 
     62 CA         10.6210  -39.9920   45.4020 C.3      10 GLP5        0.0000 
     63 CA         12.3940  -33.4890   44.0795 C.3       5 GLC5        0.0000 
     64 CA         12.4190  -33.9110   46.0710 C.3      15 GLL5        0.0000 
     65 CA         12.4558  -27.4865   44.3330 C.3       5 GLC5        0.0000 
     66 CA         12.4650  -26.2770   42.5980 C.3      10 GLP5        0.0000 
     67 CA         14.3178  -33.0275   45.3735 C.3       5 GLC5        0.0000 
     68 CA         14.1595  -34.7839   45.0053 C.3       5 GLC5        0.0000 
     69 CA         13.4820  -34.7130   46.6990 C.3      15 GLL5        0.0000 
     70 CA         12.5390  -35.2854   48.1047 C.3       5 GLC5        0.0000 
     71 CA         12.1190  -35.8980   49.9080 C.3      10 GLP5        0.0000 
@<TRIPOS>BOND
@<TRIPOS>SUBSTRUCTURE
     1 ALC1       51 GROUP        1 X    ALC  0     ROOT ALC X 1
     2 SEC2        4 GROUP        1 X    SEC  0     **** SEC X 2
     3 LYC4        7 GROUP        1 X    LYC  0     **** LYC X 4
     4 ZIC7        1 GROUP        1 X    ZIC  0     **** ZIC X 5
     5 GLC5       35 GROUP        1 X    GLC  0     **** GLC X 6
     6 ALP1       53 GROUP        1 Y    ALP  0     ROOT ALP Y 8
     7 SEP2        6 GROUP        1 Y    SEP  0     **** SEP Y 9
     8 LYP4        9 GROUP        1 Y    LYP  0     **** LYP Y 11
     9 ZIP7        3 GROUP        1 Y    ZIP  0     **** ZIP Y 12
    10 GLP5       37 GROUP        1 Y    GLP  0     **** GLP Y 13
    11 ALL1       52 GROUP        1 Z    ALL  0     ROOT ALL Z 15
    12 SEL2        5 GROUP        1 Z    SEL  0     **** SEL Z 16
    13 LYL4        8 GROUP        1 Z    LYL  0     **** LYL Z 18
    14 ZIL7        2 GROUP        1 Z    ZIL  0     **** ZIL Z 19
    15 GLL5       36 GROUP        1 Z    GLL  0     **** GLL Z 20
@<TRIPOS>SET

