#    Name: 3lmg_ANP_1_ligand
#    Modification time : Mon Mar 24 21:50:00 2014

@<TRIPOS>MOLECULE
3lmg_ANP_1_ligand
   43    45     1     0     0
SMALL
NO_CHARGES


@<TRIPOS>ATOM
      1 PG         13.9280  -26.0390   52.0730 P.3       1 ANP301      0.0000 
      2 O1G        14.1310  -27.5140   52.3180 O.co2     1 ANP301      0.0000 
      3 O2G        13.6770  -25.2380   53.3270 O.co2     1 ANP301      0.0000 
      4 O3G        14.9620  -25.4340   51.1560 O.co2     1 ANP301      0.0000 
      5 PB         12.2000  -26.9980   49.8360 P.3       1 ANP301      0.0000 
      6 O1B        10.9160  -26.6130   49.1390 O.co2     1 ANP301      0.0000 
      7 O2B        12.3460  -28.4230   50.3200 O.co2     1 ANP301      0.0000 
      8 N3B        12.4240  -25.9270   51.1930 N.4       1 ANP301      0.0000 
      9 PA         14.5200  -27.7480   48.4150 P.3       1 ANP301      0.0000 
     10 O1A        15.5990  -27.0120   47.6560 O.co2     1 ANP301      0.0000 
     11 O2A        14.8820  -28.5530   49.6400 O.co2     1 ANP301      0.0000 
     12 O3A        13.4050  -26.6640   48.8240 O.3       1 ANP301      0.0000 
     13 O5'        13.7340  -28.7190   47.3940 O.3       1 ANP301      0.0000 
     14 C5'        12.9680  -28.1910   46.3070 C.3       1 ANP301      0.0000 
     15 C4'        11.9250  -29.2010   45.8290 C.3       1 ANP301      0.0000 
     16 O4'        12.5190  -30.4740   45.5400 O.3       1 ANP301      0.0000 
     17 C3'        10.8380  -29.4390   46.8700 C.3       1 ANP301      0.0000 
     18 O3'         9.5580  -29.3340   46.2280 O.3       1 ANP301      0.0000 
     19 C2'        11.0810  -30.8620   47.3410 C.3       1 ANP301      0.0000 
     20 O2'         9.8780  -31.5420   47.7220 O.3       1 ANP301      0.0000 
     21 C1'        11.7380  -31.5120   46.1360 C.3       1 ANP301      0.0000 
     22 N9         12.5860  -32.6660   46.5150 N.pl3     1 ANP301      0.0000 
     23 C8         13.6480  -32.6440   47.3450 C.2       1 ANP301      0.0000 
     24 N7         14.2000  -33.8780   47.4690 N.2       1 ANP301      0.0000 
     25 C5         13.4820  -34.7130   46.6990 C.ar      1 ANP301      0.0000 
     26 C6         13.5160  -36.1560   46.3650 C.ar      1 ANP301      0.0000 
     27 N6         14.4600  -36.9670   46.8960 N.pl3     1 ANP301      0.0000 
     28 N1         12.5780  -36.6350   45.5140 N.ar      1 ANP301      0.0000 
     29 C2         11.6310  -35.8390   44.9770 C.ar      1 ANP301      0.0000 
     30 N3         11.5410  -34.5210   45.2350 N.ar      1 ANP301      0.0000 
     31 C4         12.4190  -33.9110   46.0710 C.ar      1 ANP301      0.0000 
     32 H          13.6070  -27.9384   45.4466 H         1 ANP301      0.0000 
     33 H          12.4348  -27.2721   46.5963 H         1 ANP301      0.0000 
     34 H          11.4429  -28.8032   44.9388 H         1 ANP301      0.0000 
     35 H          10.9730  -28.7748   47.6644 H         1 ANP301      0.0000 
     36 H          11.8127  -30.8266   48.1258 H         1 ANP301      0.0000 
     37 H          10.9559  -31.8218   45.4639 H         1 ANP301      0.0000 
     38 H          13.9830  -31.8421   47.8030 H         1 ANP301      0.0000 
     39 H          14.4400  -37.9208   46.5961 H         1 ANP301      0.0000 
     40 H          15.0940  -36.5407   47.5412 H         1 ANP301      0.0000 
     41 H          10.9194  -36.2760   44.3160 H         1 ANP301      0.0000 
     42 H           9.0208  -30.0926   46.5966 H         1 ANP301      0.0000 
     43 H          10.0357  -31.8385   48.6639 H         1 ANP301      0.0000 
@<TRIPOS>BOND
     1    2    1 ar   
     2    3    1 ar   
     3    4    1 ar   
     4    8    1 1    
     5    6    5 ar   
     6    7    5 ar   
     7    8    5 1    
     8   12    5 1    
     9   10    9 ar   
    10   11    9 ar   
    11   12    9 1    
    12   13    9 1    
    13   14   13 1    
    14   15   14 1    
    15   32   14 1    
    16   33   14 1    
    17   16   15 1    
    18   17   15 1    
    19   34   15 1    
    20   21   16 1    
    21   18   17 1    
    22   19   17 1    
    23   35   17 1    
    24   42   18 1    
    25   20   19 1    
    26   21   19 1    
    27   36   19 1    
    28   43   20 1    
    29   22   21 1    
    30   37   21 1    
    31   23   22 1    
    32   31   22 1    
    33   24   23 2    
    34   38   23 1    
    35   25   24 1    
    36   26   25 ar   
    37   31   25 ar   
    38   27   26 1    
    39   28   26 ar   
    40   39   27 1    
    41   40   27 1    
    42   29   28 ar   
    43   30   29 ar   
    44   41   29 1    
    45   31   30 ar   
@<TRIPOS>SUBSTRUCTURE
     1 ANP301      1 GROUP   
@<TRIPOS>SET

