#    Name: 4g36_SLU_2_INTS_M
#    Modification time : Mon Mar 24 21:18:20 2014

@<TRIPOS>MOLECULE
4g36_SLU_2_INTS_M
  100     0     9     0     0
SMALL
NO_CHARGES


@<TRIPOS>ATOM
      1 N         -55.6525   31.7995  -57.8260 N.am      2 SEC2        0.0000 
      2 N         -55.5930   30.6640  -56.9650 N.am      8 SEL2        0.0000 
      3 N         -55.7120   32.9350  -58.6870 N.am      5 SEP2        0.0000 
      4 CA        -53.3310   28.2335  -55.4680 C.3       3 GLC5        0.0000 
      5 CA        -55.4490   28.6590  -55.7410 C.3       9 GLL5        0.0000 
      6 CA        -51.2130   27.8080  -55.1950 C.3       6 GLP5        0.0000 
      7 CA        -55.8960   25.9830  -57.2975 C.3       3 GLC5        0.0000 
      8 CA        -55.7200   27.3260  -55.7710 C.3       9 GLL5        0.0000 
      9 CA        -56.0720   24.6400  -58.8240 C.3       6 GLP5        0.0000 
     10 CA        -57.1325   27.5285  -53.1910 C.3       3 GLC5        0.0000 
     11 CA        -55.4560   26.8880  -54.1040 C.3       9 GLL5        0.0000 
     12 CA        -58.8090   28.1690  -52.2780 C.3       6 GLP5        0.0000 
     13 CA        -53.3345   27.3480  -54.6495 C.3       3 GLC5        0.0000 
     14 CA        -54.7095   25.3945  -53.3630 C.3       3 GLC5        0.0000 
     15 CA        -53.9630   23.9010  -52.6220 C.3       6 GLP5        0.0000 
     16 CA        -51.7910   30.4970  -52.5355 C.3       3 GLC5        0.0000 
     17 CA        -53.8570   30.3220  -51.8540 C.3       9 GLL5        0.0000 
     18 CA        -49.7250   30.6720  -53.2170 C.3       6 GLP5        0.0000 
     19 CA        -53.8115   32.3145  -50.2225 C.3       3 GLC5        0.0000 
     20 CA        -53.4070   30.7120  -48.9930 C.3       9 GLL5        0.0000 
     21 CA        -54.2160   33.9170  -51.4520 C.3       6 GLP5        0.0000 
     22 CA        -52.3230   28.9525  -49.6880 C.3       3 GLC5        0.0000 
     23 CA        -51.2390   27.1930  -50.3830 C.3       6 GLP5        0.0000 
     24 CA        -55.4240   31.1735  -47.0195 C.3       3 GLC5        0.0000 
     25 CA        -53.5950   30.1850  -47.7350 C.3       9 GLL5        0.0000 
     26 CA        -57.2530   32.1620  -46.3040 C.3       6 GLP5        0.0000 
     27 N         -58.1945   29.5085  -58.6830 N.am      2 SEC2        0.0000 
     28 N         -57.0310   29.9810  -59.6680 N.am      8 SEL2        0.0000 
     29 N         -59.3580   29.0360  -57.6980 N.am      5 SEP2        0.0000 
     30 N         -56.3715   31.4580  -59.1775 N.am      2 SEC2        0.0000 
     31 N         -55.4725   27.0470  -59.7670 N.am      2 SEC2        0.0000 
     32 N         -55.8480   28.3740  -60.7630 N.am      8 SEL2        0.0000 
     33 N         -55.0970   25.7200  -58.7710 N.am      5 SEP2        0.0000 
     34 N         -56.8175   27.2620  -60.2360 N.am      2 SEC2        0.0000 
     35 N         -57.7870   26.1500  -59.7090 N.am      5 SEP2        0.0000 
     36 N         -55.1990   31.6670  -59.3280 N.am      2 SEC2        0.0000 
     37 N         -54.6860   30.3990  -59.9690 N.am      8 SEL2        0.0000 
     38 CA        -52.2000   28.7790  -59.8275 C.3       3 GLC5        0.0000 
     39 CA        -53.3480   30.2640  -59.5610 C.3       9 GLL5        0.0000 
     40 CA        -51.0520   27.2940  -60.0940 C.3       6 GLP5        0.0000 
     41 CA        -51.1195   29.3905  -59.9045 C.3       3 GLC5        0.0000 
     42 CA        -51.1870   31.4870  -59.7150 C.3       9 GLL5        0.0000 
     43 N         -50.3515   31.8655  -61.9885 N.am      2 SEC2        0.0000 
     44 N         -50.4830   30.9940  -60.8050 N.am      8 SEL2        0.0000 
     45 N         -50.2200   32.7370  -63.1720 N.am      5 SEP2        0.0000 
     46 O         -49.3785   31.2530  -60.8280 O.2       1 ALC1        0.0000 
     47 O         -50.4830   30.9940  -60.8050 O.2       7 ALL1        0.0000 
     48 O         -48.2740   31.5120  -60.8510 O.2       4 ALP1        0.0000 
     49 N         -50.5055   33.2170  -61.8430 N.am      2 SEC2        0.0000 
     50 N         -50.7910   33.6970  -60.5140 N.am      8 SEL2        0.0000 
     51 O         -49.5575   33.6165  -61.0850 O.2       1 ALC1        0.0000 
     52 O         -50.7910   33.6970  -60.5140 O.2       7 ALL1        0.0000 
     53 O         -48.3240   33.5360  -61.6560 O.2       4 ALP1        0.0000 
     54 N         -54.4415   32.7275  -58.8805 N.am      2 SEC2        0.0000 
     55 N         -53.1710   32.5200  -59.0740 N.am      8 SEL2        0.0000 
     56 CA        -51.7220   36.3020  -56.1690 C.3       3 GLC5        0.0000 
     57 CA        -49.6250   35.7910  -55.9950 C.3       9 GLL5        0.0000 
     58 CA        -53.8190   36.8130  -56.3430 C.3       6 GLP5        0.0000 
     59 CA        -50.2285   37.4395  -55.7690 C.3       3 GLC5        0.0000 
     60 CA        -50.8320   39.0880  -55.5430 C.3       6 GLP5        0.0000 
     61 CA        -47.9895   35.6345  -56.9655 C.3       3 GLC5        0.0000 
     62 CA        -46.3540   35.4780  -57.9360 C.3       6 GLP5        0.0000 
     63 CA        -53.2725   33.6240  -55.1065 C.3       3 GLC5        0.0000 
     64 CA        -51.1520   33.6520  -55.1640 C.3       9 GLL5        0.0000 
     65 CA        -55.3930   33.5960  -55.0490 C.3       6 GLP5        0.0000 
     66 CA        -50.4385   32.1620  -54.1905 C.3       3 GLC5        0.0000 
     67 CA        -49.4140   32.8355  -54.0090 C.3       3 GLC5        0.0000 
     68 CA        -50.4020   34.4170  -54.2260 C.3       9 GLL5        0.0000 
     69 CA        -48.4260   31.2540  -53.7920 C.3       6 GLP5        0.0000 
     70 CA        -48.8040   34.4580  -53.2395 C.3       3 GLC5        0.0000 
     71 CA        -47.2060   34.4990  -52.2530 C.3       6 GLP5        0.0000 
     72 O         -50.2775   35.3600  -51.8110 O.2       1 ALC1        0.0000 
     73 O         -50.4140   34.1170  -52.8050 O.2       7 ALL1        0.0000 
     74 O         -50.1410   36.6030  -50.8170 O.2       4 ALP1        0.0000 
     75 O         -50.8480   33.0830  -52.0775 O.2       1 ALC1        0.0000 
     76 O         -51.2820   32.0490  -51.3500 O.2       4 ALP1        0.0000 
     77 N         -53.2880   33.0855  -54.4655 N.am      2 SEC2        0.0000 
     78 N         -51.9700   32.6060  -55.1060 N.am      8 SEL2        0.0000 
     79 N         -54.6060   33.5650  -53.8250 N.am      5 SEP2        0.0000 
     80 CA        -54.2428   27.3263  -57.0635 C.3       3 GLC5        0.0000 
     81 CA        -52.9010   26.6600  -58.3710 C.3       6 GLP5        0.0000 
     82 CA        -57.5995   26.2325  -54.8147 C.3       3 GLC5        0.0000 
     83 CA        -59.6110   25.3580  -54.6920 C.3       6 GLP5        0.0000 
     84 CA        -54.0415   32.0415  -51.2188 C.3       3 GLC5        0.0000 
     85 CA        -52.0070   30.6255  -50.2377 C.3       3 GLC5        0.0000 
     86 CA        -50.1470   31.0850  -49.4900 C.3       6 GLP5        0.0000 
     87 CA        -52.5530   28.6795  -50.6842 C.3       3 GLC5        0.0000 
     88 CA        -53.8770   30.0100  -50.1170 C.3       9 GLL5        0.0000 
     89 CA        -51.8240   30.7667  -48.9270 C.3       3 GLC5        0.0000 
     90 CA        -56.0231   28.1884  -47.8335 C.3       3 GLC5        0.0000 
     91 CA        -54.5540   28.7900  -50.0090 C.3       9 GLL5        0.0000 
     92 CA        -57.6030   27.6180  -47.1960 C.3       6 GLP5        0.0000 
     93 CA        -52.8411   27.9759  -49.4270 C.3       3 GLC5        0.0000 
     94 CA        -54.7230   28.2810  -48.6950 C.3       9 GLL5        0.0000 
     95 CA        -54.8358   32.0472  -59.7720 C.3       3 GLC5        0.0000 
     96 CA        -56.6720   33.1870  -59.8010 C.3       6 GLP5        0.0000 
     97 CA        -49.8584   32.0250  -58.3483 C.3       3 GLC5        0.0000 
     98 CA        -48.1790   31.3200  -57.5910 C.3       6 GLP5        0.0000 
     99 CA        -52.4657   35.3320  -56.0958 C.3       3 GLC5        0.0000 
    100 CA        -51.0730   34.0500  -56.5330 C.3       9 GLL5        0.0000 
@<TRIPOS>BOND
@<TRIPOS>SUBSTRUCTURE
     1 ALC1       46 GROUP        1 X    ALC  0     ROOT ALC X 1
     2 SEC2        1 GROUP        1 X    SEC  0     **** SEC X 2
     3 GLC5        4 GROUP        1 X    GLC  0     **** GLC X 6
     4 ALP1       48 GROUP        1 Y    ALP  0     ROOT ALP Y 8
     5 SEP2        3 GROUP        1 Y    SEP  0     **** SEP Y 9
     6 GLP5        6 GROUP        1 Y    GLP  0     **** GLP Y 13
     7 ALL1       47 GROUP        1 Z    ALL  0     ROOT ALL Z 15
     8 SEL2        2 GROUP        1 Z    SEL  0     **** SEL Z 16
     9 GLL5        5 GROUP        1 Z    GLL  0     **** GLL Z 20
@<TRIPOS>SET

