#    Name: 4g36_SLU_2_ligand
#    Modification time : Mon Mar 24 21:18:20 2014

@<TRIPOS>MOLECULE
4g36_SLU_2_ligand
   58    63     1     0     0
SMALL
NO_CHARGES


@<TRIPOS>ATOM
      1 O39       -55.5930   30.6640  -56.9650 O.2       1 SLU601      0.0000 
      2 C16       -55.5540   29.4400  -56.9970 C.2       1 SLU601      0.0000 
      3 C14       -55.4490   28.6590  -55.7410 C.2       1 SLU601      0.0000 
      4 N15       -55.1140   29.2420  -54.6290 N.2       1 SLU601      0.0000 
      5 C13       -55.7200   27.3260  -55.7710 C.2       1 SLU601      0.0000 
      6 S12       -55.4560   26.8880  -54.1040 S.3       1 SLU601      0.0000 
      7 C11       -55.0350   28.4740  -53.5520 C.2       1 SLU601      0.0000 
      8 C8        -54.7000   28.8660  -52.2720 C.2       1 SLU601      0.0000 
      9 S9        -53.8570   30.3220  -51.8540 S.3       1 SLU601      0.0000 
     10 C4        -53.8770   30.0100  -50.1170 C.ar      1 SLU601      0.0000 
     11 C5        -53.4070   30.7120  -48.9930 C.ar      1 SLU601      0.0000 
     12 C6        -53.5950   30.1850  -47.7350 C.ar      1 SLU601      0.0000 
     13 O10       -53.1210   30.8740  -46.6210 O.3       1 SLU601      0.0000 
     14 C3        -54.5540   28.7900  -50.0090 C.ar      1 SLU601      0.0000 
     15 N7        -54.9440   28.2530  -51.1380 N.2       1 SLU601      0.0000 
     16 C2        -54.7230   28.2810  -48.6950 C.ar      1 SLU601      0.0000 
     17 C1        -54.2480   28.9820  -47.5900 C.ar      1 SLU601      0.0000 
     18 N40       -55.5730   28.6360  -58.2160 N.am      1 SLU601      0.0000 
     19 S17       -55.7320   29.3460  -59.6930 S.o2      1 SLU601      0.0000 
     20 O18       -57.0310   29.9810  -59.6680 O.2       1 SLU601      0.0000 
     21 O19       -55.8480   28.3740  -60.7630 O.2       1 SLU601      0.0000 
     22 O20       -54.6860   30.3990  -59.9690 O.3       1 SLU601      0.0000 
     23 C21       -53.3480   30.2640  -59.5610 C.3       1 SLU601      0.0000 
     24 C22       -52.6510   31.5510  -59.9250 C.3       1 SLU601      0.0000 
     25 C23       -51.1870   31.4870  -59.7150 C.3       1 SLU601      0.0000 
     26 O27       -50.4830   30.9940  -60.8050 O.3       1 SLU601      0.0000 
     27 C24       -50.8580   32.8810  -59.4110 C.3       1 SLU601      0.0000 
     28 O28       -50.7910   33.6970  -60.5140 O.3       1 SLU601      0.0000 
     29 C25       -52.0530   33.2760  -58.6480 C.3       1 SLU601      0.0000 
     30 O26       -53.1710   32.5200  -59.0740 O.3       1 SLU601      0.0000 
     31 N35       -51.8590   33.1890  -57.2240 N.pl3     1 SLU601      0.0000 
     32 C32       -51.0730   34.0500  -56.5330 C.ar      1 SLU601      0.0000 
     33 N31       -50.3100   35.1070  -56.9090 N.ar      1 SLU601      0.0000 
     34 C30       -49.6250   35.7910  -55.9950 C.ar      1 SLU601      0.0000 
     35 N29       -49.6650   35.4600  -54.6930 N.ar      1 SLU601      0.0000 
     36 C33       -51.1520   33.6520  -55.1640 C.ar      1 SLU601      0.0000 
     37 C34       -50.4020   34.4170  -54.2260 C.ar      1 SLU601      0.0000 
     38 N38       -50.4140   34.1170  -52.8050 N.pl3     1 SLU601      0.0000 
     39 N37       -51.9700   32.6060  -55.1060 N.2       1 SLU601      0.0000 
     40 C36       -52.3950   32.3220  -56.3320 C.2       1 SLU601      0.0000 
     41 H         -55.9560   26.6904  -56.2924 H         1 SLU601      0.0000 
     42 H         -52.9290   31.6095  -49.1232 H         1 SLU601      0.0000 
     43 H         -55.2052   27.3798  -48.5696 H         1 SLU601      0.0000 
     44 H         -54.3925   28.5840  -46.6412 H         1 SLU601      0.0000 
     45 H         -55.4953   27.6554  -58.2379 H         1 SLU601      0.0000 
     46 H         -52.8399   29.4471  -60.0711 H         1 SLU601      0.0000 
     47 H         -53.2554   30.1205  -58.4856 H         1 SLU601      0.0000 
     48 H         -52.8670   31.7785  -60.9510 H         1 SLU601      0.0000 
     49 H         -51.0201   30.9094  -58.8038 H         1 SLU601      0.0000 
     50 H         -50.0261   32.9241  -58.7637 H         1 SLU601      0.0000 
     51 H         -52.2496   34.3536  -58.9023 H         1 SLU601      0.0000 
     52 H         -49.0345   36.6141  -56.2946 H         1 SLU601      0.0000 
     53 H         -50.9551   33.3231  -52.5274 H         1 SLU601      0.0000 
     54 H         -49.8803   34.7291  -52.2215 H         1 SLU601      0.0000 
     55 H         -53.0067   31.5949  -56.5714 H         1 SLU601      0.0000 
     56 H         -53.0330   30.1804  -45.9060 H         1 SLU601      0.0000 
     57 H         -49.5457   30.8775  -60.4764 H         1 SLU601      0.0000 
     58 H         -49.8318   33.9732  -60.5736 H         1 SLU601      0.0000 
@<TRIPOS>BOND
     1    2    1 2    
     2    3    2 1    
     3   18    2 am   
     4    4    3 1    
     5    5    3 2    
     6    7    4 2    
     7    6    5 1    
     8   41    5 1    
     9    7    6 1    
    10    8    7 1    
    11    9    8 1    
    12   15    8 2    
    13   10    9 1    
    14   11   10 ar   
    15   14   10 ar   
    16   12   11 ar   
    17   42   11 1    
    18   13   12 1    
    19   17   12 ar   
    20   56   13 1    
    21   15   14 1    
    22   16   14 ar   
    23   17   16 ar   
    24   43   16 1    
    25   44   17 1    
    26   19   18 1    
    27   45   18 1    
    28   20   19 2    
    29   21   19 2    
    30   22   19 1    
    31   23   22 1    
    32   24   23 1    
    33   46   23 1    
    34   47   23 1    
    35   25   24 1    
    36   30   24 1    
    37   48   24 1    
    38   26   25 1    
    39   27   25 1    
    40   49   25 1    
    41   57   26 1    
    42   28   27 1    
    43   29   27 1    
    44   50   27 1    
    45   58   28 1    
    46   30   29 1    
    47   31   29 1    
    48   51   29 1    
    49   32   31 1    
    50   40   31 1    
    51   33   32 ar   
    52   36   32 ar   
    53   34   33 ar   
    54   35   34 ar   
    55   52   34 1    
    56   37   35 ar   
    57   37   36 ar   
    58   39   36 1    
    59   38   37 1    
    60   53   38 1    
    61   54   38 1    
    62   40   39 2    
    63   55   40 1    
@<TRIPOS>SUBSTRUCTURE
     1 SLU601      1 GROUP   
@<TRIPOS>SET

