#    Name: 1jho_RMB_1_INTS_M
#    Modification time : Tue Mar 25 08:55:31 2014

@<TRIPOS>MOLECULE
1jho_RMB_1_INTS_M
   54     0     9     0     0
SMALL
NO_CHARGES


@<TRIPOS>ATOM
      1 N          55.7275   41.6655   15.1365 N.am      2 SEC2        0.0000 
      2 N          56.3180   41.4560   14.0080 N.am      8 SEL2        0.0000 
      3 N          55.1370   41.8750   16.2650 N.am      5 SEP2        0.0000 
      4 CA         59.3770   40.3865   12.6460 C.3       3 GLC5        0.0000 
      5 CA         57.7240   41.6690   12.2770 C.3       9 GLL5        0.0000 
      6 CA         61.0300   39.1040   13.0150 C.3       6 GLP5        0.0000 
      7 CA         57.5295   40.3055   14.6015 C.3       3 GLC5        0.0000 
      8 CA         57.4710   42.0880   13.5820 C.3       9 GLL5        0.0000 
      9 CA         57.5880   38.5230   15.6210 C.3       6 GLP5        0.0000 
     10 CA         58.7050   42.6595    9.5860 C.3       3 GLC5        0.0000 
     11 CA         58.8470   42.1550   11.5820 C.3       9 GLL5        0.0000 
     12 CA         58.5630   43.1640    7.5900 C.3       6 GLP5        0.0000 
     13 N          58.4060   36.7415    5.2855 N.am      2 SEC2        0.0000 
     14 N          59.2360   37.9900    5.4430 N.am      8 SEL2        0.0000 
     15 N          57.5760   35.4930    5.1280 N.am      5 SEP2        0.0000 
     16 N          58.2975   37.9430    4.4190 N.am      2 SEC2        0.0000 
     17 N          57.3590   37.8960    3.3950 N.am      5 SEP2        0.0000 
     18 N          58.7130   41.5260    5.2830 N.am      2 SEC2        0.0000 
     19 N          59.6590   40.5330    5.2140 N.am      8 SEL2        0.0000 
     20 N          57.7670   42.5190    5.3520 N.am      5 SEP2        0.0000 
     21 N          61.1340   38.0000    7.2885 N.am      2 SEC2        0.0000 
     22 N          60.5080   39.1920    7.1520 N.am      8 SEL2        0.0000 
     23 N          61.7600   36.8080    7.4250 N.am      5 SEP2        0.0000 
     24 N          57.9725   41.0400    6.1645 N.am      2 SEC2        0.0000 
     25 N          58.1780   39.5610    6.9770 N.am      8 SEL2        0.0000 
     26 CA         56.7505   38.1765    6.5500 C.3       3 GLC5        0.0000 
     27 CA         57.7570   38.5880    7.9460 C.3       9 GLL5        0.0000 
     28 CA         55.7440   37.7650    5.1540 C.3       6 GLP5        0.0000 
     29 CA         60.1155   38.1235    9.5595 C.3       3 GLC5        0.0000 
     30 CA         58.1760   39.0430    9.3310 C.3       9 GLL5        0.0000 
     31 CA         62.0550   37.2040    9.7880 C.3       6 GLP5        0.0000 
     32 CA         58.3695   41.1035    8.4605 C.3       3 GLC5        0.0000 
     33 CA         58.8860   36.5095   11.2260 C.3       3 GLC5        0.0000 
     34 CA         57.7290   38.1280   10.4450 C.3       9 GLL5        0.0000 
     35 CA         60.0430   34.8910   12.0070 C.3       6 GLP5        0.0000 
     36 CA         59.3795   38.6160   11.7300 C.3       3 GLC5        0.0000 
     37 N          58.7245   36.9225   12.1795 N.am      2 SEC2        0.0000 
     38 N          58.4990   38.3000   11.6400 N.am      8 SEL2        0.0000 
     39 N          58.9500   35.5450   12.7190 N.am      5 SEP2        0.0000 
     40 O          55.3215   37.0975   11.6520 O.2       1 ALC1        0.0000 
     41 O          55.8270   38.2880   11.9080 O.2       7 ALL1        0.0000 
     42 O          54.8160   35.9070   11.3960 O.2       4 ALP1        0.0000 
     43 CA         58.7895   42.0757   15.6620 C.3       3 GLC5        0.0000 
     44 CA         59.6950   41.6010   17.4240 C.3       6 GLP5        0.0000 
     45 CA         55.9896   43.2139   13.4444 C.3       3 GLC5        0.0000 
     46 CA         58.2970   43.0130   14.2180 C.3       9 GLL5        0.0000 
     47 CA         54.0320   43.9820   13.3150 C.3       6 GLP5        0.0000 
     48 CA         59.7790   42.8030   15.6552 C.3       3 GLC5        0.0000 
     49 CA         59.4060   43.5010   13.5400 C.3       9 GLL5        0.0000 
     50 CA         60.6345   41.1800   11.7585 C.3       3 GLC5        0.0000 
     51 CA         59.6770   43.0750   12.2120 C.3       9 GLL5        0.0000 
     52 CA         62.0070   39.7450   11.6200 C.3       6 GLP5        0.0000 
     53 CA         61.4189   42.9188   14.1992 C.3       3 GLC5        0.0000 
     54 CA         62.9070   41.9390   14.8440 C.3       6 GLP5        0.0000 
@<TRIPOS>BOND
@<TRIPOS>SUBSTRUCTURE
     1 ALC1       40 GROUP        1 X    ALC  0     ROOT ALC X 1
     2 SEC2        1 GROUP        1 X    SEC  0     **** SEC X 2
     3 GLC5        4 GROUP        1 X    GLC  0     **** GLC X 6
     4 ALP1       42 GROUP        1 Y    ALP  0     ROOT ALP Y 8
     5 SEP2        3 GROUP        1 Y    SEP  0     **** SEP Y 9
     6 GLP5        6 GROUP        1 Y    GLP  0     **** GLP Y 13
     7 ALL1       41 GROUP        1 Z    ALL  0     ROOT ALL Z 15
     8 SEL2        2 GROUP        1 Z    SEL  0     **** SEL Z 16
     9 GLL5        5 GROUP        1 Z    GLL  0     **** GLL Z 20
@<TRIPOS>SET

