#    Name: 1jho_RMB_1_ligand
#    Modification time : Tue Mar 25 08:55:31 2014

@<TRIPOS>MOLECULE
1jho_RMB_1_ligand
   38    40     1     0     0
SMALL
NO_CHARGES


@<TRIPOS>ATOM
      1 N3         56.3180   41.4560   14.0080 N.2       1 RMB990      0.0000 
      2 N1         56.6840   40.8130   11.8660 N.pl3     1 RMB990      0.0000 
      3 C2         55.9090   40.7110   12.9750 C.2       1 RMB990      0.0000 
      4 C7A        57.7240   41.6690   12.2770 C.ar      1 RMB990      0.0000 
      5 C3A        57.4710   42.0880   13.5820 C.ar      1 RMB990      0.0000 
      6 C4         58.2970   43.0130   14.2180 C.ar      1 RMB990      0.0000 
      7 C5         59.4060   43.5010   13.5400 C.ar      1 RMB990      0.0000 
      8 C6         59.6770   43.0750   12.2120 C.ar      1 RMB990      0.0000 
      9 C7         58.8470   42.1550   11.5820 C.ar      1 RMB990      0.0000 
     10 C8         60.3200   44.5090   14.2330 C.3       1 RMB990      0.0000 
     11 P          59.4910   39.3200    6.0740 P.3       1 RMB990      0.0000 
     12 O1P        59.2360   37.9900    5.4430 O.co2     1 RMB990      0.0000 
     13 O2P        59.6590   40.5330    5.2140 O.co2     1 RMB990      0.0000 
     14 O3P        60.5080   39.1920    7.1520 O.co2     1 RMB990      0.0000 
     15 O5'        58.1780   39.5610    6.9770 O.3       1 RMB990      0.0000 
     16 C5'        57.7570   38.5880    7.9460 C.3       1 RMB990      0.0000 
     17 C4'        58.1760   39.0430    9.3310 C.3       1 RMB990      0.0000 
     18 O4'        57.5840   40.3430    9.6560 O.3       1 RMB990      0.0000 
     19 C3'        57.7290   38.1280   10.4450 C.3       1 RMB990      0.0000 
     20 O3'        58.4990   38.3000   11.6400 O.3       1 RMB990      0.0000 
     21 C2'        56.3000   38.6750   10.6020 C.3       1 RMB990      0.0000 
     22 O2'        55.8270   38.2880   11.9080 O.3       1 RMB990      0.0000 
     23 C1'        56.4820   40.1870   10.5320 C.3       1 RMB990      0.0000 
     24 H          55.0952   40.1206   13.0079 H         1 RMB990      0.0000 
     25 H          58.0880   43.3252   15.1670 H         1 RMB990      0.0000 
     26 H          60.4964   43.4579   11.7248 H         1 RMB990      0.0000 
     27 H          59.0409   41.8342   10.6367 H         1 RMB990      0.0000 
     28 H          58.2115   37.6106    7.7553 H         1 RMB990      0.0000 
     29 H          56.6695   38.4634    7.9417 H         1 RMB990      0.0000 
     30 H          59.2537   39.1307    9.3760 H         1 RMB990      0.0000 
     31 H          57.6607   37.1546   10.0777 H         1 RMB990      0.0000 
     32 H          55.7187   38.3432    9.8156 H         1 RMB990      0.0000 
     33 H          55.5804   40.5827   10.0636 H         1 RMB990      0.0000 
     34 H          60.7191   44.1344   15.0699 H         1 RMB990      0.0000 
     35 H          61.0796   44.7871   13.6450 H         1 RMB990      0.0000 
     36 H          59.8282   45.3410   14.4897 H         1 RMB990      0.0000 
     37 H          57.8273   38.4949   12.3548 H         1 RMB990      0.0000 
     38 H          55.4010   37.3932   11.7742 H         1 RMB990      0.0000 
@<TRIPOS>BOND
     1    3    1 2    
     2    5    1 1    
     3    3    2 1    
     4    4    2 1    
     5   23    2 1    
     6   24    3 1    
     7    5    4 ar   
     8    9    4 ar   
     9    6    5 ar   
    10    7    6 ar   
    11   25    6 1    
    12    8    7 ar   
    13   10    7 1    
    14    9    8 ar   
    15   26    8 1    
    16   27    9 1    
    17   34   10 1    
    18   35   10 1    
    19   36   10 1    
    20   12   11 ar   
    21   13   11 ar   
    22   14   11 ar   
    23   15   11 1    
    24   16   15 1    
    25   17   16 1    
    26   28   16 1    
    27   29   16 1    
    28   18   17 1    
    29   19   17 1    
    30   30   17 1    
    31   23   18 1    
    32   20   19 1    
    33   21   19 1    
    34   31   19 1    
    35   37   20 1    
    36   22   21 1    
    37   23   21 1    
    38   32   21 1    
    39   38   22 1    
    40   33   23 1    
@<TRIPOS>SUBSTRUCTURE
     1 RMB990      1 GROUP   
@<TRIPOS>SET

