#    Name: 3nug_NAD_3_INTS_M
#    Modification time : Tue Mar 25 02:38:24 2014

@<TRIPOS>MOLECULE
3nug_NAD_3_INTS_M
  107     0     9     0     0
SMALL
NO_CHARGES


@<TRIPOS>ATOM
      1 N          25.4145   11.7480   49.9510 N.am      2 SEC2        0.0000 
      2 N          24.8150   11.1960   48.7010 N.am      8 SEL2        0.0000 
      3 N          26.0140   12.3000   51.2010 N.am      5 SEP2        0.0000 
      4 N          24.6090   12.6460   48.6640 N.am      2 SEC2        0.0000 
      5 N          24.4030   14.0960   48.6270 N.am      5 SEP2        0.0000 
      6 CA         27.2060    5.4240   50.4140 C.3       3 GLC5        0.0000 
      7 CA         27.5550    7.3550   49.9520 C.3       9 GLL5        0.0000 
      8 CA         26.8570    3.4930   50.8760 C.3       6 GLP5        0.0000 
      9 CA         26.4990    9.3100   51.6345 C.3       3 GLC5        0.0000 
     10 CA         28.1450    8.2130   51.0770 C.3       9 GLL5        0.0000 
     11 CA         24.8530   10.4070   52.1920 C.3       6 GLP5        0.0000 
     12 O          28.4155    6.9130   53.2385 O.2       1 ALC1        0.0000 
     13 O          27.4920    7.9390   52.2980 O.2       7 ALL1        0.0000 
     14 O          29.3390    5.8870   54.1790 O.2       4 ALP1        0.0000 
     15 O          27.4500    6.6630   52.7695 O.2       1 ALC1        0.0000 
     16 O          27.4080    5.3870   53.2410 O.2       4 ALP1        0.0000 
     17 O          29.7340    6.8370   53.3165 O.2       1 ALC1        0.0000 
     18 O          30.1290    7.7870   52.4540 O.2       7 ALL1        0.0000 
     19 CA         28.1845    4.9345   50.7275 C.3       3 GLC5        0.0000 
     20 CA         29.5120    6.3760   50.5790 C.3       9 GLL5        0.0000 
     21 CA         33.4135    3.9705   51.8565 C.3       3 GLC5        0.0000 
     22 CA         33.3240    3.4150   49.9530 C.3       9 GLL5        0.0000 
     23 CA         33.5030    4.5260   53.7600 C.3       6 GLP5        0.0000 
     24 CA         34.1720    1.9355   51.3330 C.3       3 GLC5        0.0000 
     25 CA         35.0200    0.4560   52.7130 C.3       6 GLP5        0.0000 
     26 CA         33.1380    1.8070   48.8865 C.3       3 GLC5        0.0000 
     27 CA         32.9520    0.1990   47.8200 C.3       6 GLP5        0.0000 
     28 O          35.6025    2.4395   50.1130 O.2       1 ALC1        0.0000 
     29 O          34.6090    3.4120   49.5850 O.2       7 ALL1        0.0000 
     30 O          36.5960    1.4670   50.6410 O.2       4 ALP1        0.0000 
     31 N          33.4655    1.0025   50.6440 N.am      2 SEC2        0.0000 
     32 N          32.8090    2.3620   50.6840 N.am      8 SEL2        0.0000 
     33 N          34.1220   -0.3570   50.6040 N.am      5 SEP2        0.0000 
     34 CA         30.2765    2.6395   52.9800 C.3       3 GLC5        0.0000 
     35 CA         31.5660    2.4590   51.2700 C.3       9 GLL5        0.0000 
     36 CA         28.9870    2.8200   54.6900 C.3       6 GLP5        0.0000 
     37 CA         32.5345    3.4925   52.5150 C.3       3 GLC5        0.0000 
     38 CA         33.2930    1.4575   51.9915 C.3       3 GLC5        0.0000 
     39 CA         31.4960    0.7375   50.3660 C.3       3 GLC5        0.0000 
     40 CA         31.4260   -0.9840   49.4620 C.3       6 GLP5        0.0000 
     41 CA         30.4245    2.3630   49.7430 C.3       3 GLC5        0.0000 
     42 CA         29.2830    2.2670   48.2160 C.3       6 GLP5        0.0000 
     43 N          31.0270    3.6715   52.7945 N.am      2 SEC2        0.0000 
     44 N          30.8180    3.6200   51.1350 N.am      8 SEL2        0.0000 
     45 N          31.2360    3.7230   54.4540 N.am      5 SEP2        0.0000 
     46 N          23.1425   11.7250   45.6225 N.am      2 SEC2        0.0000 
     47 N          23.8820   10.7220   45.2620 N.am      8 SEL2        0.0000 
     48 N          22.4030   12.7280   45.9830 N.am      5 SEP2        0.0000 
     49 N          21.8890    8.6500   47.6090 N.am      2 SEC2        0.0000 
     50 N          23.1820    9.0660   47.0620 N.am      8 SEL2        0.0000 
     51 N          20.5960    8.2340   48.1560 N.am      5 SEP2        0.0000 
     52 CA         22.3200    6.9335   45.7670 C.3       3 GLC5        0.0000 
     53 CA         24.3210    6.9500   45.4350 C.3       9 GLL5        0.0000 
     54 CA         20.3190    6.9170   46.0990 C.3       6 GLP5        0.0000 
     55 CA         22.5740    7.0995   44.0375 C.3       3 GLC5        0.0000 
     56 CA         24.5280    6.0590   44.2080 C.3       9 GLL5        0.0000 
     57 CA         20.6200    8.1400   43.8670 C.3       6 GLP5        0.0000 
     58 CA         23.5115    4.8555   42.9335 C.3       3 GLC5        0.0000 
     59 CA         22.4950    3.6520   41.6590 C.3       6 GLP5        0.0000 
     60 N          26.8570    4.4660   41.8535 N.am      2 SEC2        0.0000 
     61 N          26.2500    4.8050   43.0920 N.am      8 SEL2        0.0000 
     62 N          27.4640    4.1270   40.6150 N.am      5 SEP2        0.0000 
     63 O          26.2590    4.2295   44.3315 O.2       1 ALC1        0.0000 
     64 O          26.2500    4.8050   43.0920 O.2       7 ALL1        0.0000 
     65 O          26.2680    3.6540   45.5710 O.2       4 ALP1        0.0000 
     66 CA         26.9465    7.7975   40.6990 C.3       3 GLC5        0.0000 
     67 CA         25.8600    7.0570   42.5160 C.3       9 GLL5        0.0000 
     68 CA         28.0330    8.5380   38.8820 C.3       6 GLP5        0.0000 
     69 CA         26.8730    5.9835   40.9610 C.3       3 GLC5        0.0000 
     70 CA         27.8860    4.9100   39.4060 C.3       6 GLP5        0.0000 
     71 N          26.8015    7.5415   40.4640 N.am      2 SEC2        0.0000 
     72 N          26.8260    6.7770   41.5350 N.am      8 SEL2        0.0000 
     73 N          26.7770    8.3060   39.3930 N.am      5 SEP2        0.0000 
     74 N          27.1450    5.4520   41.0750 N.am      2 SEC2        0.0000 
     75 CA         22.5420    7.4400   42.9395 C.3       3 GLC5        0.0000 
     76 CA         24.4640    6.7400   42.0120 C.3       9 GLL5        0.0000 
     77 CA         23.4795    5.1960   41.8355 C.3       3 GLC5        0.0000 
     78 N          20.8125   12.6995   40.7060 N.am      2 SEC2        0.0000 
     79 N          22.1680   12.3330   40.7200 N.am      8 SEL2        0.0000 
     80 N          19.4570   13.0660   40.6920 N.am      5 SEP2        0.0000 
     81 O          21.3495   12.7450   43.0725 O.2       1 ALC1        0.0000 
     82 O          22.4590   11.4680   42.9440 O.2       7 ALL1        0.0000 
     83 O          20.2400   14.0220   43.2010 O.2       4 ALP1        0.0000 
     84 CA         23.0485    5.6230   40.7810 C.3       3 GLC5        0.0000 
     85 CA         23.6020    7.5940   39.9030 C.3       9 GLL5        0.0000 
     86 CA         21.8880    6.6845   39.8930 C.3       3 GLC5        0.0000 
     87 CA         20.1740    5.7750   39.8830 C.3       6 GLP5        0.0000 
     88 CA         32.5022    5.2763   51.7528 C.3       3 GLC5        0.0000 
     89 CA         31.3190    4.6520   50.4150 C.3       9 GLL5        0.0000 
     90 CA         33.0610    5.9420   53.3900 C.3       6 GLP5        0.0000 
     91 CA         30.6133    3.4388   49.1658 C.3       3 GLC5        0.0000 
     92 CA         33.4820    3.8825   47.8128 C.3       3 GLC5        0.0000 
     93 CA         32.5680    4.5690   49.8160 C.3       9 GLL5        0.0000 
     94 CA         34.0180    3.7730   45.7410 C.3       6 GLP5        0.0000 
     95 CA         27.6898    5.9020   43.3150 C.3       3 GLC5        0.0000 
     96 CA         25.9470    6.0730   43.6540 C.3       9 GLL5        0.0000 
     97 CA         29.4760    5.2390   43.5450 C.3       6 GLP5        0.0000 
     98 CA         26.8773    8.3260   43.1190 C.3       3 GLC5        0.0000 
     99 CA         27.8510   10.0870   43.1530 C.3       6 GLP5        0.0000 
    100 CA         21.9623    8.8347   42.6405 C.3       3 GLC5        0.0000 
    101 CA         23.5860    9.0280   41.8070 C.3       9 GLL5        0.0000 
    102 CA         21.2792    8.1485   39.4073 C.3       3 GLC5        0.0000 
    103 CA         22.7560    9.8080   39.6780 C.3       9 GLL5        0.0000 
    104 CA         19.6600    7.1030   39.4240 C.3       6 GLP5        0.0000 
    105 CA         24.2508    7.4980   38.0225 C.3       3 GLC5        0.0000 
    106 CA         23.0410    8.5800   39.1030 C.3       9 GLL5        0.0000 
    107 CA         25.1800    6.9090   36.5420 C.3       6 GLP5        0.0000 
@<TRIPOS>BOND
@<TRIPOS>SUBSTRUCTURE
     1 ALC1       12 GROUP        1 X    ALC  0     ROOT ALC X 1
     2 SEC2        1 GROUP        1 X    SEC  0     **** SEC X 2
     3 GLC5        6 GROUP        1 X    GLC  0     **** GLC X 6
     4 ALP1       14 GROUP        1 Y    ALP  0     ROOT ALP Y 8
     5 SEP2        3 GROUP        1 Y    SEP  0     **** SEP Y 9
     6 GLP5        8 GROUP        1 Y    GLP  0     **** GLP Y 13
     7 ALL1       13 GROUP        1 Z    ALL  0     ROOT ALL Z 15
     8 SEL2        2 GROUP        1 Z    SEL  0     **** SEL Z 16
     9 GLL5        7 GROUP        1 Z    GLL  0     **** GLL Z 20
@<TRIPOS>SET

