#    Name: 3nug_NAD_3_ligand
#    Modification time : Tue Mar 25 02:38:24 2014

@<TRIPOS>MOLECULE
3nug_NAD_3_ligand
   70    74     1     0     0
SMALL
NO_CHARGES


@<TRIPOS>ATOM
      1 PA         25.9570   10.4010   48.1780 P.3       1 NAD251      0.0000 
      2 O1A        27.2460   11.1350   48.0620 O.co2     1 NAD251      0.0000 
      3 O2A        24.8150   11.1960   48.7010 O.co2     1 NAD251      0.0000 
      4 O5B        26.1910    9.1120   49.1020 O.3       1 NAD251      0.0000 
      5 C5B        27.2070    8.2060   48.7460 C.3       1 NAD251      0.0000 
      6 C4B        27.5550    7.3550   49.9520 C.3       1 NAD251      0.0000 
      7 O4B        28.5490    6.4270   49.5550 O.3       1 NAD251      0.0000 
      8 C3B        28.1450    8.2130   51.0770 C.3       1 NAD251      0.0000 
      9 O3B        27.4920    7.9390   52.2980 O.3       1 NAD251      0.0000 
     10 C2B        29.6000    7.7850   51.1400 C.3       1 NAD251      0.0000 
     11 O2B        30.1290    7.7870   52.4540 O.3       1 NAD251      0.0000 
     12 C1B        29.5120    6.3760   50.5790 C.3       1 NAD251      0.0000 
     13 N9A        30.8160    5.8900   50.1140 N.pl3     1 NAD251      0.0000 
     14 C8A        31.7330    6.5580   49.3490 C.2       1 NAD251      0.0000 
     15 N7A        32.7990    5.7420   49.1730 N.2       1 NAD251      0.0000 
     16 C5A        32.5680    4.5690   49.8160 C.ar      1 NAD251      0.0000 
     17 C6A        33.3240    3.4150   49.9530 C.ar      1 NAD251      0.0000 
     18 N6A        34.6090    3.4120   49.5850 N.pl3     1 NAD251      0.0000 
     19 N1A        32.8090    2.3620   50.6840 N.ar      1 NAD251      0.0000 
     20 C2A        31.5660    2.4590   51.2700 C.ar      1 NAD251      0.0000 
     21 N3A        30.8180    3.6200   51.1350 N.ar      1 NAD251      0.0000 
     22 C4A        31.3190    4.6520   50.4150 C.ar      1 NAD251      0.0000 
     23 O3         25.6520    9.7500   46.7370 O.3       1 NAD251      0.0000 
     24 PN         24.1900    9.5220   46.0770 P.3       1 NAD251      0.0000 
     25 O1N        23.8820   10.7220   45.2620 O.co2     1 NAD251      0.0000 
     26 O2N        23.1820    9.0660   47.0620 O.co2     1 NAD251      0.0000 
     27 O5D        24.5100    8.3020   45.0580 O.3       1 NAD251      0.0000 
     28 C5D        24.3210    6.9500   45.4350 C.3       1 NAD251      0.0000 
     29 C4D        24.5280    6.0590   44.2080 C.3       1 NAD251      0.0000 
     30 O4D        23.6920    6.5360   43.1710 O.3       1 NAD251      0.0000 
     31 C3D        25.9470    6.0730   43.6540 C.3       1 NAD251      0.0000 
     32 O3D        26.2500    4.8050   43.0920 O.3       1 NAD251      0.0000 
     33 C2D        25.8600    7.0570   42.5160 C.3       1 NAD251      0.0000 
     34 O2D        26.8260    6.7770   41.5350 O.3       1 NAD251      0.0000 
     35 C1D        24.4640    6.7400   42.0120 C.3       1 NAD251      0.0000 
     36 N1N        23.8760    7.8300   41.2210 N.pl3     1 NAD251      0.0000 
     37 C2N        23.5860    9.0280   41.8070 C.ar      1 NAD251      0.0000 
     38 C3N        23.0230   10.0310   41.0210 C.ar      1 NAD251      0.0000 
     39 C7N        22.5370   11.3120   41.6160 C.2       1 NAD251      0.0000 
     40 O7N        22.1680   12.3330   40.7200 O.2       1 NAD251      0.0000 
     41 N7N        22.4590   11.4680   42.9440 N.am      1 NAD251      0.0000 
     42 C4N        22.7560    9.8080   39.6780 C.ar      1 NAD251      0.0000 
     43 C5N        23.0410    8.5800   39.1030 C.ar      1 NAD251      0.0000 
     44 C6N        23.6020    7.5940   39.9030 C.ar      1 NAD251      0.0000 
     45 H          28.1222    8.7164   48.4213 H         1 NAD251      0.0000 
     46 H          26.8963    7.5313   47.9388 H         1 NAD251      0.0000 
     47 H          26.6799    6.8706   50.3099 H         1 NAD251      0.0000 
     48 H          28.1016    9.2256   50.7771 H         1 NAD251      0.0000 
     49 H          30.1461    8.3735   50.4417 H         1 NAD251      0.0000 
     50 H          29.1535    5.7416   51.3979 H         1 NAD251      0.0000 
     51 H          31.6310    7.4450   49.0035 H         1 NAD251      0.0000 
     52 H          35.1011    2.5508   49.7121 H         1 NAD251      0.0000 
     53 H          34.9629    4.2712   49.2156 H         1 NAD251      0.0000 
     54 H          31.1854    1.6671   51.8128 H         1 NAD251      0.0000 
     55 H          23.3112    6.7634   45.8123 H         1 NAD251      0.0000 
     56 H          25.0352    6.6304   46.1997 H         1 NAD251      0.0000 
     57 H          24.2679    5.0458   44.4642 H         1 NAD251      0.0000 
     58 H          26.6067    6.4100   44.3677 H         1 NAD251      0.0000 
     59 H          25.8638    8.0254   42.9031 H         1 NAD251      0.0000 
     60 H          24.5181    5.8358   41.4312 H         1 NAD251      0.0000 
     61 H          23.7722    9.1981   42.7965 H         1 NAD251      0.0000 
     62 H          22.1189   12.3523   43.2639 H         1 NAD251      0.0000 
     63 H          22.7478   10.6862   43.4966 H         1 NAD251      0.0000 
     64 H          22.3433   10.5605   39.1054 H         1 NAD251      0.0000 
     65 H          22.8447    8.4044   38.1203 H         1 NAD251      0.0000 
     66 H          23.8132    6.6663   39.4849 H         1 NAD251      0.0000 
     67 H          27.6254    6.9594   52.4486 H         1 NAD251      0.0000 
     68 H          29.7322    6.9814   52.8939 H         1 NAD251      0.0000 
     69 H          25.8678    4.1397   43.7334 H         1 NAD251      0.0000 
     70 H          27.6250    7.3184   41.7968 H         1 NAD251      0.0000 
@<TRIPOS>BOND
     1    2    1 ar   
     2    3    1 ar   
     3    4    1 1    
     4   23    1 1    
     5    5    4 1    
     6    6    5 1    
     7   45    5 1    
     8   46    5 1    
     9    7    6 1    
    10    8    6 1    
    11   47    6 1    
    12   12    7 1    
    13    9    8 1    
    14   10    8 1    
    15   48    8 1    
    16   67    9 1    
    17   11   10 1    
    18   12   10 1    
    19   49   10 1    
    20   68   11 1    
    21   13   12 1    
    22   50   12 1    
    23   14   13 1    
    24   22   13 1    
    25   15   14 2    
    26   51   14 1    
    27   16   15 1    
    28   17   16 ar   
    29   22   16 ar   
    30   18   17 1    
    31   19   17 ar   
    32   52   18 1    
    33   53   18 1    
    34   20   19 ar   
    35   21   20 ar   
    36   54   20 1    
    37   22   21 ar   
    38   24   23 1    
    39   25   24 ar   
    40   26   24 ar   
    41   27   24 1    
    42   28   27 1    
    43   29   28 1    
    44   55   28 1    
    45   56   28 1    
    46   30   29 1    
    47   31   29 1    
    48   57   29 1    
    49   35   30 1    
    50   32   31 1    
    51   33   31 1    
    52   58   31 1    
    53   69   32 1    
    54   34   33 1    
    55   35   33 1    
    56   59   33 1    
    57   70   34 1    
    58   36   35 1    
    59   60   35 1    
    60   37   36 ar   
    61   44   36 ar   
    62   38   37 ar   
    63   61   37 1    
    64   39   38 1    
    65   42   38 ar   
    66   40   39 2    
    67   41   39 am   
    68   62   41 1    
    69   63   41 1    
    70   43   42 ar   
    71   64   42 1    
    72   44   43 ar   
    73   65   43 1    
    74   66   44 1    
@<TRIPOS>SUBSTRUCTURE
     1 NAD251      1 GROUP   
@<TRIPOS>SET

