#    Name: 1V45_1_CAVITY_N1_6.mol2
#    Modification time : Mon Mar 10 12:21:02 2014

@<TRIPOS>MOLECULE
1V45_1_CAVITY_N1_6.mol2
   83     0     6     0     0
SMALL
NO_CHARGES


@<TRIPOS>ATOM
      1 N          55.4959  133.9653   61.6178 N.2       2 ALA2        0.0000 
      2 NZ         54.2716  134.5808   62.2278 N.2       3 LYS4        0.0000 
      3 NZ         53.0472  135.1963   62.8377 N.2       3 LYS4        0.0000 
      4 CA         54.7747  133.8267   60.3099 C.3       5 GLY6        0.0000 
      5 CA         53.5503  134.4422   60.9198 C.3       5 GLY6        0.0000 
      6 CA         55.7368  132.7430   63.3347 C.3       5 GLY6        0.0000 
      7 N          56.2400  131.9889   61.4168 N.2       2 ALA2        0.0000 
      8 N          55.0156  132.6044   62.0268 N.2       2 ALA2        0.0000 
      9 DU         53.7912  133.2199   62.6368 H         6 CUB7        0.0000 
     10 N          55.5188  131.8504   60.1089 N.2       2 ALA2        0.0000 
     11 CA         54.2944  132.4659   60.7189 C.3       5 GLY6        0.0000 
     12 CA         53.0700  133.0813   61.3289 C.3       5 GLY6        0.0000 
     13 CZ         53.5732  132.3273   59.4110 C.ar      4 PHE5        0.0000 
     14 CZ         52.1307  132.0502   56.7952 C.ar      4 PHE5        0.0000 
     15 CA         50.9063  132.6657   57.4051 C.3       5 GLY6        0.0000 
     16 CZ         52.6339  131.2962   54.8773 C.ar      4 PHE5        0.0000 
     17 CZ         51.4095  131.9117   55.4873 C.ar      4 PHE5        0.0000 
     18 CA         50.1851  132.5271   56.0972 C.3       5 GLY6        0.0000 
     19 N          48.9607  133.1426   56.7072 N.2       2 ALA2        0.0000 
     20 OG         49.4639  132.3886   54.7893 O.2       1 SER1        0.0000 
     21 N          48.2395  133.0041   55.3993 N.2       2 ALA2        0.0000 
     22 CZ         54.0321  131.9976   64.3537 C.ar      4 PHE5        0.0000 
     23 CZ         54.5353  131.2435   62.4358 C.ar      4 PHE5        0.0000 
     24 OG         53.3109  131.8590   63.0458 O.2       1 SER1        0.0000 
     25 CA         55.0385  130.4895   60.5180 C.3       5 GLY6        0.0000 
     26 OG         53.8141  131.1050   61.1279 O.2       1 SER1        0.0000 
     27 O          52.5897  131.7205   61.7379 O.2       2 ALA2        0.0000 
     28 CA         54.3172  130.3510   59.2101 C.3       5 GLY6        0.0000 
     29 O          53.0928  130.9664   59.8200 O.2       2 ALA2        0.0000 
     30 CZ         54.8204  129.5969   57.2922 C.ar      4 PHE5        0.0000 
     31 CZ         53.5960  130.2124   57.9021 C.ar      4 PHE5        0.0000 
     32 O          52.3716  130.8279   58.5121 O.2       2 ALA2        0.0000 
     33 CZ         54.0992  129.4584   55.9843 C.ar      4 PHE5        0.0000 
     34 CZ         52.8748  130.0739   56.5942 C.ar      4 PHE5        0.0000 
     35 CZ         51.6504  130.6893   57.2042 C.ar      4 PHE5        0.0000 
     36 O          50.4260  131.3048   57.8142 O.2       2 ALA2        0.0000 
     37 N          52.1535  129.9353   55.2863 N.2       2 ALA2        0.0000 
     38 OG         50.9292  130.5508   55.8963 O.2       1 SER1        0.0000 
     39 OG         49.7048  131.1663   56.5063 O.2       1 SER1        0.0000 
     40 CA         48.4804  131.7817   57.1162 C.3       5 GLY6        0.0000 
     41 OG         48.9835  131.0277   55.1983 O.2       1 SER1        0.0000 
     42 CA         47.7592  131.6432   55.8083 C.3       5 GLY6        0.0000 
     43 OG         52.1094  130.3596   62.1469 O.2       1 SER1        0.0000 
     44 O          50.8850  130.9751   62.7569 O.2       2 ALA2        0.0000 
     45 OG         53.8369  128.9901   59.6191 O.2       1 SER1        0.0000 
     46 OG         52.6125  129.6056   60.2291 O.2       1 SER1        0.0000 
     47 O          51.3881  130.2210   60.8390 O.2       2 ALA2        0.0000 
     48 CA         54.3401  128.2360   57.7012 C.3       5 GLY6        0.0000 
     49 DU         53.1157  128.8515   58.3112 H         6 CUB7        0.0000 
     50 O          51.8913  129.4670   58.9211 O.2       2 ALA2        0.0000 
     51 O          50.6669  130.0825   59.5311 O.2       2 ALA2        0.0000 
     52 N          53.6188  128.0975   56.3933 N.2       2 ALA2        0.0000 
     53 N          52.3945  128.7130   57.0033 N.2       2 ALA2        0.0000 
     54 CA         51.1701  129.3285   57.6132 C.3       5 GLY6        0.0000 
     55 OG         49.9457  129.9439   58.2232 O.2       1 SER1        0.0000 
     56 CA         50.4488  129.1899   56.3053 C.3       5 GLY6        0.0000 
     57 CA         49.2245  129.8054   56.9153 C.3       5 GLY6        0.0000 
     58 CA         48.5032  129.6668   55.6074 C.3       5 GLY6        0.0000 
     59 OG         51.1259  129.7528   64.4738 O.2       1 SER1        0.0000 
     60 OG         50.4047  129.6142   63.1659 O.2       1 SER1        0.0000 
     61 DU         49.1803  130.2297   63.7759 H         6 CUB7        0.0000 
     62 CA         54.5810  127.0137   59.4181 C.3       5 GLY6        0.0000 
     63 OG         53.3566  127.6292   60.0281 O.2       1 SER1        0.0000 
     64 OG         52.1322  128.2447   60.6381 O.2       1 SER1        0.0000 
     65 OG         50.9078  128.8602   61.2481 O.2       1 SER1        0.0000 
     66 CA         49.6834  129.4756   61.8580 C.3       5 GLY6        0.0000 
     67 OG         48.4590  130.0911   62.4680 O.2       1 SER1        0.0000 
     68 O          53.8597  126.8752   58.1102 O.2       2 ALA2        0.0000 
     69 N          52.6354  127.4906   58.7202 N.2       2 ALA2        0.0000 
     70 CA         51.4110  128.1061   59.3302 C.3       5 GLY6        0.0000 
     71 CA         50.6897  127.9676   58.0223 C.3       5 GLY6        0.0000 
     72 OG         49.9243  128.2533   63.5750 O.2       1 SER1        0.0000 
     73 N          50.4275  127.4993   61.6571 N.2       2 ALA2        0.0000 
     74 CA         49.2031  128.1148   62.2671 C.3       5 GLY6        0.0000 
     75 OG         53.3794  125.5143   58.5193 O.2       1 SER1        0.0000 
     76 N          52.1550  126.1298   59.1292 N.2       2 ALA2        0.0000 
     77 CA         50.9306  126.7453   59.7392 C.3       5 GLY6        0.0000 
     78 N          51.4338  125.9912   57.8213 N.2       2 ALA2        0.0000 
     79 CA         50.2094  126.6067   58.4313 C.3       5 GLY6        0.0000 
     80 N          49.9472  126.1384   62.0661 N.2       2 ALA2        0.0000 
     81 OG         51.6747  124.7689   59.5383 O.2       1 SER1        0.0000 
     82 O          50.4503  125.3844   60.1482 O.2       2 ALA2        0.0000 
     83 O          50.9535  124.6303   58.2304 O.2       2 ALA2        0.0000 
@<TRIPOS>BOND
@<TRIPOS>SUBSTRUCTURE
     1 SER1       20 GROUP   
     2 ALA2        1 GROUP   
     3 LYS4        2 GROUP   
     4 PHE5       13 GROUP   
     5 GLY6        4 GROUP   
     6 CUB7        9 GROUP   
@<TRIPOS>SET

