#    Name: 1v45_3DG_1_INTS_M
#    Modification time : Tue Mar 25 07:28:50 2014

@<TRIPOS>MOLECULE
1v45_3DG_1_INTS_M
   41     0     9     0     0
SMALL
NO_CHARGES


@<TRIPOS>ATOM
      1 CA         50.7445  127.7525   56.3470 C.3       3 GLC5        0.0000 
      2 CA         52.8020  128.3940   56.8890 C.3       9 GLL5        0.0000 
      3 CA         48.6870  127.1110   55.8050 C.3       6 GLP5        0.0000 
      4 CA         54.8695  126.4610   56.5620 C.3       3 GLC5        0.0000 
      5 CA         53.8130  127.8330   57.9740 C.3       9 GLL5        0.0000 
      6 CA         55.9260  125.0890   55.1500 C.3       6 GLP5        0.0000 
      7 CA         55.5845  127.6630   58.1505 C.3       3 GLC5        0.0000 
      8 CA         57.3560  127.4930   58.3270 C.3       6 GLP5        0.0000 
      9 CA         54.6685  128.3270   60.9740 C.3       3 GLC5        0.0000 
     10 CA         53.4370  128.5530   59.3730 C.3       9 GLL5        0.0000 
     11 CA         55.9000  128.1010   62.5750 C.3       6 GLP5        0.0000 
     12 CA         55.4205  128.8190   59.2740 C.3       3 GLC5        0.0000 
     13 CA         57.4040  129.0850   59.1750 C.3       6 GLP5        0.0000 
     14 CA         53.8655  132.0930   57.7045 C.3       3 GLC5        0.0000 
     15 CA         53.1470  131.0500   58.6360 C.3       9 GLL5        0.0000 
     16 CA         54.5840  133.1360   56.7730 C.3       6 GLP5        0.0000 
     17 CA         52.4515  132.8085   58.7310 C.3       3 GLC5        0.0000 
     18 CA         51.7560  134.5670   58.8260 C.3       6 GLP5        0.0000 
     19 O          51.1520  132.4290   59.0650 O.2       1 ALC1        0.0000 
     20 O          52.0820  131.9250   58.1500 O.2       7 ALL1        0.0000 
     21 O          50.2220  132.9330   59.9800 O.2       4 ALP1        0.0000 
     22 N          54.9140  125.6900   57.8220 N.am      2 SEC2        0.0000 
     23 N          53.5840  126.3930   58.1150 N.am      8 SEL2        0.0000 
     24 N          56.2440  124.9870   57.5290 N.am      5 SEP2        0.0000 
     25 N          52.4800  130.9910   52.6920 N.am      2 SEC2        0.0000 
     26 N          52.9240  130.1750   53.7250 N.am      8 SEL2        0.0000 
     27 N          52.0360  131.8070   51.6590 N.am      5 SEP2        0.0000 
     28 CA         53.8440  129.3745   52.1895 C.3       3 GLC5        0.0000 
     29 CA         54.2580  129.9660   53.9660 C.3       9 GLL5        0.0000 
     30 CA         53.4300  128.7830   50.4130 C.3       6 GLP5        0.0000 
     31 N          53.6310  131.4165   51.8790 N.am      2 SEC2        0.0000 
     32 N          55.2260  131.0260   52.0990 N.am      8 SEL2        0.0000 
     33 O          57.8125  130.2605   53.1925 O.2       1 ALC1        0.0000 
     34 O          56.5560  129.9690   53.7170 O.2       7 ALL1        0.0000 
     35 O          59.0690  130.5520   52.6680 O.2       4 ALP1        0.0000 
     36 O          59.1435  129.1825   54.6645 O.2       1 ALC1        0.0000 
     37 O          57.9460  128.9700   55.3080 O.2       7 ALL1        0.0000 
     38 O          60.3410  129.3950   54.0210 O.2       4 ALP1        0.0000 
     39 O          58.5075  129.7610   53.9880 O.2       1 ALC1        0.0000 
     40 CA         55.2125  127.1730   55.1410 C.3       3 GLC5        0.0000 
     41 CA         54.4990  129.2570   55.1320 C.3       9 GLL5        0.0000 
@<TRIPOS>BOND
@<TRIPOS>SUBSTRUCTURE
     1 ALC1       19 GROUP        1 X    ALC  0     ROOT ALC X 1
     2 SEC2       22 GROUP        1 X    SEC  0     **** SEC X 2
     3 GLC5        1 GROUP        1 X    GLC  0     **** GLC X 6
     4 ALP1       21 GROUP        1 Y    ALP  0     ROOT ALP Y 8
     5 SEP2       24 GROUP        1 Y    SEP  0     **** SEP Y 9
     6 GLP5        3 GROUP        1 Y    GLP  0     **** GLP Y 13
     7 ALL1       20 GROUP        1 Z    ALL  0     ROOT ALL Z 15
     8 SEL2       23 GROUP        1 Z    SEL  0     **** SEL Z 16
     9 GLL5        2 GROUP        1 Z    GLL  0     **** GLL Z 20
@<TRIPOS>SET

