#    Name: 1v45_3DG_1_ligand
#    Modification time : Tue Mar 25 07:28:50 2014

@<TRIPOS>MOLECULE
1v45_3DG_1_ligand
   32    34     1     0     0
SMALL
NO_CHARGES


@<TRIPOS>ATOM
      1 N9         53.2330  129.0760   55.6190 N.pl3     1 3DG290      0.0000 
      2 C1'        52.8020  128.3940   56.8890 C.3       1 3DG290      0.0000 
      3 C2'        53.8130  127.8330   57.9740 C.3       1 3DG290      0.0000 
      4 C3'        53.4370  128.5530   59.3730 C.3       1 3DG290      0.0000 
      5 C4'        52.4900  129.6940   58.8900 C.3       1 3DG290      0.0000 
      6 O4'        51.9230  129.3140   57.6020 O.3       1 3DG290      0.0000 
      7 C5'        53.1470  131.0500   58.6360 C.3       1 3DG290      0.0000 
      8 O5'        52.0820  131.9250   58.1500 O.3       1 3DG290      0.0000 
      9 O2'        53.5840  126.3930   58.1150 O.3       1 3DG290      0.0000 
     10 C8         52.2680  129.6170   54.7810 C.2       1 3DG290      0.0000 
     11 N7         52.9240  130.1750   53.7250 N.2       1 3DG290      0.0000 
     12 C5         54.2580  129.9660   53.9660 C.2       1 3DG290      0.0000 
     13 C6         55.3150  130.3670   53.1740 C.2       1 3DG290      0.0000 
     14 O6         55.2260  131.0260   52.0990 O.2       1 3DG290      0.0000 
     15 N1         56.5560  129.9690   53.7170 N.am      1 3DG290      0.0000 
     16 C2         56.7000  129.2580   54.8950 C.2       1 3DG290      0.0000 
     17 N2         57.9460  128.9700   55.3080 N.pl3     1 3DG290      0.0000 
     18 N3         55.6810  128.8720   55.6560 N.2       1 3DG290      0.0000 
     19 C4         54.4990  129.2570   55.1320 C.2       1 3DG290      0.0000 
     20 H          52.1429  127.5200   56.6138 H         1 3DG290      0.0000 
     21 H          54.7753  128.0908   57.7179 H         1 3DG290      0.0000 
     22 H          54.3080  128.9505   59.7746 H         1 3DG290      0.0000 
     23 H          52.9146  127.8708   59.9558 H         1 3DG290      0.0000 
     24 H          51.6954  129.8175   59.6022 H         1 3DG290      0.0000 
     25 H          53.9191  130.9249   57.8969 H         1 3DG290      0.0000 
     26 H          53.5589  131.4114   59.5622 H         1 3DG290      0.0000 
     27 H          51.3332  129.5947   54.9286 H         1 3DG290      0.0000 
     28 H          57.4255  130.2374   53.1797 H         1 3DG290      0.0000 
     29 H          58.6896  129.2986   54.7257 H         1 3DG290      0.0000 
     30 H          58.0184  128.4528   56.1608 H         1 3DG290      0.0000 
     31 H          51.4215  131.9696   58.8995 H         1 3DG290      0.0000 
     32 H          52.8036  126.3147   58.7353 H         1 3DG290      0.0000 
@<TRIPOS>BOND
     1    2    1 1    
     2   10    1 1    
     3   19    1 1    
     4    3    2 1    
     5    6    2 1    
     6   20    2 1    
     7    4    3 1    
     8    9    3 1    
     9   21    3 1    
    10    5    4 1    
    11   22    4 1    
    12   23    4 1    
    13    6    5 1    
    14    7    5 1    
    15   24    5 1    
    16    8    7 1    
    17   25    7 1    
    18   26    7 1    
    19   31    8 1    
    20   32    9 1    
    21   11   10 2    
    22   27   10 1    
    23   12   11 1    
    24   13   12 1    
    25   19   12 2    
    26   14   13 2    
    27   15   13 am   
    28   16   15 1    
    29   28   15 1    
    30   17   16 1    
    31   18   16 2    
    32   29   17 1    
    33   30   17 1    
    34   19   18 1    
@<TRIPOS>SUBSTRUCTURE
     1 3DG290      1 GROUP   
@<TRIPOS>SET

