#    Name: 3hv4_L51_1_INTS_M
#    Modification time : Tue Mar 25 15:06:10 2014

@<TRIPOS>MOLECULE
3hv4_L51_1_INTS_M
   92     0     9     0     0
SMALL
NO_CHARGES


@<TRIPOS>ATOM
      1 O          11.1130    6.1780    1.1930 O.2       1 ALC1        0.0000 
      2 O          11.8030    4.7160    1.7560 O.2       7 ALL1        0.0000 
      3 O          10.4230    7.6400    0.6300 O.2       4 ALP1        0.0000 
      4 CA         13.8000    1.1795    6.5355 C.3       3 GLC5        0.0000 
      5 CA         12.5490    2.0520    4.8820 C.3       9 GLL5        0.0000 
      6 CA         15.0510    0.3070    8.1890 C.3       6 GLP5        0.0000 
      7 CA         11.8410    0.4015    7.5815 C.3       3 GLC5        0.0000 
      8 CA         13.0050   -0.0850    5.7340 C.3       9 GLL5        0.0000 
      9 CA         10.6770    0.8880    9.4290 C.3       6 GLP5        0.0000 
     10 CA         10.1930   -1.0660    3.7750 C.3       3 GLC5        0.0000 
     11 CA         11.2030   -2.1640    2.3000 C.3       9 GLL5        0.0000 
     12 CA          9.1830    0.0320    5.2500 C.3       6 GLP5        0.0000 
     13 O          13.5290   -5.3410   -0.9865 O.2       1 ALC1        0.0000 
     14 O          13.8390   -4.6250    0.1940 O.2       7 ALL1        0.0000 
     15 O          13.2190   -6.0570   -2.1670 O.2       4 ALP1        0.0000 
     16 N          17.1255   -3.6200    1.1635 N.am      2 SEC2        0.0000 
     17 N          15.7980   -4.4190    1.2780 N.am      8 SEL2        0.0000 
     18 N          18.4530   -2.8210    1.0490 N.am      5 SEP2        0.0000 
     19 O          14.4090   -5.9295   -1.3320 O.2       1 ALC1        0.0000 
     20 O          15.5990   -5.8020   -0.4970 O.2       7 ALL1        0.0000 
     21 CA         15.2295   -7.3290   -1.6735 C.3       3 GLC5        0.0000 
     22 CA         16.8520   -6.3750   -0.4960 C.3       9 GLL5        0.0000 
     23 CA         13.6070   -8.2830   -2.8510 C.3       6 GLP5        0.0000 
     24 CA         17.0340   -6.6200    2.5675 C.3       3 GLC5        0.0000 
     25 CA         17.5880   -6.5910    0.5940 C.3       9 GLL5        0.0000 
     26 CA         16.4800   -6.6490    4.5410 C.3       6 GLP5        0.0000 
     27 CA         18.4505   -4.9880    1.9145 C.3       3 GLC5        0.0000 
     28 CA         19.3130   -3.3850    3.2350 C.3       6 GLP5        0.0000 
     29 CA         22.0070   -7.6890    2.9150 C.3       3 GLC5        0.0000 
     30 CA         20.4050   -6.5600    1.8640 C.3       9 GLL5        0.0000 
     31 CA         23.6090   -8.8180    3.9660 C.3       6 GLP5        0.0000 
     32 CA         21.7425   -5.6350    2.8890 C.3       3 GLC5        0.0000 
     33 CA         23.0800   -4.7100    3.9140 C.3       6 GLP5        0.0000 
     34 CA         19.8590   -4.9725    2.5495 C.3       3 GLC5        0.0000 
     35 CA         17.1855   -8.7660    2.0720 C.3       3 GLC5        0.0000 
     36 CA         19.3720   -8.8130    1.9860 C.3       9 GLL5        0.0000 
     37 CA         14.9990   -8.7190    2.1580 C.3       6 GLP5        0.0000 
     38 CA         18.8245  -10.4115    3.0600 C.3       3 GLC5        0.0000 
     39 CA         18.2770  -12.0100    4.1340 C.3       6 GLP5        0.0000 
     40 CA         19.6780   -8.8765    3.9850 C.3       3 GLC5        0.0000 
     41 CA         19.9840   -8.9400    5.9840 C.3       6 GLP5        0.0000 
     42 CA         17.9260   -7.7310    3.2635 C.3       3 GLC5        0.0000 
     43 CA         16.9105  -10.3625   -5.6305 C.3       3 GLC5        0.0000 
     44 CA         16.7910   -8.5140   -4.7480 C.3       9 GLL5        0.0000 
     45 CA         17.0300  -12.2110   -6.5130 C.3       6 GLP5        0.0000 
     46 CA         15.0240   -8.8825   -4.3455 C.3       3 GLC5        0.0000 
     47 CA         13.2570   -9.2510   -3.9430 C.3       6 GLP5        0.0000 
     48 CA         15.2575   -7.8235   -8.6370 C.3       3 GLC5        0.0000 
     49 CA         15.7090   -7.6360   -6.8290 C.3       9 GLL5        0.0000 
     50 CA         14.8060   -8.0110  -10.4450 C.3       6 GLP5        0.0000 
     51 CA         16.8435   -9.5550   -7.1335 C.3       3 GLC5        0.0000 
     52 CA         17.9780  -11.4740   -7.4380 C.3       6 GLP5        0.0000 
     53 CA         14.4830   -8.4435   -5.3860 C.3       3 GLC5        0.0000 
     54 CA         10.2873    4.6740    3.0588 C.3       3 GLC5        0.0000 
     55 CA         12.1080    4.3060    4.0650 C.3       9 GLL5        0.0000 
     56 CA          8.4890    5.2770    2.7130 C.3       6 GLP5        0.0000 
     57 CA         10.3737    2.2544    2.3184 C.3       3 GLC5        0.0000 
     58 CA         12.0630    3.8360    2.7440 C.3       9 GLL5        0.0000 
     59 CA          8.5200    1.5870    1.7540 C.3       6 GLP5        0.0000 
     60 CA         10.8955    3.1101    6.0780 C.3       3 GLC5        0.0000 
     61 CA          9.4000    3.2620    7.4180 C.3       6 GLP5        0.0000 
     62 CA         14.0203   -0.0280    6.6445 C.3       3 GLC5        0.0000 
     63 CA         14.6219   -0.6382    3.9348 C.3       3 GLC5        0.0000 
     64 CA         12.7340    0.1820    3.3610 C.3       9 GLL5        0.0000 
     65 CA         16.3820   -1.1860    3.6390 C.3       6 GLP5        0.0000 
     66 CA         11.6773   -2.4350   -0.2157 C.3       3 GLC5        0.0000 
     67 CA         12.4260   -1.6330    1.8680 C.3       9 GLL5        0.0000 
     68 CA         10.4610   -2.8320   -1.9440 C.3       6 GLP5        0.0000 
     69 CA         14.6378   -1.6120    2.5757 C.3       3 GLC5        0.0000 
     70 CA         13.3610   -2.4430    1.1570 C.3       9 GLL5        0.0000 
     71 CA          9.7365   -2.7425    0.8172 C.3       3 GLC5        0.0000 
     72 CA          8.4080   -2.6590   -0.5220 C.3       6 GLP5        0.0000 
     73 CA          9.7767   -5.3235    1.1460 C.3       3 GLC5        0.0000 
     74 CA         10.9270   -3.4880    2.0130 C.3       9 GLL5        0.0000 
     75 CA          8.1750   -6.7700    0.6340 C.3       6 GLP5        0.0000 
     76 CA         11.3567   -4.8010    3.5095 C.3       3 GLC5        0.0000 
     77 CA         11.8300   -4.2660    1.3030 C.3       9 GLL5        0.0000 
     78 CA         11.3350   -5.7250    5.3610 C.3       6 GLP5        0.0000 
     79 CA         11.4507   -3.4257   -0.4290 C.3       3 GLC5        0.0000 
     80 CA         12.6342   -6.0817    1.1160 C.3       3 GLC5        0.0000 
     81 CA         12.8280   -8.1440    1.1460 C.3       6 GLP5        0.0000 
     82 CA         16.1095   -7.6010    1.1035 C.3       3 GLC5        0.0000 
     83 CA         17.9105   -4.9515   -0.6275 C.3       3 GLC5        0.0000 
     84 CA         18.6010   -3.4200   -1.3040 C.3       6 GLP5        0.0000 
     85 CA         17.6825   -4.9768   -2.2192 C.3       3 GLC5        0.0000 
     86 CA         17.0690   -7.0600   -2.7960 C.3       9 GLL5        0.0000 
     87 CA         17.8185   -9.9135   -3.3685 C.3       3 GLC5        0.0000 
     88 CA         17.2170   -8.3040   -3.4260 C.3       9 GLL5        0.0000 
     89 CA         18.6330  -11.4180   -2.6500 C.3       6 GLP5        0.0000 
     90 CA         10.9972    0.1738    4.8476 C.3       3 GLC5        0.0000 
     91 CA         15.0278   -7.5604   -3.5196 C.3       3 GLC5        0.0000 
     92 CA         16.4590   -6.0070   -3.4730 C.3       9 GLL5        0.0000 
@<TRIPOS>BOND
@<TRIPOS>SUBSTRUCTURE
     1 ALC1        1 GROUP        1 X    ALC  0     ROOT ALC X 1
     2 SEC2       16 GROUP        1 X    SEC  0     **** SEC X 2
     3 GLC5        4 GROUP        1 X    GLC  0     **** GLC X 6
     4 ALP1        3 GROUP        1 Y    ALP  0     ROOT ALP Y 8
     5 SEP2       18 GROUP        1 Y    SEP  0     **** SEP Y 9
     6 GLP5        6 GROUP        1 Y    GLP  0     **** GLP Y 13
     7 ALL1        2 GROUP        1 Z    ALL  0     ROOT ALL Z 15
     8 SEL2       17 GROUP        1 Z    SEL  0     **** SEL Z 16
     9 GLL5        5 GROUP        1 Z    GLL  0     **** GLL Z 20
@<TRIPOS>SET

