#    Name: 3hv4_L51_1_ligand
#    Modification time : Tue Mar 25 15:06:10 2014

@<TRIPOS>MOLECULE
3hv4_L51_1_ligand
   70    74     1     0     0
SMALL
NO_CHARGES


@<TRIPOS>ATOM
      1 CBJ        12.5160    1.5600    3.5570 C.ar      1 L51361      0.0000 
      2 CAT        12.2680    2.4550    2.4860 C.ar      1 L51361      0.0000 
      3 CBB        12.0630    3.8360    2.7440 C.ar      1 L51361      0.0000 
      4 NAE        11.8030    4.7160    1.7560 N.pl3     1 L51361      0.0000 
      5 CAN        12.1080    4.3060    4.0650 C.ar      1 L51361      0.0000 
      6 CAQ        12.3580    3.4230    5.1230 C.ar      1 L51361      0.0000 
      7 CBI        12.5490    2.0520    4.8820 C.ar      1 L51361      0.0000 
      8 NAU        12.7920    1.2160    5.9200 N.pl3     1 L51361      0.0000 
      9 CAH        13.0050   -0.0850    5.7340 C.ar      1 L51361      0.0000 
     10 CAM        12.9740   -0.6410    4.4660 C.ar      1 L51361      0.0000 
     11 CBF        12.7340    0.1820    3.3610 C.ar      1 L51361      0.0000 
     12 NAY        12.7100   -0.3340    2.1300 N.pl3     1 L51361      0.0000 
     13 CBD        12.4260   -1.6330    1.8680 C.ar      1 L51361      0.0000 
     14 CAR        13.3610   -2.4430    1.1570 C.ar      1 L51361      0.0000 
     15 CAJ        11.2030   -2.1640    2.3000 C.ar      1 L51361      0.0000 
     16 CAG        10.9270   -3.4880    2.0130 C.ar      1 L51361      0.0000 
     17 CAI        11.8300   -4.2660    1.3030 C.ar      1 L51361      0.0000 
     18 CBC        13.0510   -3.7730    0.8690 C.ar      1 L51361      0.0000 
     19 NAW        13.8390   -4.6250    0.1940 N.am      1 L51361      0.0000 
     20 CAZ        15.1110   -4.9330    0.3930 C.2       1 L51361      0.0000 
     21 OAF        15.7980   -4.4190    1.2780 O.2       1 L51361      0.0000 
     22 NAX        15.5990   -5.8020   -0.4970 N.am      1 L51361      0.0000 
     23 CBH        16.8520   -6.3750   -0.4960 C.2       1 L51361      0.0000 
     24 CAS        17.5880   -6.5910    0.5940 C.2       1 L51361      0.0000 
     25 CBG        18.6660   -7.2440    0.1560 C.2       1 L51361      0.0000 
     26 CBL        19.8480   -7.7200    1.0350 C.3       1 L51361      0.0000 
     27 CAC        20.4050   -6.5600    1.8640 C.3       1 L51361      0.0000 
     28 CAD        19.3720   -8.8130    1.9860 C.3       1 L51361      0.0000 
     29 CAB        20.9030   -8.3130    0.1320 C.3       1 L51361      0.0000 
     30 NAV        18.5750   -7.4670   -1.1470 N.2       1 L51361      0.0000 
     31 NBK        17.5060   -6.9650   -1.5260 N.pl3     1 L51361      0.0000 
     32 CBE        17.0690   -7.0600   -2.7960 C.ar      1 L51361      0.0000 
     33 CAO        17.2170   -8.3040   -3.4260 C.ar      1 L51361      0.0000 
     34 CAK        16.7910   -8.5140   -4.7480 C.ar      1 L51361      0.0000 
     35 CBA        16.1830   -7.4500   -5.4000 C.ar      1 L51361      0.0000 
     36 CAA        15.7090   -7.6360   -6.8290 C.3       1 L51361      0.0000 
     37 CAL        16.0090   -6.2120   -4.7690 C.ar      1 L51361      0.0000 
     38 CAP        16.4590   -6.0070   -3.4730 C.ar      1 L51361      0.0000 
     39 H          12.2366    2.1071    1.5278 H         1 L51361      0.0000 
     40 H          11.6889    5.6695    2.0348 H         1 L51361      0.0000 
     41 H          11.7474    4.3368    0.8324 H         1 L51361      0.0000 
     42 H          11.9566    5.3039    4.2564 H         1 L51361      0.0000 
     43 H          12.4026    3.7798    6.0869 H         1 L51361      0.0000 
     44 H          12.8108    1.6159    6.8965 H         1 L51361      0.0000 
     45 H          13.2011   -0.7180    6.5446 H         1 L51361      0.0000 
     46 H          13.1247   -1.6447    4.3322 H         1 L51361      0.0000 
     47 H          12.9249    0.3042    1.3016 H         1 L51361      0.0000 
     48 H          14.2512   -2.0376    0.8655 H         1 L51361      0.0000 
     49 H          10.5430   -1.5845    2.8097 H         1 L51361      0.0000 
     50 H          10.0342   -3.9069    2.3316 H         1 L51361      0.0000 
     51 H          11.5808   -5.2583    1.0880 H         1 L51361      0.0000 
     52 H          13.3442   -5.1452   -0.6561 H         1 L51361      0.0000 
     53 H          14.9485   -6.0993   -1.3175 H         1 L51361      0.0000 
     54 H          17.3894   -6.3363    1.4873 H         1 L51361      0.0000 
     55 H          17.6503   -9.0867   -2.9055 H         1 L51361      0.0000 
     56 H          16.9252   -9.4058   -5.1988 H         1 L51361      0.0000 
     57 H          15.5397   -5.4467   -5.2791 H         1 L51361      0.0000 
     58 H          16.3458   -5.0985   -3.0200 H         1 L51361      0.0000 
     59 H          21.1725   -6.8478    2.4369 H         1 L51361      0.0000 
     60 H          20.7349   -5.8145    1.2849 H         1 L51361      0.0000 
     61 H          19.7130   -6.1733    2.4737 H         1 L51361      0.0000 
     62 H          20.1131   -9.1472    2.5684 H         1 L51361      0.0000 
     63 H          18.6466   -8.4875    2.5925 H         1 L51361      0.0000 
     64 H          19.0086   -9.6028    1.4919 H         1 L51361      0.0000 
     65 H          21.2420   -7.6457   -0.5312 H         1 L51361      0.0000 
     66 H          21.6939   -8.6397    0.6495 H         1 L51361      0.0000 
     67 H          20.5516   -9.0911   -0.3886 H         1 L51361      0.0000 
     68 H          16.4624   -7.8735   -7.4422 H         1 L51361      0.0000 
     69 H          15.0296   -8.3661   -6.9029 H         1 L51361      0.0000 
     70 H          15.2869   -6.8050   -7.1914 H         1 L51361      0.0000 
@<TRIPOS>BOND
     1    2    1 ar   
     2    7    1 ar   
     3   11    1 ar   
     4    3    2 ar   
     5   39    2 1    
     6    4    3 1    
     7    5    3 ar   
     8   40    4 1    
     9   41    4 1    
    10    6    5 ar   
    11   42    5 1    
    12    7    6 ar   
    13   43    6 1    
    14    8    7 ar   
    15    9    8 ar   
    16   44    8 1    
    17   10    9 ar   
    18   45    9 1    
    19   11   10 ar   
    20   46   10 1    
    21   12   11 1    
    22   13   12 1    
    23   47   12 1    
    24   14   13 ar   
    25   15   13 ar   
    26   18   14 ar   
    27   48   14 1    
    28   16   15 ar   
    29   49   15 1    
    30   17   16 ar   
    31   50   16 1    
    32   18   17 ar   
    33   51   17 1    
    34   19   18 1    
    35   20   19 am   
    36   52   19 1    
    37   21   20 2    
    38   22   20 am   
    39   23   22 1    
    40   53   22 1    
    41   24   23 2    
    42   31   23 1    
    43   25   24 1    
    44   54   24 1    
    45   26   25 1    
    46   30   25 2    
    47   27   26 1    
    48   28   26 1    
    49   29   26 1    
    50   59   27 1    
    51   60   27 1    
    52   61   27 1    
    53   62   28 1    
    54   63   28 1    
    55   64   28 1    
    56   65   29 1    
    57   66   29 1    
    58   67   29 1    
    59   31   30 1    
    60   32   31 1    
    61   33   32 ar   
    62   38   32 ar   
    63   34   33 ar   
    64   55   33 1    
    65   35   34 ar   
    66   56   34 1    
    67   36   35 1    
    68   37   35 ar   
    69   68   36 1    
    70   69   36 1    
    71   70   36 1    
    72   38   37 ar   
    73   57   37 1    
    74   58   38 1    
@<TRIPOS>SUBSTRUCTURE
     1 L51361      1 GROUP   
@<TRIPOS>SET

