#    Name: 1dyh_DZF_2_INTS_M
#    Modification time : Mon Mar 24 22:34:58 2014

@<TRIPOS>MOLECULE
1dyh_DZF_2_INTS_M
   52     0    12     0     0
SMALL
NO_CHARGES


@<TRIPOS>ATOM
      1 O          13.7465   64.2895   45.8720 O.2       1 ALC1        0.0000 
      2 O          14.3810   65.0260   46.9340 O.2       9 ALL1        0.0000 
      3 O          13.1120   63.5530   44.8100 O.2       5 ALP1        0.0000 
      4 O          14.7200   64.1995   45.4430 O.2       1 ALC1        0.0000 
      5 O          15.0590   63.3730   43.9520 O.2       5 ALP1        0.0000 
      6 N          15.6685   64.2155   44.8210 N.am      2 SEC2        0.0000 
      7 N          16.2780   65.0580   45.6900 N.am     10 SEL2        0.0000 
      8 N          15.0590   63.3730   43.9520 N.am      6 SEP2        0.0000 
      9 CA         17.7420   63.9355   46.5930 C.3       4 GLC5        0.0000 
     10 CA         18.4710   66.0370   46.2920 C.3      12 GLL5        0.0000 
     11 CA         17.0130   61.8340   46.8940 C.3       8 GLP5        0.0000 
     12 CA         19.6230   69.2175   49.1830 C.3       4 GLC5        0.0000 
     13 CA         19.5410   67.4820   48.1650 C.3      12 GLL5        0.0000 
     14 CA         19.7050   70.9530   50.2010 C.3       8 GLP5        0.0000 
     15 CA         17.3690   65.4120   49.1445 C.3       4 GLC5        0.0000 
     16 CA         17.8700   66.2980   47.4710 C.3      12 GLL5        0.0000 
     17 CA         16.8680   64.5260   50.8180 C.3       8 GLP5        0.0000 
     18 CA         23.2455   69.0650   47.3875 C.3       4 GLC5        0.0000 
     19 CA         21.7280   68.0400   46.7020 C.3      12 GLL5        0.0000 
     20 CA         24.7630   70.0900   48.0730 C.3       8 GLP5        0.0000 
     21 N          20.1320   72.2780   39.0945 N.am      2 SEC2        0.0000 
     22 N          19.9570   70.9720   39.9710 N.am     10 SEL2        0.0000 
     23 N          20.3070   73.5840   38.2180 N.am      6 SEP2        0.0000 
     24 CA         18.7850   73.1835   41.5660 C.3       4 GLC5        0.0000 
     25 CA         17.5770   72.1020   40.2590 C.3      12 GLL5        0.0000 
     26 CA         19.9930   74.2650   42.8730 C.3       8 GLP5        0.0000 
     27 NZ         16.2175   74.5365   42.1910 N.4       3 LYC4        0.0000 
     28 NZ         16.3810   72.8830   42.1650 N.4      11 LYL4        0.0000 
     29 NZ         15.9130   75.9940   43.5330 N.4       7 LYP4        0.0000 
     30 N          16.1145   73.8025   43.1015 N.am      2 SEC2        0.0000 
     31 N          16.3810   72.8830   42.1650 N.am     10 SEL2        0.0000 
     32 N          15.8480   74.7220   44.0380 N.am      6 SEP2        0.0000 
     33 N          16.2175   74.5365   42.1910 N.am      2 SEC2        0.0000 
     34 N          16.0540   76.1900   42.2170 N.am      6 SEP2        0.0000 
     35 NZ         16.4380   74.2320   40.4460 N.4      11 LYL4        0.0000 
     36 N          16.2460   75.2110   41.3315 N.am      2 SEC2        0.0000 
     37 N          16.4380   74.2320   40.4460 N.am     10 SEL2        0.0000 
     38 CA         22.3343   70.5153   42.9015 C.3       4 GLC5        0.0000 
     39 CA         20.0900   70.0590   42.1070 C.3      12 GLL5        0.0000 
     40 CA         24.0270   71.3340   43.8600 C.3       8 GLP5        0.0000 
     41 CA         19.9438   72.1880   42.7765 C.3       4 GLC5        0.0000 
     42 CA         22.8488   70.0220   43.6478 C.3       4 GLC5        0.0000 
     43 CA         21.3910   68.7990   44.1390 C.3      12 GLL5        0.0000 
     44 CA         21.6728   70.9300   44.4400 C.3       4 GLC5        0.0000 
     45 CA         20.2520   69.5850   44.3670 C.3      12 GLL5        0.0000 
     46 CA         23.3700   71.9860   45.0700 C.3       8 GLP5        0.0000 
     47 CA         18.7321   68.5754   41.9700 C.3       4 GLC5        0.0000 
     48 CA         19.6990   70.1630   43.2530 C.3      12 GLL5        0.0000 
     49 CA         17.2940   67.2210   41.3420 C.3       8 GLP5        0.0000 
     50 CA         15.8663   69.2220   39.3528 C.3       4 GLC5        0.0000 
     51 CA         16.7420   71.0550   39.6450 C.3      12 GLL5        0.0000 
     52 CA         15.2240   67.2630   39.8080 C.3       8 GLP5        0.0000 
@<TRIPOS>BOND
@<TRIPOS>SUBSTRUCTURE
     1 ALC1        1 GROUP        1 X    ALC  0     ROOT ALC X 1
     2 SEC2        6 GROUP        1 X    SEC  0     **** SEC X 2
     3 LYC4       27 GROUP        1 X    LYC  0     **** LYC X 4
     4 GLC5        9 GROUP        1 X    GLC  0     **** GLC X 6
     5 ALP1        3 GROUP        1 Y    ALP  0     ROOT ALP Y 8
     6 SEP2        8 GROUP        1 Y    SEP  0     **** SEP Y 9
     7 LYP4       29 GROUP        1 Y    LYP  0     **** LYP Y 11
     8 GLP5       11 GROUP        1 Y    GLP  0     **** GLP Y 13
     9 ALL1        2 GROUP        1 Z    ALL  0     ROOT ALL Z 15
    10 SEL2        7 GROUP        1 Z    SEL  0     **** SEL Z 16
    11 LYL4       28 GROUP        1 Z    LYL  0     **** LYL Z 18
    12 GLL5       10 GROUP        1 Z    GLL  0     **** GLL Z 20
@<TRIPOS>SET

