#    Name: 1dyh_DZF_2_ligand
#    Modification time : Mon Mar 24 22:34:59 2014

@<TRIPOS>MOLECULE
1dyh_DZF_2_ligand
   49    51     1     0     0
SMALL
NO_CHARGES


@<TRIPOS>ATOM
      1 N1         16.4640   66.0090   47.7310 N.pl3     1 DZF161      0.0000 
      2 C2         15.6840   65.3830   46.8300 C.2       1 DZF161      0.0000 
      3 NA2        14.3810   65.0260   46.9340 N.pl3     1 DZF161      0.0000 
      4 N3         16.2780   65.0580   45.6900 N.2       1 DZF161      0.0000 
      5 C4         17.7220   65.3400   45.3110 C.2       1 DZF161      0.0000 
      6 O4         18.2910   64.9950   44.1160 O.2       1 DZF161      0.0000 
      7 C4A        18.4710   66.0370   46.2920 C.ar      1 DZF161      0.0000 
      8 C5         19.7680   66.5900   45.8630 C.ar      1 DZF161      0.0000 
      9 C6         20.2760   67.3140   46.8960 C.ar      1 DZF161      0.0000 
     10 C7         19.5410   67.4820   48.1650 C.ar      1 DZF161      0.0000 
     11 N8         18.4700   67.0540   48.4920 N.ar      1 DZF161      0.0000 
     12 C8A        17.8700   66.2980   47.4710 C.ar      1 DZF161      0.0000 
     13 C9         21.7280   68.0400   46.7020 C.3       1 DZF161      0.0000 
     14 N10        22.1350   68.1150   45.1270 N.pl3     1 DZF161      0.0000 
     15 C11        20.0900   70.0590   42.1070 C.ar      1 DZF161      0.0000 
     16 C12        21.1930   69.3340   41.7790 C.ar      1 DZF161      0.0000 
     17 C13        21.9500   68.6210   42.7320 C.ar      1 DZF161      0.0000 
     18 C14        21.3910   68.7990   44.1390 C.ar      1 DZF161      0.0000 
     19 C15        20.2520   69.5850   44.3670 C.ar      1 DZF161      0.0000 
     20 C16        19.6990   70.1630   43.2530 C.ar      1 DZF161      0.0000 
     21 C          19.3650   70.7690   41.0420 C.2       1 DZF161      0.0000 
     22 O          19.9570   70.9720   39.9710 O.2       1 DZF161      0.0000 
     23 N          18.2180   71.3280   41.2400 N.am      1 DZF161      0.0000 
     24 CA         17.5770   72.1020   40.2590 C.3       1 DZF161      0.0000 
     25 CB         16.7420   71.0550   39.6450 C.3       1 DZF161      0.0000 
     26 CG         16.2750   71.3070   38.1500 C.3       1 DZF161      0.0000 
     27 CD         14.6800   71.6770   38.4470 C.2       1 DZF161      0.0000 
     28 OE1        13.8720   71.9480   37.2380 O.co2     1 DZF161      0.0000 
     29 OE2        14.2040   71.7250   39.7560 O.co2     1 DZF161      0.0000 
     30 CT         16.7510   73.1210   41.0180 C.2       1 DZF161      0.0000 
     31 O1         16.3810   72.8830   42.1650 O.co2     1 DZF161      0.0000 
     32 O2         16.4380   74.2320   40.4460 O.co2     1 DZF161      0.0000 
     33 H          16.0977   66.3153   48.6553 H         1 DZF161      0.0000 
     34 H          20.1251   66.4320   45.0106 H         1 DZF161      0.0000 
     35 H          20.1529   68.1146   48.8562 H         1 DZF161      0.0000 
     36 H          22.4628   67.4611   47.2149 H         1 DZF161      0.0000 
     37 H          21.6584   69.0344   47.0820 H         1 DZF161      0.0000 
     38 H          23.0003   67.6068   44.9231 H         1 DZF161      0.0000 
     39 H          21.5118   69.2899   40.7796 H         1 DZF161      0.0000 
     40 H          22.7122   68.0867   42.5794 H         1 DZF161      0.0000 
     41 H          19.8799   69.7063   45.2861 H         1 DZF161      0.0000 
     42 H          18.8056   70.7766   43.4851 H         1 DZF161      0.0000 
     43 H          17.7018   71.2278   42.1611 H         1 DZF161      0.0000 
     44 H          18.2225   72.5272   39.5973 H         1 DZF161      0.0000 
     45 H          15.8144   70.8895   40.2402 H         1 DZF161      0.0000 
     46 H          17.2720   70.0746   39.6475 H         1 DZF161      0.0000 
     47 H          16.2895   70.4349   37.6213 H         1 DZF161      0.0000 
     48 H          16.7158   72.1478   37.7768 H         1 DZF161      0.0000 
     49 H          14.1849   64.5159   46.0965 H         1 DZF161      0.0000 
@<TRIPOS>BOND
     1    2    1 1    
     2   12    1 1    
     3   33    1 1    
     4    3    2 1    
     5    4    2 2    
     6   49    3 1    
     7    5    4 1    
     8    6    5 2    
     9    7    5 1    
    10    8    7 ar   
    11   12    7 ar   
    12    9    8 ar   
    13   34    8 1    
    14   10    9 ar   
    15   13    9 1    
    16   11   10 ar   
    17   35   10 1    
    18   12   11 ar   
    19   14   13 1    
    20   36   13 1    
    21   37   13 1    
    22   18   14 1    
    23   38   14 1    
    24   16   15 ar   
    25   20   15 ar   
    26   21   15 1    
    27   17   16 ar   
    28   39   16 1    
    29   18   17 ar   
    30   40   17 1    
    31   19   18 ar   
    32   20   19 ar   
    33   41   19 1    
    34   42   20 1    
    35   22   21 2    
    36   23   21 am   
    37   24   23 1    
    38   43   23 1    
    39   25   24 1    
    40   30   24 1    
    41   44   24 1    
    42   26   25 1    
    43   45   25 1    
    44   46   25 1    
    45   27   26 1    
    46   47   26 1    
    47   48   26 1    
    48   28   27 ar   
    49   29   27 ar   
    50   31   30 ar   
    51   32   30 ar   
@<TRIPOS>SUBSTRUCTURE
     1 DZF161      1 GROUP   
@<TRIPOS>SET

