#    Name: 2e95_B75_2_INTS_M
#    Modification time : Tue Mar 25 10:44:57 2014

@<TRIPOS>MOLECULE
2e95_B75_2_INTS_M
   88     0    15     0     0
SMALL
NO_CHARGES


@<TRIPOS>ATOM
      1 CA         25.3980   35.8105   41.0585 C.3       5 GLC5        0.0000 
      2 CA         24.7870   34.0230   40.9940 C.3      15 GLL5        0.0000 
      3 CA         26.0090   37.5980   41.1230 C.3      10 GLP5        0.0000 
      4 CA         25.6525   33.1880   36.6715 C.3       5 GLC5        0.0000 
      5 CA         24.3310   32.0270   37.9270 C.3      15 GLL5        0.0000 
      6 CA         26.9740   34.3490   35.4160 C.3      10 GLP5        0.0000 
      7 CA         24.9075   32.3565   34.0565 C.3       5 GLC5        0.0000 
      8 CA         24.0820   30.4530   34.8610 C.3      15 GLL5        0.0000 
      9 CA         25.7330   34.2600   33.2520 C.3      10 GLP5        0.0000 
     10 CA         27.3180   29.1130   35.6620 C.3       5 GLC5        0.0000 
     11 CA         26.4520   30.8460   35.0600 C.3      15 GLL5        0.0000 
     12 CA         28.1840   27.3800   36.2640 C.3      10 GLP5        0.0000 
     13 CA         28.2930   29.4755   34.4090 C.3       5 GLC5        0.0000 
     14 CA         26.6710   30.2420   33.8250 C.3      15 GLL5        0.0000 
     15 CA         29.9150   28.7090   34.9930 C.3      10 GLP5        0.0000 
     16 CA         26.2020   32.2510   33.5385 C.3       5 GLC5        0.0000 
     17 CA         25.0075   28.6585   27.4070 C.3       5 GLC5        0.0000 
     18 CA         26.0040   28.2830   29.2090 C.3      15 GLL5        0.0000 
     19 CA         24.0110   29.0340   25.6050 C.3      10 GLP5        0.0000 
     20 CA         23.9660   27.9485   27.5355 C.3       5 GLC5        0.0000 
     21 CA         23.9210   26.8630   29.4660 C.3      15 GLL5        0.0000 
     22 Zn         23.0205   24.6935   27.0865 Zn        4 ZIC7        0.0000 
     23 Zn         22.4300   24.6490   27.7810 Zn       14 ZIL7        0.0000 
     24 Zn         23.6110   24.7380   26.3920 Zn        9 ZIP7        0.0000 
     25 N          21.2320   25.8230   27.5315 N.am      2 SEC2        0.0000 
     26 N          22.4300   24.6490   27.7810 N.am     12 SEL2        0.0000 
     27 N          20.0340   26.9970   27.2820 N.am      7 SEP2        0.0000 
     28 N          23.1520   22.5240   30.8750 N.am      2 SEC2        0.0000 
     29 N          22.5080   23.0480   29.8370 N.am     12 SEL2        0.0000 
     30 N          23.7960   22.0000   31.9130 N.am      7 SEP2        0.0000 
     31 NZ         20.6325   26.1440   28.6185 N.4       3 LYC4        0.0000 
     32 NZ         21.2310   25.2910   29.9550 N.4      13 LYL4        0.0000 
     33 NZ         18.9510   27.1870   28.0200 N.4       8 LYP4        0.0000 
     34 N          20.0980   26.0690   29.6340 N.am      2 SEC2        0.0000 
     35 N          21.2310   25.2910   29.9550 N.am     12 SEL2        0.0000 
     36 N          18.9650   26.8470   29.3130 N.am      7 SEP2        0.0000 
     37 N          20.6325   26.1440   28.6185 N.am      2 SEC2        0.0000 
     38 NZ         25.9190   23.0685   28.0280 N.4       3 LYC4        0.0000 
     39 NZ         25.2800   24.8040   27.4930 N.4      13 LYL4        0.0000 
     40 NZ         26.5580   21.3330   28.5630 N.4       8 LYP4        0.0000 
     41 Zn         24.4455   24.7710   26.9425 Zn        4 ZIC7        0.0000 
     42 Zn         25.2800   24.8040   27.4930 Zn       14 ZIL7        0.0000 
     43 Zn         25.8345   25.0835   26.6960 Zn        4 ZIC7        0.0000 
     44 Zn         26.3890   25.3630   25.8990 Zn        9 ZIP7        0.0000 
     45 N          26.3400   24.0545   26.6465 N.am      2 SEC2        0.0000 
     46 N          25.2800   24.8040   27.4930 N.am     12 SEL2        0.0000 
     47 N          27.4000   23.3050   25.8000 N.am      7 SEP2        0.0000 
     48 NZ         28.2505   24.7665   29.8830 N.4       3 LYC4        0.0000 
     49 NZ         26.7680   25.1170   29.5910 N.4      13 LYL4        0.0000 
     50 NZ         29.7330   24.4160   30.1750 N.4       8 LYP4        0.0000 
     51 NZ         26.6630   23.2250   29.0770 N.4       3 LYC4        0.0000 
     52 N          28.2505   24.7665   29.8830 N.am      2 SEC2        0.0000 
     53 N          26.7680   25.1170   29.5910 N.am     12 SEL2        0.0000 
     54 N          29.7330   24.4160   30.1750 N.am      7 SEP2        0.0000 
     55 NZ         25.9115   22.1870   28.9560 N.4       3 LYC4        0.0000 
     56 NZ         25.2650   23.0410   29.3490 N.4      13 LYL4        0.0000 
     57 O          23.9655   23.6150   31.6140 O.2       1 ALC1        0.0000 
     58 O          24.1350   25.2300   31.3150 O.2      11 ALL1        0.0000 
     59 O          23.7960   22.0000   31.9130 O.2       6 ALP1        0.0000 
     60 CA         22.0418   35.4287   38.4780 C.3       5 GLC5        0.0000 
     61 CA         22.3000   33.2040   38.4190 C.3      15 GLL5        0.0000 
     62 CA         21.4880   37.3580   37.9810 C.3      10 GLP5        0.0000 
     63 CA         20.5924   34.0251   39.1505 C.3       5 GLC5        0.0000 
     64 CA         22.1420   34.6210   40.3630 C.3      15 GLL5        0.0000 
     65 CA         18.8160   33.9900   38.6320 C.3      10 GLP5        0.0000 
     66 CA         22.5135   33.3445   42.2495 C.3       5 GLC5        0.0000 
     67 CA         22.5970   31.8070   43.5600 C.3      10 GLP5        0.0000 
     68 CA         21.9590   36.1200   39.4600 C.3       5 GLC5        0.0000 
     69 CA         22.7180   35.1430   41.5150 C.3      15 GLL5        0.0000 
     70 CA         24.1160   36.5930   41.7840 C.3       5 GLC5        0.0000 
     71 CA         24.8540   38.1930   41.8950 C.3      10 GLP5        0.0000 
     72 CA         22.0340   36.2298   42.2640 C.3       5 GLC5        0.0000 
     73 CA         24.0380   34.8430   41.8310 C.3      15 GLL5        0.0000 
     74 CA         20.8340   37.5970   43.1430 C.3      10 GLP5        0.0000 
     75 CA         23.4544   32.8860   42.0936 C.3       5 GLC5        0.0000 
     76 CA         24.2110   33.4970   39.8420 C.3      15 GLL5        0.0000 
     77 CA         26.4937   33.2745   39.7392 C.3       5 GLC5        0.0000 
     78 CA         28.2740   33.3580   39.7530 C.3      10 GLP5        0.0000 
     79 CA         26.3910   32.6247   35.3670 C.3       5 GLC5        0.0000 
     80 CA         25.1640   30.9550   35.5760 C.3      15 GLL5        0.0000 
     81 CA         28.2137   30.9285   30.4135 C.3       5 GLC5        0.0000 
     82 CA         26.7820   29.6920   31.0010 C.3      15 GLL5        0.0000 
     83 CA         29.5860   32.3970   30.4780 C.3      10 GLP5        0.0000 
     84 CA         28.7683   28.7990   30.4135 C.3       5 GLC5        0.0000 
     85 CA         30.6950   28.1380   30.4780 C.3      10 GLP5        0.0000 
     86 CA         22.8744   28.6125   29.9476 C.3       5 GLC5        0.0000 
     87 CA         24.8780   28.2610   31.3380 C.3      15 GLL5        0.0000 
     88 CA         21.3210   29.7780   29.8200 C.3      10 GLP5        0.0000 
@<TRIPOS>BOND
@<TRIPOS>SUBSTRUCTURE
     1 ALC1       57 GROUP        1 X    ALC  0     ROOT ALC X 1
     2 SEC2       25 GROUP        1 X    SEC  0     **** SEC X 2
     3 LYC4       31 GROUP        1 X    LYC  0     **** LYC X 4
     4 ZIC7       22 GROUP        1 X    ZIC  0     **** ZIC X 5
     5 GLC5        1 GROUP        1 X    GLC  0     **** GLC X 6
     6 ALP1       59 GROUP        1 Y    ALP  0     ROOT ALP Y 8
     7 SEP2       27 GROUP        1 Y    SEP  0     **** SEP Y 9
     8 LYP4       33 GROUP        1 Y    LYP  0     **** LYP Y 11
     9 ZIP7       24 GROUP        1 Y    ZIP  0     **** ZIP Y 12
    10 GLP5        3 GROUP        1 Y    GLP  0     **** GLP Y 13
    11 ALL1       58 GROUP        1 Z    ALL  0     ROOT ALL Z 15
    12 SEL2       26 GROUP        1 Z    SEL  0     **** SEL Z 16
    13 LYL4       32 GROUP        1 Z    LYL  0     **** LYL Z 18
    14 ZIL7       23 GROUP        1 Z    ZIL  0     **** ZIL Z 19
    15 GLL5        2 GROUP        1 Z    GLL  0     **** GLL Z 20
@<TRIPOS>SET

