#    Name: 2e95_B75_2_ligand
#    Modification time : Tue Mar 25 10:44:57 2014

@<TRIPOS>MOLECULE
2e95_B75_2_ligand
   56    59     1     0     0
SMALL
NO_CHARGES


@<TRIPOS>ATOM
      1 CAX        22.3000   33.2040   38.4190 C.ar      1 B751002     0.0000 
      2 CBG        22.8910   33.7950   39.5310 C.ar      1 B751002     0.0000 
      3 CAT        22.1420   34.6210   40.3630 C.ar      1 B751002     0.0000 
      4 CAM        22.7180   35.1430   41.5150 C.ar      1 B751002     0.0000 
      5 CAL        24.0380   34.8430   41.8310 C.ar      1 B751002     0.0000 
      6 CAS        24.7870   34.0230   40.9940 C.ar      1 B751002     0.0000 
      7 CBF        24.2110   33.4970   39.8420 C.ar      1 B751002     0.0000 
      8 CAU        24.9280   32.6220   39.0330 C.ar      1 B751002     0.0000 
      9 CAR        24.3310   32.0270   37.9270 C.ar      1 B751002     0.0000 
     10 CBE        23.0040   32.3100   37.6220 C.ar      1 B751002     0.0000 
     11 SBK        22.0680   31.4480   36.4150 S.o2      1 B751002     0.0000 
     12 OAC        21.1830   30.4730   37.1350 O.2       1 B751002     0.0000 
     13 OAD        21.1880   32.4890   35.7890 O.2       1 B751002     0.0000 
     14 NAZ        22.8060   30.6400   35.1990 N.pl3     1 B751002     0.0000 
     15 CBB        24.0820   30.4530   34.8610 C.ar      1 B751002     0.0000 
     16 CAW        24.3110   29.8380   33.6340 C.ar      1 B751002     0.0000 
     17 CAO        25.1640   30.9550   35.5760 C.ar      1 B751002     0.0000 
     18 CAK        26.4520   30.8460   35.0600 C.ar      1 B751002     0.0000 
     19 CAQ        26.6710   30.2420   33.8250 C.ar      1 B751002     0.0000 
     20 CBD        25.5940   29.7390   33.1020 C.ar      1 B751002     0.0000 
     21 CBC        25.7680   29.2150   31.8260 C.ar      1 B751002     0.0000 
     22 CAV        24.8780   28.2610   31.3380 C.ar      1 B751002     0.0000 
     23 CAP        26.7820   29.6920   31.0010 C.ar      1 B751002     0.0000 
     24 CAJ        26.9010   29.2280   29.6970 C.ar      1 B751002     0.0000 
     25 CAN        26.0040   28.2830   29.2090 C.ar      1 B751002     0.0000 
     26 CBA        24.9910   27.8010   30.0310 C.ar      1 B751002     0.0000 
     27 CAY        23.9210   26.8630   29.4660 C.3       1 B751002     0.0000 
     28 CBH        23.9970   25.3970   29.9040 C.3       1 B751002     0.0000 
     29 PBI        22.4030   24.5940   29.3830 P.3       1 B751002     0.0000 
     30 OAF        22.4300   24.6490   27.7810 O.co2     1 B751002     0.0000 
     31 OAG        22.5080   23.0480   29.8370 O.co2     1 B751002     0.0000 
     32 OAA        21.2310   25.2910   29.9550 O.co2     1 B751002     0.0000 
     33 PBJ        25.3860   24.4880   29.0670 P.3       1 B751002     0.0000 
     34 OAH        25.2800   24.8040   27.4930 O.co2     1 B751002     0.0000 
     35 OAI        26.7680   25.1170   29.5910 O.co2     1 B751002     0.0000 
     36 OAB        25.2650   23.0410   29.3490 O.co2     1 B751002     0.0000 
     37 OAE        24.1350   25.2300   31.3150 O.3       1 B751002     0.0000 
     38 H          21.3181   33.4350   38.1818 H         1 B751002     0.0000 
     39 H          21.1684   34.8435   40.1265 H         1 B751002     0.0000 
     40 H          22.1670   35.7521   42.1347 H         1 B751002     0.0000 
     41 H          24.4621   35.2283   42.6860 H         1 B751002     0.0000 
     42 H          25.7641   33.8058   41.2257 H         1 B751002     0.0000 
     43 H          25.9146   32.4119   39.2562 H         1 B751002     0.0000 
     44 H          24.8683   31.3806   37.3372 H         1 B751002     0.0000 
     45 H          22.0023   30.1891   34.5827 H         1 B751002     0.0000 
     46 H          23.5102   29.4453   33.1047 H         1 B751002     0.0000 
     47 H          25.0128   31.4075   36.4873 H         1 B751002     0.0000 
     48 H          27.2514   31.2159   35.5972 H         1 B751002     0.0000 
     49 H          27.6231   30.1682   33.4497 H         1 B751002     0.0000 
     50 H          24.1337   27.8957   31.9489 H         1 B751002     0.0000 
     51 H          27.4470   30.3925   31.3599 H         1 B751002     0.0000 
     52 H          27.6527   29.5828   29.0909 H         1 B751002     0.0000 
     53 H          26.0899   27.9423   28.2439 H         1 B751002     0.0000 
     54 H          23.9648   26.9033   28.3546 H         1 B751002     0.0000 
     55 H          22.9188   27.2627   29.7390 H         1 B751002     0.0000 
     56 H          23.9849   24.2545   31.4759 H         1 B751002     0.0000 
@<TRIPOS>BOND
     1    2    1 ar   
     2   10    1 ar   
     3   38    1 1    
     4    3    2 ar   
     5    7    2 ar   
     6    4    3 ar   
     7   39    3 1    
     8    5    4 ar   
     9   40    4 1    
    10    6    5 ar   
    11   41    5 1    
    12    7    6 ar   
    13   42    6 1    
    14    8    7 ar   
    15    9    8 ar   
    16   43    8 1    
    17   10    9 ar   
    18   44    9 1    
    19   11   10 1    
    20   12   11 2    
    21   13   11 2    
    22   14   11 1    
    23   15   14 1    
    24   45   14 1    
    25   16   15 ar   
    26   17   15 ar   
    27   20   16 ar   
    28   46   16 1    
    29   18   17 ar   
    30   47   17 1    
    31   19   18 ar   
    32   48   18 1    
    33   20   19 ar   
    34   49   19 1    
    35   21   20 1    
    36   22   21 ar   
    37   23   21 ar   
    38   26   22 ar   
    39   50   22 1    
    40   24   23 ar   
    41   51   23 1    
    42   25   24 ar   
    43   52   24 1    
    44   26   25 ar   
    45   53   25 1    
    46   27   26 1    
    47   28   27 1    
    48   54   27 1    
    49   55   27 1    
    50   29   28 1    
    51   33   28 1    
    52   37   28 1    
    53   30   29 ar   
    54   31   29 ar   
    55   32   29 ar   
    56   34   33 ar   
    57   35   33 ar   
    58   36   33 ar   
    59   56   37 1    
@<TRIPOS>SUBSTRUCTURE
     1 B751002     1 GROUP   
@<TRIPOS>SET

