#    Name: 1wkg_POI_2_INTS_M
#    Modification time : Tue Mar 25 09:05:21 2014

@<TRIPOS>MOLECULE
1wkg_POI_2_INTS_M
   86     0    12     0     0
SMALL
NO_CHARGES


@<TRIPOS>ATOM
      1 CA          7.4370    5.4375   53.7625 C.3       4 GLC5        0.0000 
      2 CA          9.2550    6.3040   54.0400 C.3      12 GLL5        0.0000 
      3 CA          5.6190    4.5710   53.4850 C.3       8 GLP5        0.0000 
      4 CA          9.8105    5.1125   55.5655 C.3       4 GLC5        0.0000 
      5 CA         10.3660    3.9210   57.0910 C.3       8 GLP5        0.0000 
      6 CA          8.8000    7.4285   52.6980 C.3       4 GLC5        0.0000 
      7 CA          8.3450    8.5530   51.3560 C.3       8 GLP5        0.0000 
      8 N          12.6355    6.4385   56.0170 N.am      1 SEC2        0.0000 
      9 N          11.1650    6.4460   55.5170 N.am      9 SEL2        0.0000 
     10 N          14.1060    6.4310   56.5170 N.am      5 SEP2        0.0000 
     11 NZ         10.2635   10.1265   58.5050 N.4       3 LYC4        0.0000 
     12 NZ         10.5120    9.8310   57.1560 N.4      11 LYL4        0.0000 
     13 NZ         11.1660   10.5080   60.5030 N.4       7 LYP4        0.0000 
     14 N          11.4145   10.1185   58.5000 N.am      1 SEC2        0.0000 
     15 N          10.5120    9.8310   57.1560 N.am      9 SEL2        0.0000 
     16 N          12.3170   10.4060   59.8440 N.am      5 SEP2        0.0000 
     17 N          10.2635   10.1265   58.5050 N.am      1 SEC2        0.0000 
     18 N          10.0150   10.4220   59.8540 N.am      5 SEP2        0.0000 
     19 NZ         11.4145   10.1185   58.5000 N.4       3 LYC4        0.0000 
     20 NZ         12.6780    9.7580   57.1820 N.4      11 LYL4        0.0000 
     21 N          12.4975   10.0820   58.5130 N.am      1 SEC2        0.0000 
     22 N          12.6780    9.7580   57.1820 N.am      9 SEL2        0.0000 
     23 CA         10.0775   10.2055   52.8800 C.3       4 GLC5        0.0000 
     24 CA         11.6690   10.4840   54.2050 C.3      12 GLL5        0.0000 
     25 CA          8.4860    9.9270   51.5550 C.3       8 GLP5        0.0000 
     26 CA         12.2955   11.8980   55.5720 C.3       4 GLC5        0.0000 
     27 CA         12.9220   13.3120   56.9390 C.3       8 GLP5        0.0000 
     28 CA         13.7370    9.2110   51.8425 C.3       4 GLC5        0.0000 
     29 CA         12.1690   10.4000   52.8070 C.3      12 GLL5        0.0000 
     30 CA         15.3050    8.0220   50.8780 C.3       8 GLP5        0.0000 
     31 CA         13.1000   11.9895   50.2515 C.3       4 GLC5        0.0000 
     32 CA         12.2460   11.6070   51.9000 C.3      12 GLL5        0.0000 
     33 CA         13.9540   12.3720   48.6030 C.3       8 GLP5        0.0000 
     34 OD1        11.2120   13.5495   52.0445 O.co2     2 ASC3        0.0000 
     35 OD1        12.9160   12.7220   52.3000 O.co2    10 ASL3        0.0000 
     36 OD1         9.5080   14.3770   51.7890 O.co2     6 ASP3        0.0000 
     37 CA         13.9825   13.3500   54.1110 C.3       4 GLC5        0.0000 
     38 CA         14.2730   12.8290   52.2880 C.3      12 GLL5        0.0000 
     39 CA         13.6920   13.8710   55.9340 C.3       8 GLP5        0.0000 
     40 CA         14.0010   15.6215   49.7070 C.3       4 GLC5        0.0000 
     41 CA         14.5670   15.1960   51.7080 C.3      12 GLL5        0.0000 
     42 CA         13.4350   16.0470   47.7060 C.3       8 GLP5        0.0000 
     43 N          12.3845   15.2160   50.1565 N.am      1 SEC2        0.0000 
     44 N          13.4260   15.2500   50.9600 N.am      9 SEL2        0.0000 
     45 N          11.3430   15.1820   49.3530 N.am      5 SEP2        0.0000 
     46 CA         16.8155   15.9145   50.4975 C.3       4 GLC5        0.0000 
     47 CA         15.3400   16.4130   51.8100 C.3      12 GLL5        0.0000 
     48 CA         18.2910   15.4160   49.1850 C.3       8 GLP5        0.0000 
     49 CA         14.7055   19.5270   51.5560 C.3       4 GLC5        0.0000 
     50 CA         14.9010   17.7080   51.1060 C.3      12 GLL5        0.0000 
     51 CA         14.5100   21.3460   52.0060 C.3       8 GLP5        0.0000 
     52 CA         14.1680   16.8775   49.4060 C.3       4 GLC5        0.0000 
     53 N          17.1610   17.4670   52.5900 N.am      1 SEC2        0.0000 
     54 N          16.5220   16.4090   52.5740 N.am      9 SEL2        0.0000 
     55 N          17.8000   18.5250   52.6060 N.am      5 SEP2        0.0000 
     56 CA         17.0140   16.3330   54.9120 C.3       4 GLC5        0.0000 
     57 CA         16.9770   15.2490   53.2420 C.3      12 GLL5        0.0000 
     58 CA         17.0510   17.4170   56.5820 C.3       8 GLP5        0.0000 
     59 CA         18.7715   12.6380   52.8920 C.3       4 GLC5        0.0000 
     60 CA         16.8720   12.8510   53.9450 C.3      12 GLL5        0.0000 
     61 CA         20.6710   12.4250   51.8390 C.3       8 GLP5        0.0000 
     62 CA         18.8705   12.7210   54.7810 C.3       4 GLC5        0.0000 
     63 CA         20.8690   12.5910   55.6170 C.3       8 GLP5        0.0000 
     64 CA         15.2820   13.3610   54.9395 C.3       4 GLC5        0.0000 
     65 CA         17.0635   13.3375   55.8625 C.3       4 GLC5        0.0000 
     66 CA         17.2550   13.8240   57.7800 C.3       8 GLP5        0.0000 
     67 N          19.5150   11.1900   54.3165 N.am      1 SEC2        0.0000 
     68 N          18.4760   10.1780   54.3820 N.am      9 SEL2        0.0000 
     69 N          20.5540   12.2020   54.2510 N.am      5 SEP2        0.0000 
     70 N          15.6610    8.4400   53.3075 N.am      1 SEC2        0.0000 
     71 N          16.1260    9.8360   53.4450 N.am      9 SEL2        0.0000 
     72 N          15.1960    7.0440   53.1700 N.am      5 SEP2        0.0000 
     73 N          15.3980    9.5415   52.3480 N.am      1 SEC2        0.0000 
     74 N          14.6700    9.2470   51.2510 N.am      5 SEP2        0.0000 
     75 N          19.5180   10.3870   51.8355 N.am      1 SEC2        0.0000 
     76 N          18.1640    9.7750   51.9610 N.am      9 SEL2        0.0000 
     77 N          20.8720   10.9990   51.7100 N.am      5 SEP2        0.0000 
     78 CA         10.7007   10.8492   51.4982 C.3       4 GLC5        0.0000 
     79 CA          9.1940   10.6950   50.6430 C.3       8 GLP5        0.0000 
     80 CA         16.3533   14.2685   50.6165 C.3       4 GLC5        0.0000 
     81 CA         15.0020   13.9940   52.3760 C.3      12 GLL5        0.0000 
     82 CA         17.9220   13.9420   49.1910 C.3       8 GLP5        0.0000 
     83 CA         14.2781   13.3379   50.3115 C.3       4 GLC5        0.0000 
     84 CA         18.1995   15.1200   52.2380 C.3       4 GLC5        0.0000 
     85 CA         16.2590   14.0550   53.1640 C.3      12 GLL5        0.0000 
     86 CA         19.7810   15.5880   51.2730 C.3       8 GLP5        0.0000 
@<TRIPOS>BOND
@<TRIPOS>SUBSTRUCTURE
     1 SEC2        8 GROUP        1 X    SEC  0     ROOT SEC X 2
     2 ASC3       34 GROUP        1 X    ASC  0     **** ASC X 3
     3 LYC4       11 GROUP        1 X    LYC  0     **** LYC X 4
     4 GLC5        1 GROUP        1 X    GLC  0     **** GLC X 6
     5 SEP2       10 GROUP        1 Y    SEP  0     ROOT SEP Y 9
     6 ASP3       36 GROUP        1 Y    ASP  0     **** ASP Y 10
     7 LYP4       13 GROUP        1 Y    LYP  0     **** LYP Y 11
     8 GLP5        3 GROUP        1 Y    GLP  0     **** GLP Y 13
     9 SEL2        9 GROUP        1 Z    SEL  0     ROOT SEL Z 16
    10 ASL3       35 GROUP        1 Z    ASL  0     **** ASL Z 17
    11 LYL4       12 GROUP        1 Z    LYL  0     **** LYL Z 18
    12 GLL5        2 GROUP        1 Z    GLL  0     **** GLL Z 20
@<TRIPOS>SET

