#    Name: 1wkg_POI_2_ligand
#    Modification time : Tue Mar 25 09:05:21 2014

@<TRIPOS>MOLECULE
1wkg_POI_2_ligand
   47    47     1     0     0
SMALL
NO_CHARGES


@<TRIPOS>ATOM
      1 CM          9.2550    6.3040   54.0400 C.3       1 POI2513     0.0000 
      2 CT         10.3660    7.0450   54.7910 C.2       1 POI2513     0.0000 
      3 OT         11.1650    6.4460   55.5170 O.2       1 POI2513     0.0000 
      4 N          10.4260    8.3980   54.6230 N.am      1 POI2513     0.0000 
      5 CA         11.6300    9.2500   55.0640 C.3       1 POI2513     0.0000 
      6 C          11.5940    9.6390   56.5670 C.2       1 POI2513     0.0000 
      7 OA         10.5120    9.8310   57.1560 O.co2     1 POI2513     0.0000 
      8 OB         12.6780    9.7580   57.1820 O.co2     1 POI2513     0.0000 
      9 CB         11.6690   10.4840   54.2050 C.3       1 POI2513     0.0000 
     10 CG         12.1690   10.4000   52.8070 C.3       1 POI2513     0.0000 
     11 CD         12.2460   11.6070   51.9000 C.3       1 POI2513     0.0000 
     12 N4         12.9160   12.7220   52.3000 N.4       1 POI2513     0.0000 
     13 C4A        14.2730   12.8290   52.2880 C.3       1 POI2513     0.0000 
     14 C4         15.0020   13.9940   52.3760 C.ar      1 POI2513     0.0000 
     15 C3         14.5670   15.1960   51.7080 C.ar      1 POI2513     0.0000 
     16 O3         13.4260   15.2500   50.9600 O.3       1 POI2513     0.0000 
     17 C2         15.3400   16.4130   51.8100 C.ar      1 POI2513     0.0000 
     18 C2A        14.9010   17.7080   51.1060 C.3       1 POI2513     0.0000 
     19 N1         16.5220   16.4090   52.5740 N.ar      1 POI2513     0.0000 
     20 C6         16.9770   15.2490   53.2420 C.ar      1 POI2513     0.0000 
     21 C5         16.2590   14.0550   53.1640 C.ar      1 POI2513     0.0000 
     22 C5A        16.8720   12.8510   53.9450 C.3       1 POI2513     0.0000 
     23 P          17.5610   10.3790   53.2360 P.3       1 POI2513     0.0000 
     24 OP1        18.4760   10.1780   54.3820 O.co2     1 POI2513     0.0000 
     25 OP2        16.1260    9.8360   53.4450 O.co2     1 POI2513     0.0000 
     26 OP3        18.1640    9.7750   51.9610 O.co2     1 POI2513     0.0000 
     27 OP4        17.4250   11.9820   52.9250 O.3       1 POI2513     0.0000 
     28 H           9.6630    8.9428   54.1863 H         1 POI2513     0.0000 
     29 H          12.5345    8.6772   54.8809 H         1 POI2513     0.0000 
     30 H          12.2684   11.2763   54.7573 H         1 POI2513     0.0000 
     31 H          10.6250   10.9334   54.1901 H         1 POI2513     0.0000 
     32 H          11.5640    9.5955   52.2558 H         1 POI2513     0.0000 
     33 H          13.2106    9.9184   52.8253 H         1 POI2513     0.0000 
     34 H          11.1571   11.8505   51.6139 H         1 POI2513     0.0000 
     35 H          12.6459   11.2142   50.8937 H         1 POI2513     0.0000 
     36 H          14.6794   12.2271   51.3410 H         1 POI2513     0.0000 
     37 H          14.7069   12.0766   53.1064 H         1 POI2513     0.0000 
     38 H          17.8468   15.2938   53.7888 H         1 POI2513     0.0000 
     39 H          16.0797   12.3806   54.4918 H         1 POI2513     0.0000 
     40 H          17.6266   13.2382   54.5998 H         1 POI2513     0.0000 
     41 H           9.6243    5.6196   53.4114 H         1 POI2513     0.0000 
     42 H           8.6392    5.8252   54.6657 H         1 POI2513     0.0000 
     43 H           8.6936    6.9283   53.4968 H         1 POI2513     0.0000 
     44 H          15.5389   18.4587   51.2778 H         1 POI2513     0.0000 
     45 H          14.8459   17.5913   50.1144 H         1 POI2513     0.0000 
     46 H          14.0002   18.0122   51.4159 H         1 POI2513     0.0000 
     47 H          12.6977   15.4556   51.6136 H         1 POI2513     0.0000 
@<TRIPOS>BOND
     1    2    1 1    
     2   41    1 1    
     3   42    1 1    
     4   43    1 1    
     5    3    2 2    
     6    4    2 am   
     7    5    4 1    
     8   28    4 1    
     9    6    5 1    
    10    9    5 1    
    11   29    5 1    
    12    7    6 ar   
    13    8    6 ar   
    14   10    9 1    
    15   30    9 1    
    16   31    9 1    
    17   11   10 1    
    18   32   10 1    
    19   33   10 1    
    20   12   11 1    
    21   34   11 1    
    22   35   11 1    
    23   13   12 1    
    24   14   13 1    
    25   36   13 1    
    26   37   13 1    
    27   15   14 ar   
    28   21   14 ar   
    29   16   15 1    
    30   17   15 ar   
    31   47   16 1    
    32   18   17 1    
    33   19   17 ar   
    34   44   18 1    
    35   45   18 1    
    36   46   18 1    
    37   20   19 ar   
    38   21   20 ar   
    39   38   20 1    
    40   22   21 1    
    41   27   22 1    
    42   39   22 1    
    43   40   22 1    
    44   24   23 ar   
    45   25   23 ar   
    46   26   23 ar   
    47   27   23 1    
@<TRIPOS>SUBSTRUCTURE
     1 POI2513     1 GROUP   
@<TRIPOS>SET

