#    Name: 3rcj_3RC_1_INTS_M
#    Modification time : Mon Apr  7 20:06:12 2014

@<TRIPOS>MOLECULE
3rcj_3RC_1_INTS_M
   54     0     6     0     0
SMALL
NO_CHARGES


@<TRIPOS>ATOM
      1 CA        -12.3115  -26.3465  -10.2265 C.3       2 GLC5        0.0000 
      2 CA        -12.8720  -26.9930   -8.5130 C.3       6 GLL5        0.0000 
      3 CA        -11.7510  -25.7000  -11.9400 C.3       4 GLP5        0.0000 
      4 CA        -11.7685  -27.9105   -6.9680 C.3       2 GLC5        0.0000 
      5 CA        -10.6650  -28.8280   -5.4230 C.3       4 GLP5        0.0000 
      6 N         -11.1780  -26.8865   -6.9825 N.am      1 SEC2        0.0000 
      7 N         -12.1740  -26.1000   -7.7970 N.am      5 SEL2        0.0000 
      8 N         -10.1820  -27.6730   -6.1680 N.am      3 SEP2        0.0000 
      9 CA        -10.5910  -25.5475   -7.2560 C.3       2 GLC5        0.0000 
     10 CA        -12.6870  -24.9130   -7.4170 C.3       6 GLL5        0.0000 
     11 CA         -8.4950  -26.1820   -7.0950 C.3       4 GLP5        0.0000 
     12 N         -15.4265  -21.1105   -5.2965 N.am      1 SEC2        0.0000 
     13 N         -15.6460  -21.1700   -6.7040 N.am      5 SEL2        0.0000 
     14 N         -15.2070  -21.0510   -3.8890 N.am      3 SEP2        0.0000 
     15 N         -16.0215  -20.8955   -5.4135 N.am      1 SEC2        0.0000 
     16 N         -16.8360  -20.7400   -6.9380 N.am      5 SEL2        0.0000 
     17 CA        -19.6460  -20.6605  -13.5440 C.3       2 GLC5        0.0000 
     18 CA        -18.9300  -19.9510  -11.5750 C.3       6 GLL5        0.0000 
     19 CA        -20.3620  -21.3700  -15.5130 C.3       4 GLP5        0.0000 
     20 CA        -17.8170  -19.2385  -13.3755 C.3       2 GLC5        0.0000 
     21 CA        -16.7040  -18.5260  -15.1760 C.3       4 GLP5        0.0000 
     22 CA        -14.3100  -25.9060  -10.7125 C.3       2 GLC5        0.0000 
     23 CA        -14.7880  -25.5030   -8.5380 C.3       6 GLL5        0.0000 
     24 CA        -14.1270  -25.6970  -12.7020 C.3       4 GLP5        0.0000 
     25 CA        -14.1785  -26.3620   -6.7002 C.3       2 GLC5        0.0000 
     26 CA        -14.1980  -26.7270   -8.9080 C.3       6 GLL5        0.0000 
     27 CA        -14.8220  -25.8640   -4.6900 C.3       4 GLP5        0.0000 
     28 CA        -13.7812  -22.9522   -9.3770 C.3       2 GLC5        0.0000 
     29 CA        -14.0290  -24.5710   -7.7790 C.3       6 GLL5        0.0000 
     30 CA        -13.4150  -22.0050  -11.2620 C.3       4 GLP5        0.0000 
     31 CA        -11.8270  -24.0315   -8.5340 C.3       2 GLC5        0.0000 
     32 CA        -10.2960  -23.3210   -9.4700 C.3       4 GLP5        0.0000 
     33 CA        -14.1849  -25.4195   -6.2389 C.3       2 GLC5        0.0000 
     34 CA        -14.8522  -24.3358   -5.9610 C.3       2 GLC5        0.0000 
     35 CA        -14.2660  -23.2280   -7.2050 C.3       6 GLL5        0.0000 
     36 CA        -15.6720  -21.4270   -9.2825 C.3       2 GLC5        0.0000 
     37 CA        -15.4990  -22.3870   -7.2590 C.3       6 GLL5        0.0000 
     38 CA        -15.2450  -20.3250  -11.0080 C.3       4 GLP5        0.0000 
     39 CA        -16.3504  -22.7361   -5.5773 C.3       2 GLC5        0.0000 
     40 CA        -16.6990  -22.6710   -7.8550 C.3       6 GLL5        0.0000 
     41 CA        -16.9100  -22.7330   -3.6110 C.3       4 GLP5        0.0000 
     42 CA        -17.0793  -20.4977  -10.4332 C.3       2 GLC5        0.0000 
     43 CA        -18.9440  -20.4530   -9.1900 C.3       6 GLL5        0.0000 
     44 CA        -18.5802  -22.0993  -12.2690 C.3       2 GLC5        0.0000 
     45 CA        -18.8830  -20.8880  -10.5270 C.3       6 GLL5        0.0000 
     46 CA        -18.2540  -23.7790  -13.4870 C.3       4 GLP5        0.0000 
     47 CA        -20.5210  -18.8518  -12.6280 C.3       2 GLC5        0.0000 
     48 CA        -22.0570  -18.4400  -13.8260 C.3       4 GLP5        0.0000 
     49 CA        -17.1150  -19.7942  -11.2190 C.3       2 GLC5        0.0000 
     50 CA        -19.0400  -18.5760  -11.2850 C.3       6 GLL5        0.0000 
     51 CA        -18.4818  -16.6623  -11.7413 C.3       2 GLC5        0.0000 
     52 CA        -17.8920  -14.9690  -12.8680 C.3       4 GLP5        0.0000 
     53 CA        -17.7886  -17.1939   -9.4666 C.3       2 GLC5        0.0000 
     54 CA        -16.5140  -15.6720   -9.1780 C.3       4 GLP5        0.0000 
@<TRIPOS>BOND
@<TRIPOS>SUBSTRUCTURE
     1 SEC2        6 GROUP        1 X    SEC  0     ROOT SEC X 2
     2 GLC5        1 GROUP        1 X    GLC  0     **** GLC X 6
     3 SEP2        8 GROUP        1 Y    SEP  0     ROOT SEP Y 9
     4 GLP5        3 GROUP        1 Y    GLP  0     **** GLP Y 13
     5 SEL2        7 GROUP        1 Z    SEL  0     ROOT SEL Z 16
     6 GLL5        2 GROUP        1 Z    GLL  0     **** GLL Z 20
@<TRIPOS>SET

