#    Name: 3rcj_3RC_1_ligand
#    Modification time : Mon Apr  7 20:06:13 2014

@<TRIPOS>MOLECULE
3rcj_3RC_1_ligand
   34    37     1     0     0
SMALL
NO_CHARGES


@<TRIPOS>ATOM
      1 C1        -14.1980  -26.7270   -8.9080 C.ar      1 3RC0        0.0000 
      2 C2        -12.8720  -26.9930   -8.5130 C.ar      1 3RC0        0.0000 
      3 N3        -12.1740  -26.1000   -7.7970 N.ar      1 3RC0        0.0000 
      4 C4        -14.7880  -25.5030   -8.5380 C.ar      1 3RC0        0.0000 
      5 C5        -14.0290  -24.5710   -7.7790 C.ar      1 3RC0        0.0000 
      6 C6        -12.6870  -24.9130   -7.4170 C.ar      1 3RC0        0.0000 
      7 N7        -12.1820  -23.8680   -6.7030 N.2       1 3RC0        0.0000 
      8 C8        -13.1110  -22.8790   -6.5800 C.2       1 3RC0        0.0000 
      9 C9        -14.2660  -23.2280   -7.2050 C.3       1 3RC0        0.0000 
     10 C10       -15.4990  -22.3870   -7.2590 C.2       1 3RC0        0.0000 
     11 N11       -15.6460  -21.1700   -6.7040 N.2       1 3RC0        0.0000 
     12 N12       -16.8360  -20.7400   -6.9380 N.2       1 3RC0        0.0000 
     13 N13       -17.4980  -21.6030   -7.6210 N.pl3     1 3RC0        0.0000 
     14 C14       -16.6990  -22.6710   -7.8550 C.2       1 3RC0        0.0000 
     15 C15       -18.8900  -21.4570   -8.0720 C.3       1 3RC0        0.0000 
     16 C16       -18.9440  -20.4530   -9.1900 C.ar      1 3RC0        0.0000 
     17 C17       -18.8830  -20.8880  -10.5270 C.ar      1 3RC0        0.0000 
     18 C18       -18.9300  -19.9510  -11.5750 C.ar      1 3RC0        0.0000 
     19 C19       -19.0400  -18.5760  -11.2850 C.ar      1 3RC0        0.0000 
     20 C20       -19.1030  -18.1350   -9.9440 C.ar      1 3RC0        0.0000 
     21 C21       -19.0550  -19.0760   -8.8960 C.ar      1 3RC0        0.0000 
     22 H         -14.7200  -27.4076   -9.4511 H         1 3RC0        0.0000 
     23 H         -12.4556  -27.9036   -8.7957 H         1 3RC0        0.0000 
     24 H         -15.7408  -25.2838   -8.8064 H         1 3RC0        0.0000 
     25 H         -12.9653  -22.0378   -6.1083 H         1 3RC0        0.0000 
     26 H         -13.7607  -22.6492   -8.4283 H         1 3RC0        0.0000 
     27 H         -16.9168  -23.4585   -8.3325 H         1 3RC0        0.0000 
     28 H         -19.5218  -21.1123   -7.2521 H         1 3RC0        0.0000 
     29 H         -19.2761  -22.4121   -8.4312 H         1 3RC0        0.0000 
     30 H         -18.8044  -21.8863  -10.7365 H         1 3RC0        0.0000 
     31 H         -18.8845  -20.2655  -12.5464 H         1 3RC0        0.0000 
     32 H         -19.0744  -17.8940  -12.0466 H         1 3RC0        0.0000 
     33 H         -19.1828  -17.1399   -9.7372 H         1 3RC0        0.0000 
     34 H         -19.1003  -18.7641   -7.9249 H         1 3RC0        0.0000 
@<TRIPOS>BOND
     1    2    1 ar   
     2    4    1 ar   
     3   22    1 1    
     4    3    2 ar   
     5   23    2 1    
     6    6    3 ar   
     7    5    4 ar   
     8   24    4 1    
     9    6    5 ar   
    10    9    5 1    
    11    7    6 1    
    12    8    7 2    
    13    9    8 1    
    14   25    8 1    
    15   10    9 1    
    16   26    9 1    
    17   11   10 1    
    18   14   10 2    
    19   12   11 2    
    20   13   12 1    
    21   14   13 1    
    22   15   13 1    
    23   27   14 1    
    24   16   15 1    
    25   28   15 1    
    26   29   15 1    
    27   17   16 ar   
    28   21   16 ar   
    29   18   17 ar   
    30   30   17 1    
    31   19   18 ar   
    32   31   18 1    
    33   20   19 ar   
    34   32   19 1    
    35   21   20 ar   
    36   33   20 1    
    37   34   21 1    
@<TRIPOS>SUBSTRUCTURE
     1 3RC0        1 GROUP   
@<TRIPOS>SET

