#    Name: 3v9y_24L_1_INTS_M
#    Modification time : Tue Mar 25 00:21:15 2014

@<TRIPOS>MOLECULE
3v9y_24L_1_INTS_M
  106     0     6     0     0
SMALL
NO_CHARGES


@<TRIPOS>ATOM
      1 CA         18.9330   50.3860   65.8030 C.3       2 GLC5        0.0000 
      2 CA         18.6560   51.8560   64.9170 C.3       6 GLL5        0.0000 
      3 CA         19.2100   48.9160   66.6890 C.3       4 GLP5        0.0000 
      4 CA         17.9700   49.7115   65.2105 C.3       2 GLC5        0.0000 
      5 CA         16.7300   50.5070   63.7320 C.3       6 GLL5        0.0000 
      6 CA         14.8420   50.8055   63.7170 C.3       2 GLC5        0.0000 
      7 CA         12.9540   51.1040   63.7020 C.3       4 GLP5        0.0000 
      8 CA         15.8275   52.4835   61.5260 C.3       2 GLC5        0.0000 
      9 CA         16.3220   50.5700   61.3490 C.3       6 GLL5        0.0000 
     10 CA         15.3330   54.3970   61.7030 C.3       4 GLP5        0.0000 
     11 CA         14.3215   49.4780   59.1430 C.3       2 GLC5        0.0000 
     12 CA         14.2870   47.9200   60.7320 C.3       6 GLL5        0.0000 
     13 CA         14.3560   51.0360   57.5540 C.3       4 GLP5        0.0000 
     14 CA         10.9780   46.2525   63.2505 C.3       2 GLC5        0.0000 
     15 CA         12.5750   46.2380   62.1550 C.3       6 GLL5        0.0000 
     16 CA          9.3810   46.2670   64.3460 C.3       4 GLP5        0.0000 
     17 CA         18.2445   46.0825   63.1590 C.3       2 GLC5        0.0000 
     18 CA         17.0400   47.4030   62.4540 C.3       6 GLL5        0.0000 
     19 CA         19.4490   44.7620   63.8640 C.3       4 GLP5        0.0000 
     20 CA         16.4280   45.5505   62.0150 C.3       2 GLC5        0.0000 
     21 CA         15.8160   43.6980   61.5760 C.3       4 GLP5        0.0000 
     22 N          14.6075   48.9620   66.0220 N.am      1 SEC2        0.0000 
     23 N          15.3580   48.8250   64.8840 N.am      5 SEL2        0.0000 
     24 N          13.8570   49.0990   67.1600 N.am      3 SEP2        0.0000 
     25 N          15.5995   48.4115   66.1860 N.am      1 SEC2        0.0000 
     26 N          15.8410   47.9980   67.4880 N.am      3 SEP2        0.0000 
     27 CA          9.9005   45.5425   62.4590 C.3       2 GLC5        0.0000 
     28 CA         10.4200   44.8180   60.5720 C.3       6 GLL5        0.0000 
     29 CA          9.8360   46.6735   60.6005 C.3       2 GLC5        0.0000 
     30 CA          9.2520   48.5290   60.6290 C.3       4 GLP5        0.0000 
     31 CA         10.8020   43.4595   59.0775 C.3       2 GLC5        0.0000 
     32 CA         11.1840   42.1010   57.5830 C.3       4 GLP5        0.0000 
     33 CA         10.9010   43.7570   62.0575 C.3       2 GLC5        0.0000 
     34 CA         11.3820   42.6960   63.5430 C.3       4 GLP5        0.0000 
     35 CA          9.3840   43.4545   60.4895 C.3       2 GLC5        0.0000 
     36 CA          8.3480   42.0910   60.4070 C.3       4 GLP5        0.0000 
     37 CA         12.8980   49.3775   56.5255 C.3       2 GLC5        0.0000 
     38 CA         11.2860   48.3590   56.8860 C.3       6 GLL5        0.0000 
     39 CA         14.5100   50.3960   56.1650 C.3       4 GLP5        0.0000 
     40 CA         11.1285   47.5180   55.1685 C.3       2 GLC5        0.0000 
     41 CA         10.9710   46.6770   53.4510 C.3       4 GLP5        0.0000 
     42 CA          5.4110   49.0350   55.9705 C.3       2 GLC5        0.0000 
     43 CA          7.0030   49.1310   56.9100 C.3       6 GLL5        0.0000 
     44 CA          3.8190   48.9390   55.0310 C.3       4 GLP5        0.0000 
     45 CA          6.0135   45.4070   55.5505 C.3       2 GLC5        0.0000 
     46 CA          7.0720   45.4270   57.1480 C.3       6 GLL5        0.0000 
     47 CA          4.9550   45.3870   53.9530 C.3       4 GLP5        0.0000 
     48 CA          9.8160   43.6395   57.3610 C.3       2 GLC5        0.0000 
     49 CA          8.4480   45.1780   57.1390 C.3       6 GLL5        0.0000 
     50 CA          8.3980   43.6345   58.7730 C.3       2 GLC5        0.0000 
     51 CA          9.3045   47.3810   58.8415 C.3       2 GLC5        0.0000 
     52 CA          9.3570   46.2330   57.0540 C.3       6 GLL5        0.0000 
     53 CA          8.9235   54.1460   59.3255 C.3       2 GLC5        0.0000 
     54 CA          7.1710   53.6670   58.2790 C.3       6 GLL5        0.0000 
     55 CA         10.6760   54.6250   60.3720 C.3       4 GLP5        0.0000 
     56 CA          8.9520   54.1780   57.1945 C.3       2 GLC5        0.0000 
     57 CA         10.7330   54.6890   56.1100 C.3       4 GLP5        0.0000 
     58 CA          7.7975   55.7185   58.6170 C.3       2 GLC5        0.0000 
     59 CA          8.4240   57.7700   58.9550 C.3       4 GLP5        0.0000 
     60 N           8.7015   54.0885   55.9955 N.am      1 SEC2        0.0000 
     61 N           7.4700   54.6380   56.0820 N.am      5 SEL2        0.0000 
     62 N           9.9330   53.5390   55.9090 N.am      3 SEP2        0.0000 
     63 N           7.1520   55.5440   54.9655 N.am      1 SEC2        0.0000 
     64 N           6.8340   56.4500   53.8490 N.am      3 SEP2        0.0000 
     65 N           5.0275   55.9320   56.2800 N.am      1 SEC2        0.0000 
     66 N           5.5990   55.2330   57.2740 N.am      5 SEL2        0.0000 
     67 N           4.4560   56.6310   55.2860 N.am      3 SEP2        0.0000 
     68 N           4.4760   54.6610   56.3955 N.am      1 SEC2        0.0000 
     69 N           3.3530   54.0890   55.5170 N.am      3 SEP2        0.0000 
     70 CA         15.2117   50.4870   59.4410 C.3       2 GLC5        0.0000 
     71 CA         15.8130   49.3060   61.3070 C.3       6 GLL5        0.0000 
     72 CA         14.5114   50.4020   62.6659 C.3       2 GLC5        0.0000 
     73 CA         13.5343   49.1575   63.0655 C.3       2 GLC5        0.0000 
     74 CA         14.5420   47.6310   62.0720 C.3       6 GLL5        0.0000 
     75 CA         13.0840   44.8272   63.2803 C.3       2 GLC5        0.0000 
     76 CA         13.6870   46.7910   62.7860 C.3       6 GLL5        0.0000 
     77 CA         13.0370   43.1400   64.0900 C.3       4 GLP5        0.0000 
     78 CA         14.5804   45.2113   61.9340 C.3       2 GLC5        0.0000 
     79 CA         13.7950   45.6391   59.7459 C.3       2 GLC5        0.0000 
     80 CA         12.3020   46.5180   60.7960 C.3       6 GLL5        0.0000 
     81 CA         14.5740   44.1940   58.8960 C.3       4 GLP5        0.0000 
     82 CA         11.0289   47.7043   60.6981 C.3       2 GLC5        0.0000 
     83 CA         13.1730   47.3810   60.0590 C.3       6 GLL5        0.0000 
     84 CA          9.8908   48.5113   58.7590 C.3       2 GLC5        0.0000 
     85 CA          7.8840   47.8528   55.1857 C.3       2 GLC5        0.0000 
     86 CA          7.4710   47.8120   56.9870 C.3       6 GLL5        0.0000 
     87 CA          8.5310   47.2340   53.4230 C.3       4 GLP5        0.0000 
     88 CA          5.9947   47.0902   55.5583 C.3       2 GLC5        0.0000 
     89 CA          6.5800   46.7350   57.0720 C.3       6 GLL5        0.0000 
     90 CA          4.9640   46.9070   54.0870 C.3       4 GLP5        0.0000 
     91 CA          8.4203   48.4686   58.7875 C.3       2 GLC5        0.0000 
     92 CA          8.9992   50.1910   58.6553 C.3       2 GLC5        0.0000 
     93 CA          9.2870   49.9360   56.8160 C.3       6 GLL5        0.0000 
     94 CA          9.3970   50.3200   60.4900 C.3       4 GLP5        0.0000 
     95 CA          8.9185   48.1244   55.1491 C.3       2 GLC5        0.0000 
     96 CA          7.6785   46.6575   55.2665 C.3       2 GLC5        0.0000 
     97 CA          6.5429   46.3761   58.9389 C.3       2 GLC5        0.0000 
     98 CA          6.0370   46.4020   60.7890 C.3       4 GLP5        0.0000 
     99 CA          8.7167   46.4698   55.2598 C.3       2 GLC5        0.0000 
    100 CA          8.4187   44.4999   55.6144 C.3       2 GLC5        0.0000 
    101 CA          8.2790   43.2320   54.1300 C.3       4 GLP5        0.0000 
    102 CA          8.2602   51.1165   58.9403 C.3       2 GLC5        0.0000 
    103 CA          7.4170   51.6420   56.7340 C.3       6 GLL5        0.0000 
    104 CA          5.5541   52.2080   58.5029 C.3       2 GLC5        0.0000 
    105 CA          6.8300   52.1840   58.0470 C.3       6 GLL5        0.0000 
    106 CA          3.9610   51.6260   59.1710 C.3       4 GLP5        0.0000 
@<TRIPOS>BOND
@<TRIPOS>SUBSTRUCTURE
     1 SEC2       22 GROUP        1 X    SEC  0     ROOT SEC X 2
     2 GLC5        1 GROUP        1 X    GLC  0     **** GLC X 6
     3 SEP2       24 GROUP        1 Y    SEP  0     ROOT SEP Y 9
     4 GLP5        3 GROUP        1 Y    GLP  0     **** GLP Y 13
     5 SEL2       23 GROUP        1 Z    SEL  0     ROOT SEL Z 16
     6 GLL5        2 GROUP        1 Z    GLL  0     **** GLL Z 20
@<TRIPOS>SET

