#    Name: 3v9y_24L_1_ligand
#    Modification time : Tue Mar 25 00:21:15 2014

@<TRIPOS>MOLECULE
3v9y_24L_1_ligand
   69    73     1     0     0
SMALL
NO_CHARGES


@<TRIPOS>ATOM
      1 C1         18.6560   51.8560   64.9170 C.3       1 24L501      0.0000 
      2 C2         17.3380   51.0780   65.0030 C.2       1 24L501      0.0000 
      3 O3         16.7740   50.9280   66.0830 O.2       1 24L501      0.0000 
      4 C4         16.7300   50.5070   63.7320 C.2       1 24L501      0.0000 
      5 C5         15.8870   49.1970   63.8430 C.2       1 24L501      0.0000 
      6 C6         15.8180   48.3540   62.5140 C.3       1 24L501      0.0000 
      7 C7         15.8130   49.3060   61.3070 C.2       1 24L501      0.0000 
      8 C8         16.3220   50.5700   61.3490 C.2       1 24L501      0.0000 
      9 C9         16.8750   51.0760   62.4890 C.2       1 24L501      0.0000 
     10 O10        15.2430   48.7710   60.1910 O.3       1 24L501      0.0000 
     11 C11        14.2870   47.9200   60.7320 C.ar      1 24L501      0.0000 
     12 C12        14.5420   47.6310   62.0720 C.ar      1 24L501      0.0000 
     13 C13        13.6870   46.7910   62.7860 C.ar      1 24L501      0.0000 
     14 C14        12.5750   46.2380   62.1550 C.ar      1 24L501      0.0000 
     15 C15        12.3020   46.5180   60.7960 C.ar      1 24L501      0.0000 
     16 C16        13.1730   47.3810   60.0590 C.ar      1 24L501      0.0000 
     17 C17        17.0400   47.4030   62.4540 C.3       1 24L501      0.0000 
     18 O18        15.3580   48.8250   64.8840 O.2       1 24L501      0.0000 
     19 O19        17.6080   52.2250   62.3490 O.co2     1 24L501      0.0000 
     20 O20        13.9180   46.4930   64.1020 O.3       1 24L501      0.0000 
     21 O21        11.1870   45.9710   60.1410 O.3       1 24L501      0.0000 
     22 C22        10.4200   44.8180   60.5720 C.3       1 24L501      0.0000 
     23 C23        13.0080   47.7780   58.5890 C.2       1 24L501      0.0000 
     24 O24        13.8690   47.5260   57.7480 O.2       1 24L501      0.0000 
     25 N25        11.9000   48.4400   58.2210 N.am      1 24L501      0.0000 
     26 C26        11.2860   48.3590   56.8860 C.3       1 24L501      0.0000 
     27 C27         9.7730   48.6280   56.8920 C.ar      1 24L501      0.0000 
     28 C28         8.8770   47.5590   56.9770 C.ar      1 24L501      0.0000 
     29 C29         7.4710   47.8120   56.9870 C.ar      1 24L501      0.0000 
     30 C30         7.0030   49.1310   56.9100 C.ar      1 24L501      0.0000 
     31 C31         7.9160   50.1880   56.8250 C.ar      1 24L501      0.0000 
     32 C32         9.2870   49.9360   56.8160 C.ar      1 24L501      0.0000 
     33 C33         6.5800   46.7350   57.0720 C.ar      1 24L501      0.0000 
     34 C34         7.0720   45.4270   57.1480 C.ar      1 24L501      0.0000 
     35 C35         8.4480   45.1780   57.1390 C.ar      1 24L501      0.0000 
     36 C36         9.3570   46.2330   57.0540 C.ar      1 24L501      0.0000 
     37 C37         7.4170   51.6420   56.7340 C.3       1 24L501      0.0000 
     38 C38         6.8300   52.1840   58.0470 C.3       1 24L501      0.0000 
     39 C39         7.1710   53.6670   58.2790 C.3       1 24L501      0.0000 
     40 C40         6.6410   54.5900   57.1720 C.2       1 24L501      0.0000 
     41 O41         7.4700   54.6380   56.0820 O.co2     1 24L501      0.0000 
     42 O42         5.5990   55.2330   57.2740 O.co2     1 24L501      0.0000 
     43 H          16.2881   51.1653   60.4886 H         1 24L501      0.0000 
     44 H          11.9397   45.6179   62.6754 H         1 24L501      0.0000 
     45 H          11.3963   49.0753   58.8982 H         1 24L501      0.0000 
     46 H          11.4507   47.3586   56.4454 H         1 24L501      0.0000 
     47 H          11.7570   49.0865   56.1997 H         1 24L501      0.0000 
     48 H           5.9972   49.3192   56.9160 H         1 24L501      0.0000 
     49 H           9.9513   50.7227   56.7526 H         1 24L501      0.0000 
     50 H           5.5698   46.9046   57.0785 H         1 24L501      0.0000 
     51 H           6.4115   44.6377   57.2114 H         1 24L501      0.0000 
     52 H           8.7912   44.2091   57.1955 H         1 24L501      0.0000 
     53 H          10.3616   46.0561   57.0470 H         1 24L501      0.0000 
     54 H           6.6499   51.7047   55.9480 H         1 24L501      0.0000 
     55 H           8.2545   52.2853   56.4257 H         1 24L501      0.0000 
     56 H           7.2197   51.5948   58.8824 H         1 24L501      0.0000 
     57 H           5.7423   52.0685   58.0264 H         1 24L501      0.0000 
     58 H           8.2608   53.7746   58.3426 H         1 24L501      0.0000 
     59 H           6.7472   53.9822   59.2404 H         1 24L501      0.0000 
     60 H          19.3717   51.4371   65.4759 H         1 24L501      0.0000 
     61 H          19.0024   51.8973   63.9798 H         1 24L501      0.0000 
     62 H          18.5519   52.7991   65.2328 H         1 24L501      0.0000 
     63 H          17.9037   47.9069   62.4664 H         1 24L501      0.0000 
     64 H          17.0577   46.7717   63.2294 H         1 24L501      0.0000 
     65 H          17.0372   46.8466   61.6231 H         1 24L501      0.0000 
     66 H          10.9850   43.9945   60.6242 H         1 24L501      0.0000 
     67 H          10.0189   44.9562   61.4775 H         1 24L501      0.0000 
     68 H           9.6669   44.6175   59.9453 H         1 24L501      0.0000 
     69 H          14.4525   47.2625   64.4515 H         1 24L501      0.0000 
@<TRIPOS>BOND
     1    2    1 1    
     2   60    1 1    
     3   61    1 1    
     4   62    1 1    
     5    3    2 2    
     6    4    2 1    
     7    5    4 1    
     8    9    4 2    
     9    6    5 1    
    10   18    5 2    
    11    7    6 1    
    12   12    6 1    
    13   17    6 1    
    14    8    7 2    
    15   10    7 1    
    16    9    8 1    
    17   43    8 1    
    18   19    9 ar   
    19   11   10 1    
    20   12   11 ar   
    21   16   11 ar   
    22   13   12 ar   
    23   14   13 ar   
    24   20   13 1    
    25   15   14 ar   
    26   44   14 1    
    27   16   15 ar   
    28   21   15 1    
    29   23   16 1    
    30   63   17 1    
    31   64   17 1    
    32   65   17 1    
    33   69   20 1    
    34   22   21 1    
    35   66   22 1    
    36   67   22 1    
    37   68   22 1    
    38   24   23 2    
    39   25   23 am   
    40   26   25 1    
    41   45   25 1    
    42   27   26 1    
    43   46   26 1    
    44   47   26 1    
    45   28   27 ar   
    46   32   27 ar   
    47   29   28 ar   
    48   36   28 ar   
    49   30   29 ar   
    50   33   29 ar   
    51   31   30 ar   
    52   48   30 1    
    53   32   31 ar   
    54   37   31 1    
    55   49   32 1    
    56   34   33 ar   
    57   50   33 1    
    58   35   34 ar   
    59   51   34 1    
    60   36   35 ar   
    61   52   35 1    
    62   53   36 1    
    63   38   37 1    
    64   54   37 1    
    65   55   37 1    
    66   39   38 1    
    67   56   38 1    
    68   57   38 1    
    69   40   39 1    
    70   58   39 1    
    71   59   39 1    
    72   41   40 ar   
    73   42   40 ar   
@<TRIPOS>SUBSTRUCTURE
     1 24L501      1 GROUP   
@<TRIPOS>SET

