#    Name: 3Q2K_1_CAVITY_N1_6.mol2
#    Modification time : Mon Mar 10 16:12:52 2014

@<TRIPOS>MOLECULE
3Q2K_1_CAVITY_N1_6.mol2
  138     0     6     0     0
SMALL
NO_CHARGES


@<TRIPOS>ATOM
      1 DU          5.9090   30.7207   34.8994 H         6 CUB7        0.0000 
      2 N           4.6701   31.3231   35.4928 N.2       2 ALA2        0.0000 
      3 N           3.4312   31.9256   36.0863 N.2       2 ALA2        0.0000 
      4 N           2.1923   32.5280   36.6797 N.2       2 ALA2        0.0000 
      5 N           0.9534   33.1305   37.2732 N.2       2 ALA2        0.0000 
      6 N           0.8726   37.9421   36.0113 N.2       2 ALA2        0.0000 
      7 O           5.2397   34.1621   33.8000 O.2       2 ALA2        0.0000 
      8 DU          4.0008   34.7646   34.3934 H         6 CUB7        0.0000 
      9 CZ          5.2828   32.2882   32.0009 C.ar      4 PHE5        0.0000 
     10 DU          4.0439   32.8906   32.5944 H         6 CUB7        0.0000 
     11 DU          2.8050   33.4931   33.1878 H         6 CUB7        0.0000 
     12 CA          1.5661   34.0955   33.7813 C.3       5 GLY6        0.0000 
     13 O          10.0902   36.9690   33.4938 O.2       2 ALA2        0.0000 
     14 O           8.8513   37.5715   34.0872 O.2       2 ALA2        0.0000 
     15 N          -2.0213   30.2810   30.1646 N.2       2 ALA2        0.0000 
     16 N          -3.2602   30.8835   30.7580 N.2       2 ALA2        0.0000 
     17 CZ          2.8481   31.6191   31.3888 C.ar      4 PHE5        0.0000 
     18 CZ          1.6092   32.2216   31.9823 C.ar      4 PHE5        0.0000 
     19 O           0.3703   32.8240   32.5757 O.2       2 ALA2        0.0000 
     20 O          -0.8497   31.9577   34.6996 O.2       2 ALA2        0.0000 
     21 O           2.2596   30.2490   31.5512 O.2       2 ALA2        0.0000 
     22 N           1.0207   30.8514   32.1447 N.2       2 ALA2        0.0000 
     23 N          -0.2182   31.4539   32.7381 N.2       2 ALA2        0.0000 
     24 O          -1.4570   32.0563   33.3316 O.2       2 ALA2        0.0000 
     25 O           7.6932   33.3623   35.9425 O.2       2 ALA2        0.0000 
     26 O           6.4543   33.9648   36.5360 O.2       2 ALA2        0.0000 
     27 O           3.9765   35.1697   37.7229 O.2       2 ALA2        0.0000 
     28 CA          2.7376   35.7721   38.3163 C.3       5 GLY6        0.0000 
     29 N           1.4987   36.3746   38.9098 N.2       2 ALA2        0.0000 
     30 CZ          6.5163   30.6220   36.2674 C.ar      4 PHE5        0.0000 
     31 CA          7.1479   30.1182   34.3059 C.3       5 GLY6        0.0000 
     32 CZ          5.2640   33.7570   30.4705 C.ar      4 PHE5        0.0000 
     33 OG          4.0251   34.3594   31.0639 O.2       1 SER1        0.0000 
     34 OG          2.7862   34.9619   31.6574 O.2       1 SER1        0.0000 
     35 O          10.1091   35.5002   35.0242 O.2       2 ALA2        0.0000 
     36 OD1         8.8702   36.1026   35.6176 O.3       3 ASP3        0.0000 
     37 CZ         10.0659   37.3741   36.8232 C.ar      4 PHE5        0.0000 
     38 N           6.5594   28.7481   34.4683 N.2       2 ALA2        0.0000 
     39 N           5.3205   29.3505   35.0618 N.2       2 ALA2        0.0000 
     40 N          10.6787   38.3392   33.3313 N.2       2 ALA2        0.0000 
     41 OD1         3.3018   37.5474   41.4833 O.3       3 ASP3        0.0000 
     42 CZ         11.8933   38.1418   36.0673 C.ar      4 PHE5        0.0000 
     43 O           6.4355   35.4336   35.0055 O.2       2 ALA2        0.0000 
     44 O           5.1966   36.0360   35.5990 O.2       2 ALA2        0.0000 
     45 O           3.9577   36.6385   36.1924 O.2       2 ALA2        0.0000 
     46 DU          2.7188   37.2409   36.7859 H         6 CUB7        0.0000 
     47 CZ          1.4799   37.8434   37.3793 C.ar      4 PHE5        0.0000 
     48 CA          4.1059   29.5479   32.3258 C.3       5 GLY6        0.0000 
     49 N           2.8670   30.1503   32.9192 N.2       2 ALA2        0.0000 
     50 O           1.6281   30.7528   33.5127 O.2       2 ALA2        0.0000 
     51 O           0.3892   31.3552   34.1061 O.2       2 ALA2        0.0000 
     52 DU         11.2672   39.7093   33.1689 H         6 CUB7        0.0000 
     53 OG          9.5583   31.1924   38.2475 O.2       1 SER1        0.0000 
     54 N          -2.6528   30.7848   32.1260 N.2       2 ALA2        0.0000 
     55 CA         -3.8917   31.3873   32.7195 C.3       5 GLY6        0.0000 
     56 CA         10.6975   36.8703   34.8618 C.3       5 GLY6        0.0000 
     57 O           9.4586   37.4728   35.4552 O.2       2 ALA2        0.0000 
     58 OG          9.5394   32.6612   36.7171 O.2       1 SER1        0.0000 
     59 O           8.3005   33.2637   37.3105 O.2       2 ALA2        0.0000 
     60 CA          3.3449   35.6735   39.6843 C.3       5 GLY6        0.0000 
     61 O           8.2628   36.2013   34.2496 O.2       2 ALA2        0.0000 
     62 O           5.8282   35.5323   33.6375 O.2       2 ALA2        0.0000 
     63 DU          4.5893   36.1347   34.2310 H         6 CUB7        0.0000 
     64 DU          3.3504   36.7372   34.8244 H         6 CUB7        0.0000 
     65 O           5.8901   32.1895   33.3689 O.2       2 ALA2        0.0000 
     66 DU          4.6512   32.7920   33.9624 H         6 CUB7        0.0000 
     67 DU          3.4123   33.3944   34.5558 H         6 CUB7        0.0000 
     68 N           2.1734   33.9969   35.1493 N.2       2 ALA2        0.0000 
     69 CZ          9.4775   36.0040   36.9857 C.ar      4 PHE5        0.0000 
     70 O           8.2817   34.7325   35.7801 O.2       2 ALA2        0.0000 
     71 O           3.3261   37.1423   38.1539 O.2       2 ALA2        0.0000 
     72 O           2.0872   37.7447   38.7473 O.2       2 ALA2        0.0000 
     73 CZ          0.8483   38.3472   39.3408 C.ar      4 PHE5        0.0000 
     74 CA          2.2408   31.7178   30.0208 C.3       5 GLY6        0.0000 
     75 CZ          1.0019   32.3202   30.6143 C.ar      4 PHE5        0.0000 
     76 CZ         -0.2370   32.9227   31.2077 C.ar      4 PHE5        0.0000 
     77 O          -2.0644   32.1550   31.9636 O.2       2 ALA2        0.0000 
     78 N          -3.3033   32.7574   32.5570 N.2       2 ALA2        0.0000 
     79 CA         -0.1939   31.0488   29.4087 C.3       5 GLY6        0.0000 
     80 CA          3.3881   33.7995   37.8853 C.3       5 GLY6        0.0000 
     81 CA          2.1492   34.4020   38.4787 C.3       5 GLY6        0.0000 
     82 O           6.4974   32.0908   34.7369 O.2       2 ALA2        0.0000 
     83 O           5.8470   34.0634   35.1680 O.2       2 ALA2        0.0000 
     84 O           4.6081   34.6659   35.7614 O.2       2 ALA2        0.0000 
     85 DU          3.3692   35.2683   36.3549 H         6 CUB7        0.0000 
     86 N           2.1303   35.8708   36.9483 N.2       2 ALA2        0.0000 
     87 CZ          2.8293   33.0879   29.8584 C.ar      4 PHE5        0.0000 
     88 N          -1.4328   31.6512   30.0021 N.2       2 ALA2        0.0000 
     89 CA         -2.6717   32.2537   30.5956 C.3       5 GLY6        0.0000 
     90 N          10.0714   38.4378   31.9633 N.2       2 ALA2        0.0000 
     91 CA          5.9521   28.8468   33.1003 C.3       5 GLY6        0.0000 
     92 N           4.7132   29.4492   33.6938 N.2       2 ALA2        0.0000 
     93 N           3.4743   30.0516   34.2872 N.2       2 ALA2        0.0000 
     94 O           8.3437   31.3897   35.5115 O.2       2 ALA2        0.0000 
     95 O           7.1048   31.9922   36.1049 O.2       2 ALA2        0.0000 
     96 CZ          5.8659   32.5946   36.6984 C.ar      4 PHE5        0.0000 
     97 CZ          4.6270   33.1971   37.2918 C.ar      4 PHE5        0.0000 
     98 N           7.7552   30.0196   35.6739 N.2       2 ALA2        0.0000 
     99 N           2.2785   28.7802   33.0817 N.2       2 ALA2        0.0000 
    100 CZ          6.5405   30.2169   32.9379 C.ar      4 PHE5        0.0000 
    101 CZ          5.3016   30.8194   33.5314 C.ar      4 PHE5        0.0000 
    102 N           4.0628   31.4218   34.1248 N.2       2 ALA2        0.0000 
    103 N           2.8239   32.0243   34.7183 N.2       2 ALA2        0.0000 
    104 N           1.5850   32.6267   35.3117 N.2       2 ALA2        0.0000 
    105 N           0.3461   33.2291   35.9052 N.2       2 ALA2        0.0000 
    106 O           1.6523   30.3476   30.1832 O.2       2 ALA2        0.0000 
    107 N           0.4134   30.9501   30.7767 N.2       2 ALA2        0.0000 
    108 N          -0.8255   31.5525   31.3701 N.2       2 ALA2        0.0000 
    109 DU         11.2860   38.2405   34.6993 H         6 CUB7        0.0000 
    110 O           8.8890   34.6338   37.1481 O.2       2 ALA2        0.0000 
    111 O           3.9334   37.0436   39.5219 O.2       2 ALA2        0.0000 
    112 O           2.6945   37.6461   40.1153 O.2       2 ALA2        0.0000 
    113 CZ          4.6943   30.9180   32.1634 C.ar      4 PHE5        0.0000 
    114 CZ          3.4554   31.5205   32.7568 C.ar      4 PHE5        0.0000 
    115 DU          2.2165   32.1229   33.3503 H         6 CUB7        0.0000 
    116 CA          0.9776   32.7254   33.9437 C.3       5 GLY6        0.0000 
    117 CA         -0.2613   33.3278   34.5372 C.3       5 GLY6        0.0000 
    118 CA          2.7619   35.3670   34.9869 C.3       5 GLY6        0.0000 
    119 N           1.5230   35.9695   35.5803 N.2       2 ALA2        0.0000 
    120 CZ          7.1236   30.5234   37.6354 C.ar      4 PHE5        0.0000 
    121 OG          5.2208   35.6309   32.2695 O.2       1 SER1        0.0000 
    122 OG          3.9819   36.2334   32.8630 O.2       1 SER1        0.0000 
    123 DU          5.2585   32.6933   35.3304 H         6 CUB7        0.0000 
    124 CZ          4.0196   33.2957   35.9238 C.ar      4 PHE5        0.0000 
    125 DU          2.7807   33.8982   36.5173 H         6 CUB7        0.0000 
    126 N           1.5418   34.5006   37.1107 N.2       2 ALA2        0.0000 
    127 CZ          3.4366   32.9893   31.2264 C.ar      4 PHE5        0.0000 
    128 CZ          2.1977   33.5917   31.8198 C.ar      4 PHE5        0.0000 
    129 CA          0.9588   34.1942   32.4133 C.3       5 GLY6        0.0000 
    130 CA         -2.0455   30.6862   33.4940 C.3       5 GLY6        0.0000 
    131 O           5.8713   33.6583   31.8385 O.2       2 ALA2        0.0000 
    132 DU          4.6324   34.2608   32.4320 H         6 CUB7        0.0000 
    133 DU          3.3935   34.8632   33.0254 H         6 CUB7        0.0000 
    134 CA          2.1546   35.4657   33.6189 C.3       5 GLY6        0.0000 
    135 CZ          2.1357   36.9345   32.0884 C.ar      4 PHE5        0.0000 
    136 O           3.9146   38.5124   37.9915 O.2       2 ALA2        0.0000 
    137 OG          8.9510   31.2911   36.8795 O.2       1 SER1        0.0000 
    138 CZ          7.7121   31.8935   37.4729 C.ar      4 PHE5        0.0000 
@<TRIPOS>BOND
@<TRIPOS>SUBSTRUCTURE
     1 SER1       33 GROUP   
     2 ALA2        2 GROUP   
     3 ASP3       36 GROUP   
     4 PHE5        9 GROUP   
     5 GLY6       12 GROUP   
     6 CUB7        1 GROUP   
@<TRIPOS>SET

