#    Name: 3q2k_HP7_1_INTS_M
#    Modification time : Tue Mar 25 08:48:16 2014

@<TRIPOS>MOLECULE
3q2k_HP7_1_INTS_M
   62     0    12     0     0
SMALL
NO_CHARGES


@<TRIPOS>ATOM
      1 N           9.6825   38.7570   27.4270 N.am      2 SEC2        0.0000 
      2 N           9.5240   39.2480   28.7610 N.am     10 SEL2        0.0000 
      3 N           9.8410   38.2660   26.0930 N.am      6 SEP2        0.0000 
      4 NZ          9.4205   32.7480   34.2565 N.4       3 LYC4        0.0000 
      5 NZ          9.9600   32.1660   35.5800 N.4      11 LYL4        0.0000 
      6 NZ         10.0400   33.9360   32.7100 N.4       7 LYP4        0.0000 
      7 N          10.5195   32.9340   34.5455 N.am      2 SEC2        0.0000 
      8 N           9.9600   32.1660   35.5800 N.am     10 SEL2        0.0000 
      9 N          11.0790   33.7020   33.5110 N.am      6 SEP2        0.0000 
     10 N           9.4205   32.7480   34.2565 N.am      2 SEC2        0.0000 
     11 N           8.8810   33.3300   32.9330 N.am      6 SEP2        0.0000 
     12 N          11.1190   31.2405   35.2380 N.am      2 SEC2        0.0000 
     13 N          12.2780   30.3150   34.8960 N.am      6 SEP2        0.0000 
     14 N          10.8335   32.0625   37.5635 N.am      2 SEC2        0.0000 
     15 N           9.4780   32.1580   37.6780 N.am     10 SEL2        0.0000 
     16 N          12.1890   31.9670   37.4490 N.am      6 SEP2        0.0000 
     17 CA         11.6255   36.2160   33.6045 C.3       4 GLC5        0.0000 
     18 CA         10.8660   38.0830   33.8170 C.3      12 GLL5        0.0000 
     19 CA         12.3850   34.3490   33.3920 C.3       8 GLP5        0.0000 
     20 O           3.2620   30.1040   35.8440 O.2       1 ALC1        0.0000 
     21 O           4.0740   30.4190   34.6820 O.2       9 ALL1        0.0000 
     22 O           2.4500   29.7890   37.0060 O.2       5 ALP1        0.0000 
     23 NZ          6.3125   37.5255   36.9330 N.4       3 LYC4        0.0000 
     24 NZ          6.1190   37.2510   35.7630 N.4      11 LYL4        0.0000 
     25 NZ          6.9580   36.8950   38.9600 N.4       7 LYP4        0.0000 
     26 N           6.3125   37.5255   36.9330 N.am      2 SEC2        0.0000 
     27 N           6.1190   37.2510   35.7630 N.am     10 SEL2        0.0000 
     28 N           6.5060   37.8000   38.1030 N.am      6 SEP2        0.0000 
     29 NZ          5.5430   35.1615   37.9370 N.4       3 LYC4        0.0000 
     30 NZ          4.4390   34.7160   37.0580 N.4      11 LYL4        0.0000 
     31 N           5.5430   35.1615   37.9370 N.am      2 SEC2        0.0000 
     32 N           4.4390   34.7160   37.0580 N.am     10 SEL2        0.0000 
     33 N           6.6470   35.6070   38.8160 N.am      6 SEP2        0.0000 
     34 N           6.2900   27.5235   36.4770 N.am      2 SEC2        0.0000 
     35 N           5.6750   28.5480   35.7630 N.am     10 SEL2        0.0000 
     36 N           6.9050   26.4990   37.1910 N.am      6 SEP2        0.0000 
     37 N           4.8565   27.8470   35.1305 N.am      2 SEC2        0.0000 
     38 N           4.0380   27.1460   34.4980 N.am      6 SEP2        0.0000 
     39 CA          8.4325   28.9760   34.5895 C.3       4 GLC5        0.0000 
     40 CA          7.5070   30.1610   36.2190 C.3      12 GLL5        0.0000 
     41 CA          9.3580   27.7910   32.9600 C.3       8 GLP5        0.0000 
     42 O           8.8435   28.8590   37.0190 O.2       1 ALC1        0.0000 
     43 O           7.8960   29.7060   37.5230 O.2       9 ALL1        0.0000 
     44 O           9.7910   28.0120   36.5150 O.2       5 ALP1        0.0000 
     45 CA         11.1205   35.5905   34.4490 C.3       4 GLC5        0.0000 
     46 CA          9.8560   36.8320   35.5060 C.3      12 GLL5        0.0000 
     47 CA         11.3935   36.1900   36.5130 C.3       4 GLC5        0.0000 
     48 CA         12.9310   35.5480   37.5200 C.3       8 GLP5        0.0000 
     49 N           8.1045   32.7585   33.9685 N.am      2 SEC2        0.0000 
     50 N           7.3280   32.1870   35.0040 N.am     10 SEL2        0.0000 
     51 CA         10.4610   35.1140   36.6005 C.3       4 GLC5        0.0000 
     52 CA          8.6940   35.8460   35.5130 C.3      12 GLL5        0.0000 
     53 CA         12.2280   34.3820   37.6880 C.3       8 GLP5        0.0000 
     54 CA          3.1175   28.5035   33.3190 C.3       4 GLC5        0.0000 
     55 CA          1.8900   30.1810   33.4400 C.3      12 GLL5        0.0000 
     56 CA          4.3450   26.8260   33.1980 C.3       8 GLP5        0.0000 
     57 CA          5.0580   28.5523   34.2518 C.3       4 GLC5        0.0000 
     58 CA          5.5150   30.6280   34.6810 C.3      12 GLL5        0.0000 
     59 CA          5.0005   30.5147   37.0162 C.3       4 GLC5        0.0000 
     60 CA          4.2300   30.7510   38.7270 C.3       8 GLP5        0.0000 
     61 CA          6.4618   31.0135   37.8697 C.3       4 GLC5        0.0000 
     62 CA          5.3300   31.1140   39.4880 C.3       8 GLP5        0.0000 
@<TRIPOS>BOND
@<TRIPOS>SUBSTRUCTURE
     1 ALC1       20 GROUP        1 X    ALC  0     ROOT ALC X 1
     2 SEC2        1 GROUP        1 X    SEC  0     **** SEC X 2
     3 LYC4        4 GROUP        1 X    LYC  0     **** LYC X 4
     4 GLC5       17 GROUP        1 X    GLC  0     **** GLC X 6
     5 ALP1       22 GROUP        1 Y    ALP  0     ROOT ALP Y 8
     6 SEP2        3 GROUP        1 Y    SEP  0     **** SEP Y 9
     7 LYP4        6 GROUP        1 Y    LYP  0     **** LYP Y 11
     8 GLP5       19 GROUP        1 Y    GLP  0     **** GLP Y 13
     9 ALL1       21 GROUP        1 Z    ALL  0     ROOT ALL Z 15
    10 SEL2        2 GROUP        1 Z    SEL  0     **** SEL Z 16
    11 LYL4        5 GROUP        1 Z    LYL  0     **** LYL Z 18
    12 GLL5       18 GROUP        1 Z    GLL  0     **** GLL Z 20
@<TRIPOS>SET

