#    Name: 3q2k_HP7_1_ligand
#    Modification time : Tue Mar 25 08:48:16 2014

@<TRIPOS>MOLECULE
3q2k_HP7_1_ligand
   62    64     1     0     0
SMALL
NO_CHARGES


@<TRIPOS>ATOM
      1 N1         10.3570   38.3410   32.4700 N.am      1 HP7550      0.0000 
      2 C2         11.2320   39.0340   31.7420 C.2       1 HP7550      0.0000 
      3 O2         12.3160   39.3650   32.2850 O.2       1 HP7550      0.0000 
      4 N3         10.9250   39.3670   30.4680 N.am      1 HP7550      0.0000 
      5 C4          9.7560   38.9370   29.9450 C.2       1 HP7550      0.0000 
      6 O4          9.5240   39.2480   28.7610 O.2       1 HP7550      0.0000 
      7 C5          8.8440   38.1930   30.6770 C.2       1 HP7550      0.0000 
      8 C6          9.1780   37.9140   32.0030 C.2       1 HP7550      0.0000 
      9 PA          6.2750   36.3660   34.5500 P.3       1 HP7550      0.0000 
     10 PB          4.5250   34.2440   35.6230 P.3       1 HP7550      0.0000 
     11 O'P         9.9600   32.1660   35.5800 O.co2     1 HP7550      0.0000 
     12 O'Q         9.4780   32.1580   37.6780 O.co2     1 HP7550      0.0000 
     13 C1'         5.9310   32.0940   34.7300 C.3       1 HP7550      0.0000 
     14 O1A         5.8390   36.8020   33.1730 O.co2     1 HP7550      0.0000 
     15 O1B         3.2490   34.2240   34.8150 O.co2     1 HP7550      0.0000 
     16 C1C        10.8660   38.0830   33.8170 C.3       1 HP7550      0.0000 
     17 C2'         5.5150   30.6280   34.6810 C.3       1 HP7550      0.0000 
     18 N2'         4.0740   30.4190   34.6820 N.am      1 HP7550      0.0000 
     19 O2A         6.1190   37.2510   35.7630 O.co2     1 HP7550      0.0000 
     20 O2B         4.4390   34.7160   37.0580 O.co2     1 HP7550      0.0000 
     21 C2C        10.3240   39.0780   34.8390 C.3       1 HP7550      0.0000 
     22 O2C        11.4050   39.1480   35.7760 O.3       1 HP7550      0.0000 
     23 C3'         6.0270   29.9290   35.9300 C.3       1 HP7550      0.0000 
     24 O3'         5.6750   28.5480   35.7630 O.3       1 HP7550      0.0000 
     25 O3A         5.7700   34.8580   34.7980 O.3       1 HP7550      0.0000 
     26 O3B         5.1170   32.7380   35.7090 O.3       1 HP7550      0.0000 
     27 C3C         9.2880   38.2510   35.5840 C.3       1 HP7550      0.0000 
     28 O3C         9.2460   38.7500   36.9240 O.3       1 HP7550      0.0000 
     29 C4'         7.5070   30.1610   36.2190 C.3       1 HP7550      0.0000 
     30 O4'         7.8960   29.7060   37.5230 O.3       1 HP7550      0.0000 
     31 C4C         9.8560   36.8320   35.5060 C.3       1 HP7550      0.0000 
     32 O4C        10.5500   36.7670   34.2580 O.3       1 HP7550      0.0000 
     33 C5'         7.6800   31.6650   36.2840 C.3       1 HP7550      0.0000 
     34 O5'         7.3280   32.1870   35.0040 O.3       1 HP7550      0.0000 
     35 C5C         8.6940   35.8460   35.5130 C.3       1 HP7550      0.0000 
     36 O5C         7.8670   36.1990   34.4060 O.3       1 HP7550      0.0000 
     37 C6'         9.1240   31.9920   36.4970 C.2       1 HP7550      0.0000 
     38 C7'         3.3800   30.3740   33.5400 C.2       1 HP7550      0.0000 
     39 O7'         3.9490   30.4860   32.4690 O.2       1 HP7550      0.0000 
     40 C8'         1.8900   30.1810   33.4400 C.3       1 HP7550      0.0000 
     41 H          11.5741   39.9409   29.9043 H         1 HP7550      0.0000 
     42 H           7.9806   37.8673   30.2755 H         1 HP7550      0.0000 
     43 H           8.5147   37.3903   32.5863 H         1 HP7550      0.0000 
     44 H           5.7089   32.5015   33.7369 H         1 HP7550      0.0000 
     45 H          11.9632   38.2104   33.8156 H         1 HP7550      0.0000 
     46 H           5.9711   30.1516   33.8348 H         1 HP7550      0.0000 
     47 H           3.6265   30.3089   35.6099 H         1 HP7550      0.0000 
     48 H           9.9942   39.8930   34.4609 H         1 HP7550      0.0000 
     49 H           5.4413   30.3411   36.7751 H         1 HP7550      0.0000 
     50 H           8.3849   38.3021   35.0705 H         1 HP7550      0.0000 
     51 H           8.0995   29.7858   35.4494 H         1 HP7550      0.0000 
     52 H          10.4817   36.6686   36.3307 H         1 HP7550      0.0000 
     53 H           7.0929   32.0635   37.0539 H         1 HP7550      0.0000 
     54 H           8.1747   35.9437   36.4576 H         1 HP7550      0.0000 
     55 H           9.0991   34.8469   35.4172 H         1 HP7550      0.0000 
     56 H           1.5784   30.1816   32.4898 H         1 HP7550      0.0000 
     57 H           1.6001   29.3129   33.8430 H         1 HP7550      0.0000 
     58 H           1.3891   30.9057   33.9132 H         1 HP7550      0.0000 
     59 H          10.9867   38.9724   36.6671 H         1 HP7550      0.0000 
     60 H           6.2394   28.2274   35.0023 H         1 HP7550      0.0000 
     61 H           8.9969   39.7143   36.8333 H         1 HP7550      0.0000 
     62 H           8.6331   29.0504   37.3590 H         1 HP7550      0.0000 
@<TRIPOS>BOND
     1    2    1 1    
     2    8    1 1    
     3   16    1 1    
     4    3    2 2    
     5    4    2 1    
     6    5    4 1    
     7   41    4 1    
     8    6    5 2    
     9    7    5 1    
    10    8    7 2    
    11   42    7 1    
    12   43    8 1    
    13   14    9 ar   
    14   19    9 ar   
    15   25    9 1    
    16   36    9 1    
    17   15   10 ar   
    18   20   10 ar   
    19   25   10 1    
    20   26   10 1    
    21   37   11 ar   
    22   37   12 ar   
    23   17   13 1    
    24   26   13 1    
    25   34   13 1    
    26   44   13 1    
    27   21   16 1    
    28   32   16 1    
    29   45   16 1    
    30   18   17 1    
    31   23   17 1    
    32   46   17 1    
    33   38   18 am   
    34   47   18 1    
    35   22   21 1    
    36   27   21 1    
    37   48   21 1    
    38   59   22 1    
    39   24   23 1    
    40   29   23 1    
    41   49   23 1    
    42   60   24 1    
    43   28   27 1    
    44   31   27 1    
    45   50   27 1    
    46   61   28 1    
    47   30   29 1    
    48   33   29 1    
    49   51   29 1    
    50   62   30 1    
    51   32   31 1    
    52   35   31 1    
    53   52   31 1    
    54   34   33 1    
    55   37   33 1    
    56   53   33 1    
    57   36   35 1    
    58   54   35 1    
    59   55   35 1    
    60   39   38 2    
    61   40   38 1    
    62   56   40 1    
    63   57   40 1    
    64   58   40 1    
@<TRIPOS>SUBSTRUCTURE
     1 HP7550      1 GROUP   
@<TRIPOS>SET

