#    Name: 2wf3_ZY3_1_INTS_M
#    Modification time : Tue Mar 25 04:16:43 2014

@<TRIPOS>MOLECULE
2wf3_ZY3_1_INTS_M
   65     0     9     0     0
SMALL
NO_CHARGES


@<TRIPOS>ATOM
      1 N          32.7790    2.0800   34.2985 N.am      2 SEC2        0.0000 
      2 N          31.2660    2.2580   34.3830 N.am      8 SEL2        0.0000 
      3 N          34.2920    1.9020   34.2140 N.am      5 SEP2        0.0000 
      4 CA         32.2820    2.1270   36.5005 C.3       3 GLC5        0.0000 
      5 CA         31.1570    0.3760   36.6080 C.3       9 GLL5        0.0000 
      6 CA         33.4070    3.8780   36.3930 C.3       6 GLP5        0.0000 
      7 CA         29.4190   -3.5925   38.5425 C.3       3 GLC5        0.0000 
      8 CA         31.2450   -3.2520   37.8510 C.3       9 GLL5        0.0000 
      9 CA         27.5930   -3.9330   39.2340 C.3       6 GLP5        0.0000 
     10 N          28.5645   -1.5215   39.1105 N.am      2 SEC2        0.0000 
     11 N          30.0240   -1.4260   39.8130 N.am      8 SEL2        0.0000 
     12 N          27.1050   -1.6170   38.4080 N.am      5 SEP2        0.0000 
     13 N          28.7200   -1.5520   40.5435 N.am      2 SEC2        0.0000 
     14 N          27.4160   -1.6780   41.2740 N.am      5 SEP2        0.0000 
     15 CA         33.7675    1.9775   38.2380 C.3       3 GLC5        0.0000 
     16 CA         33.2710    0.2200   38.8090 C.3       9 GLL5        0.0000 
     17 CA         34.2640    3.7350   37.6670 C.3       6 GLP5        0.0000 
     18 CA         27.7745   -6.2820   33.8080 C.3       3 GLC5        0.0000 
     19 CA         28.4930   -4.7260   34.0770 C.3       9 GLL5        0.0000 
     20 CA         27.0560   -7.8380   33.5390 C.3       6 GLP5        0.0000 
     21 O          28.0290    0.6625   34.0950 O.2       1 ALC1        0.0000 
     22 O          29.2110    1.5080   33.7950 O.2       7 ALL1        0.0000 
     23 O          26.8470   -0.1830   34.3950 O.2       4 ALP1        0.0000 
     24 CA         31.4265    2.1365   31.2450 C.3       3 GLC5        0.0000 
     25 CA         30.4190    0.2830   31.0780 C.3       9 GLL5        0.0000 
     26 CA         32.4340    3.9900   31.4120 C.3       6 GLP5        0.0000 
     27 O          26.6595    4.1595   31.4775 O.2       1 ALC1        0.0000 
     28 O          27.7040    4.4940   32.2150 O.2       7 ALL1        0.0000 
     29 O          25.6150    3.8250   30.7400 O.2       4 ALP1        0.0000 
     30 CA         27.8325    8.7655   34.9600 C.3       3 GLC5        0.0000 
     31 CA         28.5300    6.8940   35.1750 C.3       9 GLL5        0.0000 
     32 CA         27.1350   10.6370   34.7450 C.3       6 GLP5        0.0000 
     33 CA         27.1580    7.5960   36.6215 C.3       3 GLC5        0.0000 
     34 CA         25.7860    8.2980   38.0680 C.3       6 GLP5        0.0000 
     35 CA         27.6290    7.9120   30.1635 C.3       3 GLC5        0.0000 
     36 CA         28.9780    8.9470   30.5920 C.3       9 GLL5        0.0000 
     37 CA         26.2800    6.8770   29.7350 C.3       6 GLP5        0.0000 
     38 CA         29.7015    6.9290   30.3550 C.3       3 GLC5        0.0000 
     39 CA         30.4250    4.9110   30.1180 C.3       6 GLP5        0.0000 
     40 CA         32.4518   -0.1090   35.1482 C.3       3 GLC5        0.0000 
     41 CA         30.5460    0.2600   35.3830 C.3       9 GLL5        0.0000 
     42 CA         34.0520   -0.5360   34.3010 C.3       6 GLP5        0.0000 
     43 CA         28.6017    0.0310   36.1557 C.3       3 GLC5        0.0000 
     44 CA         26.8670    0.4270   37.1280 C.3       6 GLP5        0.0000 
     45 CA         29.6692    0.5895   38.1075 C.3       3 GLC5        0.0000 
     46 CA         28.0660    1.3450   39.1930 C.3       6 GLP5        0.0000 
     47 CA         32.6255   -0.9392   35.7680 C.3       3 GLC5        0.0000 
     48 CA         31.3880   -0.7080   37.4360 C.3       9 GLL5        0.0000 
     49 CA         32.1493   -1.0420   34.8528 C.3       3 GLC5        0.0000 
     50 CA         30.3660   -2.1060   35.8250 C.3       9 GLL5        0.0000 
     51 CA         29.6003   -5.3140   32.8405 C.3       3 GLC5        0.0000 
     52 CA         29.0700   -3.3960   34.2750 C.3       9 GLL5        0.0000 
     53 CA         30.4190   -6.5670   31.5050 C.3       6 GLP5        0.0000 
     54 CA         29.5633    3.5012   31.1325 C.3       3 GLC5        0.0000 
     55 CA         28.4020    1.7140   31.5500 C.3       9 GLL5        0.0000 
     56 CA         26.9580   -2.2335   30.5790 C.3       3 GLC5        0.0000 
     57 CA         28.2270   -0.7800   31.1630 C.3       9 GLL5        0.0000 
     58 CA         25.4090   -3.0720   30.1360 C.3       6 GLP5        0.0000 
     59 CA         27.6030    0.8525   29.7608 C.3       3 GLC5        0.0000 
     60 CA         26.7340    1.5730   28.2340 C.3       6 GLP5        0.0000 
     61 CA         29.4685    4.4703   31.9475 C.3       3 GLC5        0.0000 
     62 CA         28.1350    3.6020   33.2610 C.3       9 GLL5        0.0000 
     63 CA         32.5110    6.6439   32.4664 C.3       3 GLC5        0.0000 
     64 CA         32.0400    7.9450   34.0890 C.3       9 GLL5        0.0000 
     65 CA         33.4160    5.1250   31.6150 C.3       6 GLP5        0.0000 
@<TRIPOS>BOND
@<TRIPOS>SUBSTRUCTURE
     1 ALC1       21 GROUP        1 X    ALC  0     ROOT ALC X 1
     2 SEC2        1 GROUP        1 X    SEC  0     **** SEC X 2
     3 GLC5        4 GROUP        1 X    GLC  0     **** GLC X 6
     4 ALP1       23 GROUP        1 Y    ALP  0     ROOT ALP Y 8
     5 SEP2        3 GROUP        1 Y    SEP  0     **** SEP Y 9
     6 GLP5        6 GROUP        1 Y    GLP  0     **** GLP Y 13
     7 ALL1       22 GROUP        1 Z    ALL  0     ROOT ALL Z 15
     8 SEL2        2 GROUP        1 Z    SEL  0     **** SEL Z 16
     9 GLL5        5 GROUP        1 Z    GLL  0     **** GLL Z 20
@<TRIPOS>SET

