#    Name: 2wf3_ZY3_1_ligand
#    Modification time : Tue Mar 25 04:16:43 2014

@<TRIPOS>MOLECULE
2wf3_ZY3_1_ligand
   80    83     1     0     0
SMALL
NO_CHARGES


@<TRIPOS>ATOM
      1 O3         31.2660    2.2580   34.3830 O.2       1 ZY32000     0.0000 
      2 C13        30.3400    1.4400   34.5040 C.2       1 ZY32000     0.0000 
      3 C5         30.5460    0.2600   35.3830 C.ar      1 ZY32000     0.0000 
      4 C6         31.1570    0.3760   36.6080 C.ar      1 ZY32000     0.0000 
      5 C7         31.3880   -0.7080   37.4360 C.ar      1 ZY32000     0.0000 
      6 C12        31.0100   -1.9770   37.0340 C.ar      1 ZY32000     0.0000 
      7 C11        31.2450   -3.2520   37.8510 C.3       1 ZY32000     0.0000 
      8 C10        32.5520   -3.1880   38.6940 C.3       1 ZY32000     0.0000 
      9 C9         32.2450   -2.6070   40.0960 C.3       1 ZY32000     0.0000 
     10 S          31.4150   -1.1370   39.9940 S.o2      1 ZY32000     0.0000 
     11 O1         30.0240   -1.4260   39.8130 O.2       1 ZY32000     0.0000 
     12 O2         31.7510   -0.3320   41.1610 O.2       1 ZY32000     0.0000 
     13 N2         32.0220   -0.5140   38.7020 N.pl3     1 ZY32000     0.0000 
     14 C8         33.2710    0.2200   38.8090 C.3       1 ZY32000     0.0000 
     15 C4         30.1270   -0.9900   34.9840 C.ar      1 ZY32000     0.0000 
     16 C3         30.3660   -2.1060   35.8250 C.ar      1 ZY32000     0.0000 
     17 N1         29.9770   -3.3370   35.4210 N.pl3     1 ZY32000     0.0000 
     18 C2         29.0700   -3.3960   34.2750 C.3       1 ZY32000     0.0000 
     19 C1         28.4930   -4.7260   34.0770 C.3       1 ZY32000     0.0000 
     20 N3         29.2110    1.5080   33.7950 N.am      1 ZY32000     0.0000 
     21 C14        29.0010    2.4690   32.7440 C.3       1 ZY32000     0.0000 
     22 C15        28.4020    1.7140   31.5500 C.3       1 ZY32000     0.0000 
     23 C16        29.0320    0.3740   31.2740 C.ar      1 ZY32000     0.0000 
     24 C21        28.2270   -0.7800   31.1630 C.ar      1 ZY32000     0.0000 
     25 C20        28.7870   -2.0100   30.8810 C.ar      1 ZY32000     0.0000 
     26 C19        30.1730   -2.0970   30.7060 C.ar      1 ZY32000     0.0000 
     27 C18        30.9740   -0.9330   30.7870 C.ar      1 ZY32000     0.0000 
     28 C17        30.4190    0.2830   31.0780 C.ar      1 ZY32000     0.0000 
     29 C22        28.1350    3.6020   33.2610 C.3       1 ZY32000     0.0000 
     30 O4         27.7040    4.4940   32.2150 O.3       1 ZY32000     0.0000 
     31 C23        28.8890    4.4570   34.2930 C.3       1 ZY32000     0.0000 
     32 N4         28.0250    5.6020   34.6590 N.4       1 ZY32000     0.0000 
     33 C24        28.5300    6.8940   35.1750 C.3       1 ZY32000     0.0000 
     34 C25        29.6820    7.4430   34.3370 C.ar      1 ZY32000     0.0000 
     35 C31        29.4600    7.9070   33.0470 C.ar      1 ZY32000     0.0000 
     36 C29        30.5330    8.3670   32.2860 C.ar      1 ZY32000     0.0000 
     37 O5         30.3110    8.8190   31.0170 O.3       1 ZY32000     0.0000 
     38 C30        28.9780    8.9470   30.5920 C.3       1 ZY32000     0.0000 
     39 C28        31.8110    8.3940   32.8070 C.ar      1 ZY32000     0.0000 
     40 C27        32.0400    7.9450   34.0890 C.ar      1 ZY32000     0.0000 
     41 C26        30.9850    7.4400   34.8540 C.ar      1 ZY32000     0.0000 
     42 H          31.4638    1.3279   36.9340 H         1 ZY32000     0.0000 
     43 H          31.3095   -4.1092   37.1767 H         1 ZY32000     0.0000 
     44 H          30.4030   -3.4097   38.5291 H         1 ZY32000     0.0000 
     45 H          33.2632   -2.5507   38.1914 H         1 ZY32000     0.0000 
     46 H          32.9505   -4.1852   38.8003 H         1 ZY32000     0.0000 
     47 H          33.1488   -2.3920   40.6350 H         1 ZY32000     0.0000 
     48 H          31.6052   -3.2620   40.6575 H         1 ZY32000     0.0000 
     49 H          29.6465   -1.1307   34.0930 H         1 ZY32000     0.0000 
     50 H          30.2650   -4.1944   35.8485 H         1 ZY32000     0.0000 
     51 H          29.6121   -3.0859   33.3556 H         1 ZY32000     0.0000 
     52 H          28.2539   -2.6534   34.4083 H         1 ZY32000     0.0000 
     53 H          28.4127    0.8485   33.9794 H         1 ZY32000     0.0000 
     54 H          29.9606    2.8754   32.4305 H         1 ZY32000     0.0000 
     55 H          28.4917    2.3553   30.6520 H         1 ZY32000     0.0000 
     56 H          27.3178    1.5813   31.7304 H         1 ZY32000     0.0000 
     57 H          27.2070   -0.6891   31.2968 H         1 ZY32000     0.0000 
     58 H          28.2081   -2.8464   30.7998 H         1 ZY32000     0.0000 
     59 H          30.6148   -3.0012   30.5187 H         1 ZY32000     0.0000 
     60 H          31.9909   -1.0246   30.6205 H         1 ZY32000     0.0000 
     61 H          30.9949    1.1268   31.1555 H         1 ZY32000     0.0000 
     62 H          27.2717    3.1812   33.7727 H         1 ZY32000     0.0000 
     63 H          29.8127    4.7993   33.8464 H         1 ZY32000     0.0000 
     64 H          29.1015    3.8434   35.1580 H         1 ZY32000     0.0000 
     65 H          28.8801    6.7786   36.2122 H         1 ZY32000     0.0000 
     66 H          27.7220    7.6414   35.1854 H         1 ZY32000     0.0000 
     67 H          28.5125    7.9120   32.6546 H         1 ZY32000     0.0000 
     68 H          32.5928    8.7502   32.2360 H         1 ZY32000     0.0000 
     69 H          32.9872    7.9777   34.4926 H         1 ZY32000     0.0000 
     70 H          31.1619    7.0675   35.7921 H         1 ZY32000     0.0000 
     71 H          33.5903    0.2737   39.7551 H         1 ZY32000     0.0000 
     72 H          34.0009   -0.2095   38.2772 H         1 ZY32000     0.0000 
     73 H          33.1797    1.1587   38.4767 H         1 ZY32000     0.0000 
     74 H          29.1982   -5.4167   33.9171 H         1 ZY32000     0.0000 
     75 H          27.9656   -5.0242   34.8726 H         1 ZY32000     0.0000 
     76 H          27.8758   -4.7498   33.2905 H         1 ZY32000     0.0000 
     77 H          28.9186    9.2797   29.6508 H         1 ZY32000     0.0000 
     78 H          28.4921    8.0736   30.6254 H         1 ZY32000     0.0000 
     79 H          28.4663    9.5892   31.1627 H         1 ZY32000     0.0000 
     80 H          26.9290    4.0318   31.7839 H         1 ZY32000     0.0000 
@<TRIPOS>BOND
     1    2    1 2    
     2    3    2 1    
     3   20    2 am   
     4    4    3 ar   
     5   15    3 ar   
     6    5    4 ar   
     7   42    4 1    
     8    6    5 ar   
     9   13    5 1    
    10    7    6 1    
    11   16    6 ar   
    12    8    7 1    
    13   43    7 1    
    14   44    7 1    
    15    9    8 1    
    16   45    8 1    
    17   46    8 1    
    18   10    9 1    
    19   47    9 1    
    20   48    9 1    
    21   11   10 2    
    22   12   10 2    
    23   13   10 1    
    24   14   13 1    
    25   71   14 1    
    26   72   14 1    
    27   73   14 1    
    28   16   15 ar   
    29   49   15 1    
    30   17   16 1    
    31   18   17 1    
    32   50   17 1    
    33   19   18 1    
    34   51   18 1    
    35   52   18 1    
    36   74   19 1    
    37   75   19 1    
    38   76   19 1    
    39   21   20 1    
    40   53   20 1    
    41   22   21 1    
    42   29   21 1    
    43   54   21 1    
    44   23   22 1    
    45   55   22 1    
    46   56   22 1    
    47   24   23 ar   
    48   28   23 ar   
    49   25   24 ar   
    50   57   24 1    
    51   26   25 ar   
    52   58   25 1    
    53   27   26 ar   
    54   59   26 1    
    55   28   27 ar   
    56   60   27 1    
    57   61   28 1    
    58   30   29 1    
    59   31   29 1    
    60   62   29 1    
    61   80   30 1    
    62   32   31 1    
    63   63   31 1    
    64   64   31 1    
    65   33   32 1    
    66   34   33 1    
    67   65   33 1    
    68   66   33 1    
    69   35   34 ar   
    70   41   34 ar   
    71   36   35 ar   
    72   67   35 1    
    73   37   36 1    
    74   39   36 ar   
    75   38   37 1    
    76   77   38 1    
    77   78   38 1    
    78   79   38 1    
    79   40   39 ar   
    80   68   39 1    
    81   41   40 ar   
    82   69   40 1    
    83   70   41 1    
@<TRIPOS>SUBSTRUCTURE
     1 ZY32000     1 GROUP   
@<TRIPOS>SET

