#    Name: 3ips_O90_2_INTS_M
#    Modification time : Tue Mar 25 17:03:48 2014

@<TRIPOS>MOLECULE
3ips_O90_2_INTS_M
   80     0     6     0     0
SMALL
NO_CHARGES


@<TRIPOS>ATOM
      1 CA         49.3465  -48.8735   24.9070 C.3       2 GLC5        0.0000 
      2 CA         47.8450  -48.5530   26.5390 C.3       6 GLL5        0.0000 
      3 CA         50.8480  -49.1940   23.2750 C.3       4 GLP5        0.0000 
      4 CA         45.8550  -45.9070   25.0480 C.3       2 GLC5        0.0000 
      5 CA         45.5100  -45.2460   27.0430 C.3       6 GLL5        0.0000 
      6 CA         46.2000  -46.5680   23.0530 C.3       4 GLP5        0.0000 
      7 CA         44.7750  -44.2930   25.3310 C.3       2 GLC5        0.0000 
      8 CA         44.0400  -43.3400   23.6190 C.3       4 GLP5        0.0000 
      9 CA         48.8755  -45.0610   27.6075 C.3       2 GLC5        0.0000 
     10 CA         46.9680  -44.2970   27.5540 C.3       6 GLL5        0.0000 
     11 CA         50.7830  -45.8250   27.6610 C.3       4 GLP5        0.0000 
     12 CA         48.1575  -43.9425   25.7895 C.3       2 GLC5        0.0000 
     13 CA         49.3470  -43.5880   24.0250 C.3       4 GLP5        0.0000 
     14 CA         48.4845  -41.8205   30.7655 C.3       2 GLC5        0.0000 
     15 CA         47.7950  -42.8440   29.4490 C.3       6 GLL5        0.0000 
     16 CA         49.1740  -40.7970   32.0820 C.3       4 GLP5        0.0000 
     17 CA         47.6745  -38.0895   29.4000 C.3       2 GLC5        0.0000 
     18 CA         47.2300  -38.8640   27.3870 C.3       6 GLL5        0.0000 
     19 CA         48.1190  -37.3150   31.4130 C.3       4 GLP5        0.0000 
     20 CA         46.7185  -35.0630   25.3955 C.3       2 GLC5        0.0000 
     21 CA         48.8860  -35.0370   25.8340 C.3       6 GLL5        0.0000 
     22 CA         44.5510  -35.0890   24.9570 C.3       4 GLP5        0.0000 
     23 CA         47.9960  -33.6620   26.8345 C.3       2 GLC5        0.0000 
     24 CA         47.1060  -32.2870   27.8350 C.3       4 GLP5        0.0000 
     25 CA         48.2820  -33.8280   24.2475 C.3       2 GLC5        0.0000 
     26 CA         47.6780  -32.6190   22.6610 C.3       4 GLP5        0.0000 
     27 CA         52.0550  -37.6455   25.5455 C.3       2 GLC5        0.0000 
     28 CA         50.1060  -36.7940   25.2690 C.3       6 GLL5        0.0000 
     29 CA         54.0040  -38.4970   25.8220 C.3       4 GLP5        0.0000 
     30 CA         52.3375  -35.5790   27.4195 C.3       2 GLC5        0.0000 
     31 CA         50.3170  -36.0270   27.2760 C.3       6 GLL5        0.0000 
     32 CA         54.3580  -35.1310   27.5630 C.3       4 GLP5        0.0000 
     33 CA         50.2685  -36.1060   29.0320 C.3       2 GLC5        0.0000 
     34 CA         50.2200  -36.1850   30.7880 C.3       4 GLP5        0.0000 
     35 CA         43.8390  -39.1235   26.1870 C.3       2 GLC5        0.0000 
     36 CA         44.4170  -39.8820   27.9550 C.3       6 GLL5        0.0000 
     37 CA         43.2610  -38.3650   24.4190 C.3       4 GLP5        0.0000 
     38 CA         41.5025  -40.0835   28.5780 C.3       2 GLC5        0.0000 
     39 CA         43.1950  -40.6490   28.4360 C.3       6 GLL5        0.0000 
     40 CA         39.8100  -39.5180   28.7200 C.3       4 GLP5        0.0000 
     41 CA         42.2980  -47.8290   27.1760 C.3       2 GLC5        0.0000 
     42 CA         43.7110  -47.5480   28.0180 C.3       6 GLL5        0.0000 
     43 CA         40.8850  -48.1100   26.3340 C.3       4 GLP5        0.0000 
     44 CA         42.4060  -46.6750   29.1700 C.3       2 GLC5        0.0000 
     45 CA         41.1010  -45.8020   30.3220 C.3       4 GLP5        0.0000 
     46 CA         43.4460  -48.8025   29.3360 C.3       2 GLC5        0.0000 
     47 CA         43.1810  -50.0570   30.6540 C.3       4 GLP5        0.0000 
     48 CA         44.5610  -46.8745   29.6580 C.3       2 GLC5        0.0000 
     49 CA         45.4110  -46.2010   31.2980 C.3       4 GLP5        0.0000 
     50 N          47.9355  -51.5095   30.2815 N.am      1 SEC2        0.0000 
     51 N          47.0840  -51.4940   29.2110 N.am      5 SEL2        0.0000 
     52 N          48.7870  -51.5250   31.3520 N.am      3 SEP2        0.0000 
     53 CA         44.3450  -49.3350   29.0530 C.3       2 GLC5        0.0000 
     54 CA         45.7270  -49.2790   27.4480 C.3       6 GLL5        0.0000 
     55 CA         49.2013  -46.8577   27.1040 C.3       2 GLC5        0.0000 
     56 CA         47.3940  -47.2280   26.5550 C.3       6 GLL5        0.0000 
     57 CA         46.7495  -47.1906   24.8580 C.3       2 GLC5        0.0000 
     58 CA         45.8250  -45.4862   29.2982 C.3       2 GLC5        0.0000 
     59 CA         48.9760  -44.8293   29.6752 C.3       2 GLC5        0.0000 
     60 CA         46.9770  -44.0730   29.0660 C.3       6 GLL5        0.0000 
     61 CA         50.5660  -46.2000   30.0930 C.3       4 GLP5        0.0000 
     62 CA         46.6305  -44.2527   30.5832 C.3       2 GLC5        0.0000 
     63 CA         45.8750  -45.0470   31.9090 C.3       4 GLP5        0.0000 
     64 CA         50.9098  -40.3475   28.6320 C.3       2 GLC5        0.0000 
     65 CA         49.4230  -40.5510   27.4610 C.3       6 GLL5        0.0000 
     66 CA         52.2960  -40.7950   29.9950 C.3       4 GLP5        0.0000 
     67 CA         51.3863  -40.4070   26.4735 C.3       2 GLC5        0.0000 
     68 CA         53.2490  -40.9140   25.6780 C.3       4 GLP5        0.0000 
     69 CA         49.3329  -41.0561   25.6905 C.3       2 GLC5        0.0000 
     70 CA         49.6240  -39.2490   27.0770 C.3       6 GLL5        0.0000 
     71 CA         49.4590  -42.1010   24.0200 C.3       4 GLP5        0.0000 
     72 CA         51.0184  -35.7806   24.4915 C.3       2 GLC5        0.0000 
     73 CA         52.4150  -35.3480   23.3170 C.3       4 GLP5        0.0000 
     74 CA         48.8884  -37.1061   24.1025 C.3       2 GLC5        0.0000 
     75 CA         48.1550  -37.9990   22.5390 C.3       4 GLP5        0.0000 
     76 CA         50.3986  -34.1039   26.3963 C.3       2 GLC5        0.0000 
     77 CA         49.3890  -36.2280   26.2920 C.3       6 GLL5        0.0000 
     78 CA         51.0700  -32.3780   26.1230 C.3       4 GLP5        0.0000 
     79 CA         43.3345  -39.0708   29.7777 C.3       2 GLC5        0.0000 
     80 CA         42.8630  -37.8760   31.3600 C.3       4 GLP5        0.0000 
@<TRIPOS>BOND
@<TRIPOS>SUBSTRUCTURE
     1 SEC2       50 GROUP        1 X    SEC  0     ROOT SEC X 2
     2 GLC5        1 GROUP        1 X    GLC  0     **** GLC X 6
     3 SEP2       52 GROUP        1 Y    SEP  0     ROOT SEP Y 9
     4 GLP5        3 GROUP        1 Y    GLP  0     **** GLP Y 13
     5 SEL2       51 GROUP        1 Z    SEL  0     ROOT SEL Z 16
     6 GLL5        2 GROUP        1 Z    GLL  0     **** GLL Z 20
@<TRIPOS>SET

