#    Name: 3ips_O90_2_ligand
#    Modification time : Tue Mar 25 17:03:48 2014

@<TRIPOS>MOLECULE
3ips_O90_2_ligand
   52    54     1     0     0
SMALL
NO_CHARGES


@<TRIPOS>ATOM
      1 C1         47.0210  -49.5890   26.9980 C.ar      1 O901        0.0000 
      2 C2         45.7270  -49.2790   27.4480 C.ar      1 O901        0.0000 
      3 C4         45.2910  -47.9470   27.4560 C.ar      1 O901        0.0000 
      4 C5         46.1120  -46.9190   27.0190 C.ar      1 O901        0.0000 
      5 C6         47.3940  -47.2280   26.5550 C.ar      1 O901        0.0000 
      6 C8         47.8450  -48.5530   26.5390 C.ar      1 O901        0.0000 
      7 S10        45.5100  -45.2460   27.0430 S.3       1 O901        0.0000 
      8 C11        46.9680  -44.2970   27.5540 C.3       1 O901        0.0000 
      9 C14        46.9770  -44.0730   29.0660 C.3       1 O901        0.0000 
     10 C17        47.7950  -42.8440   29.4490 C.3       1 O901        0.0000 
     11 O20        47.9990  -42.2950   28.1700 O.3       1 O901        0.0000 
     12 C21        48.1560  -40.9960   27.8290 C.ar      1 O901        0.0000 
     13 C22        46.9900  -40.1880   27.7830 C.ar      1 O901        0.0000 
     14 C23        47.2300  -38.8640   27.3870 C.ar      1 O901        0.0000 
     15 C24        48.5040  -38.4080   27.0470 C.ar      1 O901        0.0000 
     16 C25        49.6240  -39.2490   27.0770 C.ar      1 O901        0.0000 
     17 C27        49.4230  -40.5510   27.4610 C.ar      1 O901        0.0000 
     18 C29        48.2540  -37.0780   26.7260 C.2       1 O901        0.0000 
     19 N30        46.9670  -36.6530   26.8270 N.2       1 O901        0.0000 
     20 O31        46.2810  -37.8630   27.2740 O.3       1 O901        0.0000 
     21 C32        49.3890  -36.2280   26.2920 C.3       1 O901        0.0000 
     22 F33        48.8860  -35.0370   25.8340 F         1 O901        0.0000 
     23 F34        50.1060  -36.7940   25.2690 F         1 O901        0.0000 
     24 F35        50.3170  -36.0270   27.2760 F         1 O901        0.0000 
     25 C36        45.6460  -40.7530   28.1820 C.3       1 O901        0.0000 
     26 C39        44.4170  -39.8820   27.9550 C.3       1 O901        0.0000 
     27 C42        43.1950  -40.6490   28.4360 C.3       1 O901        0.0000 
     28 CL46       43.7110  -47.5480   28.0180 Cl        1 O901        0.0000 
     29 C47        47.4970  -51.0200   26.9330 C.3       1 O901        0.0000 
     30 C50        47.9650  -51.6580   28.1980 C.2       1 O901        0.0000 
     31 O51        49.0050  -52.2800   28.3420 O.co2     1 O901        0.0000 
     32 O52        47.0840  -51.4940   29.2110 O.co2     1 O901        0.0000 
     33 H          45.1049  -50.0252   27.7691 H         1 O901        0.0000 
     34 H          48.0123  -46.4752   26.2221 H         1 O901        0.0000 
     35 H          48.7872  -48.7680   26.1882 H         1 O901        0.0000 
     36 H          46.8661  -43.3985   26.9899 H         1 O901        0.0000 
     37 H          47.7711  -44.9063   27.2078 H         1 O901        0.0000 
     38 H          47.3994  -44.9537   29.5557 H         1 O901        0.0000 
     39 H          45.9495  -43.9448   29.4149 H         1 O901        0.0000 
     40 H          48.6912  -43.1725   29.9094 H         1 O901        0.0000 
     41 H          47.1991  -42.2312   30.0755 H         1 O901        0.0000 
     42 H          50.5375  -38.8979   26.8236 H         1 O901        0.0000 
     43 H          50.2165  -41.2167   27.4802 H         1 O901        0.0000 
     44 H          45.6816  -41.0347   29.2668 H         1 O901        0.0000 
     45 H          45.4911  -41.7259   27.6463 H         1 O901        0.0000 
     46 H          44.3178  -39.6663   26.9023 H         1 O901        0.0000 
     47 H          44.5150  -38.9669   28.5185 H         1 O901        0.0000 
     48 H          48.3196  -51.0830   26.1667 H         1 O901        0.0000 
     49 H          46.6713  -51.6461   26.4926 H         1 O901        0.0000 
     50 H          43.0809  -41.5121   27.9441 H         1 O901        0.0000 
     51 H          43.2557  -40.8719   29.4089 H         1 O901        0.0000 
     52 H          42.3532  -40.1248   28.3074 H         1 O901        0.0000 
@<TRIPOS>BOND
     1    2    1 ar   
     2    6    1 ar   
     3   29    1 1    
     4    3    2 ar   
     5   33    2 1    
     6    4    3 ar   
     7   28    3 1    
     8    5    4 ar   
     9    7    4 1    
    10    6    5 ar   
    11   34    5 1    
    12   35    6 1    
    13    8    7 1    
    14    9    8 1    
    15   36    8 1    
    16   37    8 1    
    17   10    9 1    
    18   38    9 1    
    19   39    9 1    
    20   11   10 1    
    21   40   10 1    
    22   41   10 1    
    23   12   11 1    
    24   13   12 ar   
    25   17   12 ar   
    26   14   13 ar   
    27   25   13 1    
    28   15   14 ar   
    29   20   14 1    
    30   16   15 ar   
    31   18   15 1    
    32   17   16 ar   
    33   42   16 1    
    34   43   17 1    
    35   19   18 2    
    36   21   18 1    
    37   20   19 1    
    38   22   21 1    
    39   23   21 1    
    40   24   21 1    
    41   26   25 1    
    42   44   25 1    
    43   45   25 1    
    44   27   26 1    
    45   46   26 1    
    46   47   26 1    
    47   50   27 1    
    48   51   27 1    
    49   52   27 1    
    50   30   29 1    
    51   48   29 1    
    52   49   29 1    
    53   31   30 ar   
    54   32   30 ar   
@<TRIPOS>SUBSTRUCTURE
     1 O901        1 GROUP   
@<TRIPOS>SET

