#    Name: 4jrv_KJV_1_INTS_M
#    Modification time : Tue Mar 25 06:15:24 2014

@<TRIPOS>MOLECULE
4jrv_KJV_1_INTS_M
   91     0    12     0     0
SMALL
NO_CHARGES


@<TRIPOS>ATOM
      1 CA        -26.2720  -46.7090   -6.5310 C.3       4 GLC5        0.0000 
      2 CA        -26.7360  -48.0110   -7.9210 C.3      12 GLL5        0.0000 
      3 CA        -25.8080  -45.4070   -5.1410 C.3       8 GLP5        0.0000 
      4 OD1       -27.3520  -50.4230   -6.9950 O.co2     3 ASC3        0.0000 
      5 OD1       -26.4660  -49.4550   -8.0070 O.co2    11 ASL3        0.0000 
      6 OD1       -28.2380  -51.3910   -5.9830 O.co2     7 ASP3        0.0000 
      7 O         -27.3520  -50.4230   -6.9950 O.2       1 ALC1        0.0000 
      8 O         -26.4660  -49.4550   -8.0070 O.2       9 ALL1        0.0000 
      9 O         -28.2380  -51.3910   -5.9830 O.2       5 ALP1        0.0000 
     10 CA        -24.0625  -50.1615   -9.9215 C.3       4 GLC5        0.0000 
     11 CA        -25.0120  -49.6800   -8.1880 C.3      12 GLL5        0.0000 
     12 CA        -23.1130  -50.6430  -11.6550 C.3       8 GLP5        0.0000 
     13 CA        -22.1125  -51.0515   -8.7195 C.3       4 GLC5        0.0000 
     14 CA        -22.8430  -50.0140   -6.9330 C.3      12 GLL5        0.0000 
     15 CA        -21.3820  -52.0890  -10.5060 C.3       8 GLP5        0.0000 
     16 CA        -20.9255  -46.8290   -0.9280 C.3       4 GLC5        0.0000 
     17 CA        -21.7520  -48.8160   -1.4230 C.3      12 GLL5        0.0000 
     18 CA        -20.0990  -44.8420   -0.4330 C.3       8 GLP5        0.0000 
     19 CA        -20.3305  -49.1255    0.8905 C.3       4 GLC5        0.0000 
     20 CA        -21.5450  -49.9120   -0.5880 C.3      12 GLL5        0.0000 
     21 CA        -19.1160  -48.3390    2.3690 C.3       8 GLP5        0.0000 
     22 CA        -18.8530  -53.3430    2.9210 C.3       4 GLC5        0.0000 
     23 CA        -18.1230  -52.5910    1.1580 C.3      12 GLL5        0.0000 
     24 CA        -19.5830  -54.0950    4.6840 C.3       8 GLP5        0.0000 
     25 CA        -20.6965  -54.0750    2.7745 C.3       4 GLC5        0.0000 
     26 CA        -21.8100  -54.0550    0.8650 C.3      12 GLL5        0.0000 
     27 CA        -20.9890  -55.8780    0.6710 C.3       4 GLC5        0.0000 
     28 CA        -20.1680  -57.7010    0.4770 C.3       8 GLP5        0.0000 
     29 N         -21.3580  -56.0470    2.1260 N.am      2 SEC2        0.0000 
     30 N         -22.4590  -55.0910    1.4260 N.am     10 SEL2        0.0000 
     31 N         -20.2570  -57.0030    2.8260 N.am      6 SEP2        0.0000 
     32 CA        -23.7040  -54.1000    2.6780 C.3       4 GLC5        0.0000 
     33 CA        -23.8190  -55.2580    1.2080 C.3      12 GLL5        0.0000 
     34 CA        -23.5890  -52.9420    4.1480 C.3       8 GLP5        0.0000 
     35 CA        -25.1850  -55.4630    2.1515 C.3       4 GLC5        0.0000 
     36 CA        -26.5510  -55.6680    3.0950 C.3       8 GLP5        0.0000 
     37 CA        -22.6505  -56.8695    0.8220 C.3       4 GLC5        0.0000 
     38 CA        -21.4820  -58.4810    0.4360 C.3       8 GLP5        0.0000 
     39 CA        -23.4350  -55.6925   -0.4255 C.3       4 GLC5        0.0000 
     40 CA        -23.0510  -56.1270   -2.0590 C.3       8 GLP5        0.0000 
     41 CA        -27.6275  -50.3110   -1.2645 C.3       4 GLC5        0.0000 
     42 CA        -26.3680  -51.5350   -2.1850 C.3      12 GLL5        0.0000 
     43 CA        -28.8870  -49.0870   -0.3440 C.3       8 GLP5        0.0000 
     44 O         -25.9190  -51.9705   -4.2300 O.2       1 ALC1        0.0000 
     45 O         -25.3670  -51.4590   -3.2060 O.2       9 ALL1        0.0000 
     46 O         -26.4710  -52.4820   -5.2540 O.2       5 ALP1        0.0000 
     47 CA        -25.0000  -50.9285    1.6340 C.3       4 GLC5        0.0000 
     48 CA        -26.2830  -52.4990    1.1640 C.3      12 GLL5        0.0000 
     49 CA        -23.7170  -49.3580    2.1040 C.3       8 GLP5        0.0000 
     50 CA        -21.4520  -53.2000   -2.5097 C.3       4 GLC5        0.0000 
     51 CA        -21.9650  -51.3770   -2.4500 C.3      12 GLL5        0.0000 
     52 CA        -21.0970  -55.1080   -3.2460 C.3       8 GLP5        0.0000 
     53 CA        -23.3340  -48.4382   -0.8945 C.3       4 GLC5        0.0000 
     54 CA        -22.0720  -48.9950   -2.7650 C.3      12 GLL5        0.0000 
     55 CA        -24.7560  -47.9710    0.3050 C.3       8 GLP5        0.0000 
     56 CA        -22.6570  -49.9587    0.6308 C.3       4 GLC5        0.0000 
     57 CA        -22.8308  -51.0360    0.9958 C.3       4 GLC5        0.0000 
     58 CA        -21.4590  -52.2770   -0.3020 C.3      12 GLL5        0.0000 
     59 CA        -20.9877  -53.7887   -1.6328 C.3       4 GLC5        0.0000 
     60 CA        -17.8383  -53.0358   -1.2470 C.3       4 GLC5        0.0000 
     61 CA        -19.0500  -52.1600    0.2010 C.3      12 GLL5        0.0000 
     62 CA        -16.8460  -54.3520   -2.1950 C.3       8 GLP5        0.0000 
     63 CA        -18.5338  -49.6940    0.7815 C.3       4 GLC5        0.0000 
     64 CA        -18.6110  -51.2790   -0.7990 C.3      12 GLL5        0.0000 
     65 CA        -16.8430  -52.6927   -1.2620 C.3       4 GLC5        0.0000 
     66 CA        -17.2920  -50.8190   -0.8130 C.3      12 GLL5        0.0000 
     67 CA        -16.9355  -50.5710    2.1590 C.3       4 GLC5        0.0000 
     68 CA        -16.3880  -51.2480    0.1550 C.3      12 GLL5        0.0000 
     69 CA        -17.2740  -49.4500    3.6700 C.3       8 GLP5        0.0000 
     70 CA        -17.1553  -53.3577   -0.5227 C.3       4 GLC5        0.0000 
     71 CA        -16.8060  -52.1360    1.1410 C.3      12 GLL5        0.0000 
     72 CA        -19.2102  -51.5115    2.1190 C.3       4 GLC5        0.0000 
     73 CA        -19.5220  -50.5220    3.5430 C.3       8 GLP5        0.0000 
     74 CA        -23.2660  -53.1997    2.1535 C.3       4 GLC5        0.0000 
     75 CA        -22.4300  -53.1510    0.0770 C.3      12 GLL5        0.0000 
     76 CA        -22.9970  -54.7922   -0.9500 C.3       4 GLC5        0.0000 
     77 CA        -26.5303  -54.1320    1.8015 C.3       4 GLC5        0.0000 
     78 CA        -26.7360  -52.6930   -0.1480 C.3      12 GLL5        0.0000 
     79 CA        -25.1580  -52.7380    2.9235 C.3       4 GLC5        0.0000 
     80 CA        -27.1710  -52.5690    2.2340 C.3      12 GLL5        0.0000 
     81 CA        -28.0875  -50.8420    1.9937 C.3       4 GLC5        0.0000 
     82 CA        -28.5210  -52.8220    2.0120 C.3      12 GLL5        0.0000 
     83 CA        -28.5510  -49.0060    2.1320 C.3       8 GLP5        0.0000 
     84 CA        -30.3315  -52.2298    2.3595 C.3       4 GLC5        0.0000 
     85 CA        -31.9130  -51.5430    3.3570 C.3       8 GLP5        0.0000 
     86 CA        -28.5415  -51.0013   -0.0575 C.3       4 GLC5        0.0000 
     87 CA        -28.9790  -53.0110    0.7120 C.3      12 GLL5        0.0000 
     88 CA        -29.8468  -54.5225    0.0130 C.3       4 GLC5        0.0000 
     89 CA        -28.0900  -52.9470   -0.3600 C.3      12 GLL5        0.0000 
     90 CA        -31.1590  -56.0660   -0.1500 C.3       8 GLP5        0.0000 
     91 CA        -27.4817  -54.2606    2.2563 C.3       4 GLC5        0.0000 
@<TRIPOS>BOND
@<TRIPOS>SUBSTRUCTURE
     1 ALC1        7 GROUP        1 X    ALC  0     ROOT ALC X 1
     2 SEC2       29 GROUP        1 X    SEC  0     **** SEC X 2
     3 ASC3        4 GROUP        1 X    ASC  0     **** ASC X 3
     4 GLC5        1 GROUP        1 X    GLC  0     **** GLC X 6
     5 ALP1        9 GROUP        1 Y    ALP  0     ROOT ALP Y 8
     6 SEP2       31 GROUP        1 Y    SEP  0     **** SEP Y 9
     7 ASP3        6 GROUP        1 Y    ASP  0     **** ASP Y 10
     8 GLP5        3 GROUP        1 Y    GLP  0     **** GLP Y 13
     9 ALL1        8 GROUP        1 Z    ALL  0     ROOT ALL Z 15
    10 SEL2       30 GROUP        1 Z    SEL  0     **** SEL Z 16
    11 ASL3        5 GROUP        1 Z    ASL  0     **** ASL Z 17
    12 GLL5        2 GROUP        1 Z    GLL  0     **** GLL Z 20
@<TRIPOS>SET

