#    Name: 4jrv_KJV_1_ligand
#    Modification time : Tue Mar 25 06:15:24 2014

@<TRIPOS>MOLECULE
4jrv_KJV_1_ligand
   74    78     1     0     0
SMALL
NO_CHARGES


@<TRIPOS>ATOM
      1 C35       -26.7360  -48.0110   -7.9210 C.3       1 KJV1001     0.0000 
      2 N34       -26.4660  -49.4550   -8.0070 N.4       1 KJV1001     0.0000 
      3 C36       -27.2270  -50.0130   -9.1360 C.3       1 KJV1001     0.0000 
      4 C33       -25.0120  -49.6800   -8.1880 C.3       1 KJV1001     0.0000 
      5 C32       -24.3630  -50.1710   -6.8890 C.3       1 KJV1001     0.0000 
      6 C31       -22.8430  -50.0140   -6.9330 C.3       1 KJV1001     0.0000 
      7 C29       -22.3710  -49.5790   -5.5370 C.2       1 KJV1001     0.0000 
      8 O30       -21.9280  -48.4440   -5.3580 O.2       1 KJV1001     0.0000 
      9 N28       -22.5020  -50.5280   -4.5800 N.am      1 KJV1001     0.0000 
     10 C21       -22.1700  -50.2890   -3.2950 C.ar      1 KJV1001     0.0000 
     11 C22       -21.9650  -51.3770   -2.4500 C.ar      1 KJV1001     0.0000 
     12 C20       -22.0720  -48.9950   -2.7650 C.ar      1 KJV1001     0.0000 
     13 C19       -21.7520  -48.8160   -1.4230 C.ar      1 KJV1001     0.0000 
     14 C18       -21.5450  -49.9120   -0.5880 C.ar      1 KJV1001     0.0000 
     15 C10       -21.6490  -51.2070   -1.0970 C.ar      1 KJV1001     0.0000 
     16 C7        -21.4590  -52.2770   -0.3020 C.2       1 KJV1001     0.0000 
     17 C1        -22.4300  -53.1510    0.0770 C.ar      1 KJV1001     0.0000 
     18 C8        -20.2980  -52.6620    0.2630 C.2       1 KJV1001     0.0000 
     19 C11       -19.0500  -52.1600    0.2010 C.ar      1 KJV1001     0.0000 
     20 C23       -18.6110  -51.2790   -0.7990 C.ar      1 KJV1001     0.0000 
     21 C24       -17.2920  -50.8190   -0.8130 C.ar      1 KJV1001     0.0000 
     22 C25       -16.3880  -51.2480    0.1550 C.ar      1 KJV1001     0.0000 
     23 C26       -16.8060  -52.1360    1.1410 C.ar      1 KJV1001     0.0000 
     24 C27       -18.1230  -52.5910    1.1580 C.ar      1 KJV1001     0.0000 
     25 O9        -20.5380  -53.7420    0.9600 O.3       1 KJV1001     0.0000 
     26 C2        -21.8100  -54.0550    0.8650 C.ar      1 KJV1001     0.0000 
     27 N3        -22.4590  -55.0910    1.4260 N.ar      1 KJV1001     0.0000 
     28 C4        -23.8190  -55.2580    1.2080 C.ar      1 KJV1001     0.0000 
     29 N5        -24.4560  -54.3310    0.3990 N.ar      1 KJV1001     0.0000 
     30 C6        -23.7660  -53.3120   -0.1530 C.ar      1 KJV1001     0.0000 
     31 N         -24.4510  -52.4300   -0.9080 N.pl3     1 KJV1001     0.0000 
     32 CA        -25.8790  -52.6430   -1.2730 C.3       1 KJV1001     0.0000 
     33 C         -26.3680  -51.5350   -2.1850 C.3       1 KJV1001     0.0000 
     34 O         -25.3670  -51.4590   -3.2060 O.3       1 KJV1001     0.0000 
     35 C12       -26.7360  -52.6930   -0.1480 C.ar      1 KJV1001     0.0000 
     36 C13       -26.2830  -52.4990    1.1640 C.ar      1 KJV1001     0.0000 
     37 C14       -27.1710  -52.5690    2.2340 C.ar      1 KJV1001     0.0000 
     38 C15       -28.5210  -52.8220    2.0120 C.ar      1 KJV1001     0.0000 
     39 C16       -28.9790  -53.0110    0.7120 C.ar      1 KJV1001     0.0000 
     40 C17       -28.0900  -52.9470   -0.3600 C.ar      1 KJV1001     0.0000 
     41 H         -26.7882  -49.9292   -7.0883 H         1 KJV1001     0.0000 
     42 H         -24.5172  -48.7520   -8.4917 H         1 KJV1001     0.0000 
     43 H         -24.8358  -50.4292   -8.9665 H         1 KJV1001     0.0000 
     44 H         -24.6120  -51.2220   -6.7407 H         1 KJV1001     0.0000 
     45 H         -24.7600  -49.5960   -6.0522 H         1 KJV1001     0.0000 
     46 H         -22.5783  -49.2571   -7.6501 H         1 KJV1001     0.0000 
     47 H         -22.3893  -50.9564   -7.1845 H         1 KJV1001     0.0000 
     48 H         -22.8729  -51.4762   -4.8485 H         1 KJV1001     0.0000 
     49 H         -22.0479  -52.3394   -2.8302 H         1 KJV1001     0.0000 
     50 H         -22.2371  -48.1832   -3.3705 H         1 KJV1001     0.0000 
     51 H         -21.6667  -47.8604   -1.0405 H         1 KJV1001     0.0000 
     52 H         -21.3157  -49.7676    0.4028 H         1 KJV1001     0.0000 
     53 H         -19.2691  -50.9703   -1.5280 H         1 KJV1001     0.0000 
     54 H         -16.9892  -50.1600   -1.5431 H         1 KJV1001     0.0000 
     55 H         -15.4197  -50.9111    0.1409 H         1 KJV1001     0.0000 
     56 H         -16.1433  -52.4575    1.8583 H         1 KJV1001     0.0000 
     57 H         -18.4238  -53.2583    1.8885 H         1 KJV1001     0.0000 
     58 H         -24.3261  -56.0287    1.6249 H         1 KJV1001     0.0000 
     59 H         -24.0248  -51.5600   -1.2742 H         1 KJV1001     0.0000 
     60 H         -25.9561  -53.5758   -1.8487 H         1 KJV1001     0.0000 
     61 H         -26.4334  -50.6265   -1.6157 H         1 KJV1001     0.0000 
     62 H         -27.3268  -51.8147   -2.5801 H         1 KJV1001     0.0000 
     63 H         -25.2868  -52.3038    1.3333 H         1 KJV1001     0.0000 
     64 H         -26.8262  -52.4327    3.1953 H         1 KJV1001     0.0000 
     65 H         -29.1736  -52.8688    2.8009 H         1 KJV1001     0.0000 
     66 H         -29.9757  -53.1985    0.5400 H         1 KJV1001     0.0000 
     67 H         -28.4385  -53.0893   -1.3211 H         1 KJV1001     0.0000 
     68 H         -26.2374  -47.5842   -7.1665 H         1 KJV1001     0.0000 
     69 H         -26.4680  -47.5326   -8.7572 H         1 KJV1001     0.0000 
     70 H         -27.7071  -47.8228   -7.7741 H         1 KJV1001     0.0000 
     71 H         -26.9704  -49.5870  -10.0036 H         1 KJV1001     0.0000 
     72 H         -27.0754  -50.9964   -9.2362 H         1 KJV1001     0.0000 
     73 H         -28.2114  -49.8782   -9.0231 H         1 KJV1001     0.0000 
     74 H         -25.8767  -51.3843   -4.0631 H         1 KJV1001     0.0000 
@<TRIPOS>BOND
     1    2    1 1    
     2   68    1 1    
     3   69    1 1    
     4   70    1 1    
     5    3    2 1    
     6    4    2 1    
     7   41    2 1    
     8   71    3 1    
     9   72    3 1    
    10   73    3 1    
    11    5    4 1    
    12   42    4 1    
    13   43    4 1    
    14    6    5 1    
    15   44    5 1    
    16   45    5 1    
    17    7    6 1    
    18   46    6 1    
    19   47    6 1    
    20    8    7 2    
    21    9    7 am   
    22   10    9 1    
    23   48    9 1    
    24   11   10 ar   
    25   12   10 ar   
    26   15   11 ar   
    27   49   11 1    
    28   13   12 ar   
    29   50   12 1    
    30   14   13 ar   
    31   51   13 1    
    32   15   14 ar   
    33   52   14 1    
    34   16   15 1    
    35   17   16 1    
    36   18   16 2    
    37   26   17 ar   
    38   30   17 ar   
    39   19   18 1    
    40   25   18 1    
    41   20   19 ar   
    42   24   19 ar   
    43   21   20 ar   
    44   53   20 1    
    45   22   21 ar   
    46   54   21 1    
    47   23   22 ar   
    48   55   22 1    
    49   24   23 ar   
    50   56   23 1    
    51   57   24 1    
    52   26   25 1    
    53   27   26 ar   
    54   28   27 ar   
    55   29   28 ar   
    56   58   28 1    
    57   30   29 ar   
    58   31   30 1    
    59   32   31 1    
    60   59   31 1    
    61   33   32 1    
    62   35   32 1    
    63   60   32 1    
    64   34   33 1    
    65   61   33 1    
    66   62   33 1    
    67   74   34 1    
    68   36   35 ar   
    69   40   35 ar   
    70   37   36 ar   
    71   63   36 1    
    72   38   37 ar   
    73   64   37 1    
    74   39   38 ar   
    75   65   38 1    
    76   40   39 ar   
    77   66   39 1    
    78   67   40 1    
@<TRIPOS>SUBSTRUCTURE
     1 KJV1001     1 GROUP   
@<TRIPOS>SET

