#    Name: 2ekp_NAD_1_INTS_M
#    Modification time : Tue Mar 25 11:12:27 2014

@<TRIPOS>MOLECULE
2ekp_NAD_1_INTS_M
  105     0     9     0     0
SMALL
NO_CHARGES


@<TRIPOS>ATOM
      1 CA         44.5070   19.1590   77.5825 C.3       3 GLC5        0.0000 
      2 CA         45.0360   19.4470   75.7420 C.3       9 GLL5        0.0000 
      3 CA         43.9780   18.8710   79.4230 C.3       6 GLP5        0.0000 
      4 CA         42.0770   20.3790   76.0185 C.3       3 GLC5        0.0000 
      5 CA         43.8950   20.1920   74.8030 C.3       9 GLL5        0.0000 
      6 CA         40.2590   20.5660   77.2340 C.3       6 GLP5        0.0000 
      7 N          42.7390   20.7370   77.1530 N.am      2 SEC2        0.0000 
      8 N          43.2060   21.0710   75.7030 N.am      8 SEL2        0.0000 
      9 N          42.2720   20.4030   78.6030 N.am      5 SEP2        0.0000 
     10 CA         45.9555   19.9700   72.6060 C.3       3 GLC5        0.0000 
     11 CA         44.6180   20.9540   73.6590 C.3       9 GLL5        0.0000 
     12 CA         47.2930   18.9860   71.5530 C.3       6 GLP5        0.0000 
     13 N          43.3615   20.5635   70.9735 N.am      2 SEC2        0.0000 
     14 N          43.8770   20.8700   72.4390 N.am      8 SEL2        0.0000 
     15 N          42.8460   20.2570   69.5080 N.am      5 SEP2        0.0000 
     16 N          44.5605   19.9575   71.3145 N.am      2 SEC2        0.0000 
     17 N          45.2440   19.0450   70.1900 N.am      5 SEP2        0.0000 
     18 O          44.3185   21.6005   71.3585 O.2       1 ALC1        0.0000 
     19 O          43.8770   20.8700   72.4390 O.2       7 ALL1        0.0000 
     20 O          44.7600   22.3310   70.2780 O.2       4 ALP1        0.0000 
     21 CA         41.8660   21.4605   76.1430 C.3       3 GLC5        0.0000 
     22 CA         43.4730   22.3550   75.0520 C.3       9 GLL5        0.0000 
     23 CA         40.7120   28.2060   76.7420 C.3       3 GLC5        0.0000 
     24 CA         41.7630   26.3830   77.2790 C.3       9 GLL5        0.0000 
     25 CA         39.6610   30.0290   76.2050 C.3       6 GLP5        0.0000 
     26 CA         39.5515   26.2590   77.5905 C.3       3 GLC5        0.0000 
     27 CA         37.3400   26.1350   77.9020 C.3       6 GLP5        0.0000 
     28 O          41.4670   28.6140   78.4220 O.2       1 ALC1        0.0000 
     29 O          41.9510   27.2620   78.2550 O.2       7 ALL1        0.0000 
     30 O          40.9830   29.9660   78.5890 O.2       4 ALP1        0.0000 
     31 N          39.5765   27.3680   76.8665 N.am      2 SEC2        0.0000 
     32 N          40.6430   26.5270   76.4130 N.am      8 SEL2        0.0000 
     33 N          38.5100   28.2090   77.3200 N.am      5 SEP2        0.0000 
     34 CA         40.7060   25.4890   73.5905 C.3       3 GLC5        0.0000 
     35 CA         40.4060   25.6110   75.3530 C.3       9 GLL5        0.0000 
     36 CA         41.0060   25.3670   71.8280 C.3       6 GLP5        0.0000 
     37 CA         41.8255   27.2720   74.9800 C.3       3 GLC5        0.0000 
     38 CA         43.2450   28.9330   74.6070 C.3       6 GLP5        0.0000 
     39 CA         38.7840   26.5775   74.1365 C.3       3 GLC5        0.0000 
     40 CA         37.1620   27.5440   72.9200 C.3       6 GLP5        0.0000 
     41 CA         38.8730   25.8730   76.6275 C.3       3 GLC5        0.0000 
     42 CA         39.9215   23.7235   76.3545 C.3       3 GLC5        0.0000 
     43 CA         39.4370   21.8360   77.3560 C.3       6 GLP5        0.0000 
     44 CA         40.9175   23.1140   76.6855 C.3       3 GLC5        0.0000 
     45 CA         42.3980   24.3920   76.0150 C.3       9 GLL5        0.0000 
     46 N          45.0540   14.2635   74.2020 N.am      2 SEC2        0.0000 
     47 N          45.2570   14.9710   75.3700 N.am      8 SEL2        0.0000 
     48 N          44.8510   13.5560   73.0340 N.am      5 SEP2        0.0000 
     49 N          47.8500   14.2755   77.1795 N.am      2 SEC2        0.0000 
     50 N          46.5840   14.5080   77.4630 N.am      8 SEL2        0.0000 
     51 N          49.1160   14.0430   76.8960 N.am      5 SEP2        0.0000 
     52 CA         43.1230   13.8645   75.7735 C.3       3 GLC5        0.0000 
     53 CA         43.0070   15.4560   77.1530 C.3       9 GLL5        0.0000 
     54 CA         43.2390   12.2730   74.3940 C.3       6 GLP5        0.0000 
     55 CA         41.2670   15.8965   76.1560 C.3       3 GLC5        0.0000 
     56 CA         39.5270   16.3370   75.1590 C.3       6 GLP5        0.0000 
     57 CA         43.4925   17.1635   78.2880 C.3       3 GLC5        0.0000 
     58 CA         40.4855   16.0085   77.2790 C.3       3 GLC5        0.0000 
     59 CA         42.0200   14.9410   78.1880 C.3       9 GLL5        0.0000 
     60 CA         38.9510   17.0760   76.3700 C.3       6 GLP5        0.0000 
     61 N          40.0965   15.4640   81.3210 N.am      2 SEC2        0.0000 
     62 N          40.5900   15.8020   79.9700 N.am      8 SEL2        0.0000 
     63 N          39.6030   15.1260   82.6720 N.am      5 SEP2        0.0000 
     64 CA         41.5725   14.7405   82.1330 C.3       3 GLC5        0.0000 
     65 CA         42.8250   14.9400   80.4250 C.3       9 GLL5        0.0000 
     66 CA         40.3200   14.5410   83.8410 C.3       6 GLP5        0.0000 
     67 CA         44.5300   15.5220   81.3585 C.3       3 GLC5        0.0000 
     68 CA         46.2350   16.1040   82.2920 C.3       6 GLP5        0.0000 
     69 N          42.0215   16.6900   82.5935 N.am      2 SEC2        0.0000 
     70 N          42.6330   15.2930   81.7860 N.am      8 SEL2        0.0000 
     71 N          41.4100   18.0870   83.4010 N.am      5 SEP2        0.0000 
     72 N          43.2050   14.5170   82.6900 N.am      2 SEC2        0.0000 
     73 N          43.7770   13.7410   83.5940 N.am      5 SEP2        0.0000 
     74 N          41.1180   15.2095   82.2290 N.am      2 SEC2        0.0000 
     75 CA         40.9330   12.8080   79.4880 C.3       3 GLC5        0.0000 
     76 CA         42.4370   13.5520   79.9730 C.3       9 GLL5        0.0000 
     77 CA         39.4290   12.0640   79.0030 C.3       6 GLP5        0.0000 
     78 N          48.2170    9.1120   79.4185 N.am      2 SEC2        0.0000 
     79 N          47.7210   10.2820   79.9770 N.am      8 SEL2        0.0000 
     80 N          48.7130    7.9420   78.8600 N.am      5 SEP2        0.0000 
     81 CA         41.1465   11.7230   80.0485 C.3       3 GLC5        0.0000 
     82 CA         42.8640   11.3820   81.0940 C.3       9 GLL5        0.0000 
     83 CA         41.7925    9.9585   80.4460 C.3       3 GLC5        0.0000 
     84 CA         40.7210    8.5350   79.7980 C.3       6 GLP5        0.0000 
     85 CA         43.1220   23.4047   72.9960 C.3       3 GLC5        0.0000 
     86 CA         42.1410   24.4540   71.3440 C.3       6 GLP5        0.0000 
     87 CA         42.7300   27.3843   75.8967 C.3       3 GLC5        0.0000 
     88 CA         42.6670   25.2880   77.0940 C.3       9 GLL5        0.0000 
     89 CA         40.7060   13.6968   78.9278 C.3       3 GLC5        0.0000 
     90 CA         41.9460   15.7180   79.5170 C.3       9 GLL5        0.0000 
     91 CA         43.1818   17.1000   79.6970 C.3       3 GLC5        0.0000 
     92 CA         44.6333   11.5162   78.2193 C.3       3 GLC5        0.0000 
     93 CA         44.7100   12.4580   79.7800 C.3       9 GLL5        0.0000 
     94 CA         44.1260   11.1190   76.4940 C.3       6 GLP5        0.0000 
     95 CA         45.8208    9.4017   78.9582 C.3       3 GLC5        0.0000 
     96 CA         45.5710   11.3690   80.1090 C.3       9 GLL5        0.0000 
     97 CA         46.3370    7.9780   77.3940 C.3       6 GLP5        0.0000 
     98 CA         43.5397    9.0495   79.9795 C.3       3 GLC5        0.0000 
     99 CA         45.0380   10.2820   80.9360 C.3       9 GLL5        0.0000 
    100 CA         42.7140    7.8150   78.7750 C.3       6 GLP5        0.0000 
    101 CA         42.5907   10.5470   83.0710 C.3       3 GLC5        0.0000 
    102 CA         43.6930   10.2860   81.4320 C.3       9 GLL5        0.0000 
    103 CA         41.9030   10.2600   84.8790 C.3       6 GLP5        0.0000 
    104 CA         42.4999   20.8826   73.9532 C.3       3 GLC5        0.0000 
    105 CA         40.8200   20.3010   73.4670 C.3       6 GLP5        0.0000 
@<TRIPOS>BOND
@<TRIPOS>SUBSTRUCTURE
     1 ALC1       18 GROUP        1 X    ALC  0     ROOT ALC X 1
     2 SEC2        7 GROUP        1 X    SEC  0     **** SEC X 2
     3 GLC5        1 GROUP        1 X    GLC  0     **** GLC X 6
     4 ALP1       20 GROUP        1 Y    ALP  0     ROOT ALP Y 8
     5 SEP2        9 GROUP        1 Y    SEP  0     **** SEP Y 9
     6 GLP5        3 GROUP        1 Y    GLP  0     **** GLP Y 13
     7 ALL1       19 GROUP        1 Z    ALL  0     ROOT ALL Z 15
     8 SEL2        8 GROUP        1 Z    SEL  0     **** SEL Z 16
     9 GLL5        2 GROUP        1 Z    GLL  0     **** GLL Z 20
@<TRIPOS>SET

