#    Name: 2ekp_NAD_1_ligand
#    Modification time : Tue Mar 25 11:12:27 2014

@<TRIPOS>MOLECULE
2ekp_NAD_1_ligand
   70    74     1     0     0
SMALL
NO_CHARGES


@<TRIPOS>ATOM
      1 PA         46.9180   17.6940   75.6730 P.3       1 NAD1300     0.0000 
      2 O1A        47.5410   16.8090   74.6690 O.co2     1 NAD1300     0.0000 
      3 O2A        47.8620   18.6310   76.3930 O.co2     1 NAD1300     0.0000 
      4 O5B        45.7480   18.5210   74.9400 O.3       1 NAD1300     0.0000 
      5 C5B        45.0360   19.4470   75.7420 C.3       1 NAD1300     0.0000 
      6 C4B        43.8950   20.1920   74.8030 C.3       1 NAD1300     0.0000 
      7 O4B        43.2060   21.0710   75.7030 O.3       1 NAD1300     0.0000 
      8 C3B        44.6180   20.9540   73.6590 C.3       1 NAD1300     0.0000 
      9 O3B        43.8770   20.8700   72.4390 O.3       1 NAD1300     0.0000 
     10 C2B        44.7330   22.3560   74.2440 C.3       1 NAD1300     0.0000 
     11 O2B        44.9090   23.4250   73.3480 O.3       1 NAD1300     0.0000 
     12 C1B        43.4730   22.3550   75.0520 C.3       1 NAD1300     0.0000 
     13 N9A        43.3880   23.4650   76.0320 N.pl3     1 NAD1300     0.0000 
     14 C8A        44.2310   23.7670   77.0820 C.2       1 NAD1300     0.0000 
     15 N7A        43.7910   24.8720   77.7140 N.2       1 NAD1300     0.0000 
     16 C5A        42.6670   25.2880   77.0940 C.ar      1 NAD1300     0.0000 
     17 C6A        41.7630   26.3830   77.2790 C.ar      1 NAD1300     0.0000 
     18 N6A        41.9510   27.2620   78.2550 N.pl3     1 NAD1300     0.0000 
     19 N1A        40.6430   26.5270   76.4130 N.ar      1 NAD1300     0.0000 
     20 C2A        40.4060   25.6110   75.3530 C.ar      1 NAD1300     0.0000 
     21 N3A        41.2950   24.5400   75.1580 N.ar      1 NAD1300     0.0000 
     22 C4A        42.3980   24.3920   76.0150 C.ar      1 NAD1300     0.0000 
     23 O3         46.1770   16.8350   76.8120 O.3       1 NAD1300     0.0000 
     24 PN         45.5790   15.3460   76.7640 P.3       1 NAD1300     0.0000 
     25 O1N        45.2570   14.9710   75.3700 O.co2     1 NAD1300     0.0000 
     26 O2N        46.5840   14.5080   77.4630 O.co2     1 NAD1300     0.0000 
     27 O5D        44.3110   15.5750   77.6910 O.3       1 NAD1300     0.0000 
     28 C5D        43.0070   15.4560   77.1530 C.3       1 NAD1300     0.0000 
     29 C4D        42.0200   14.9410   78.1880 C.3       1 NAD1300     0.0000 
     30 O4D        42.3420   13.6170   78.5590 O.3       1 NAD1300     0.0000 
     31 C3D        41.9460   15.7180   79.5170 C.3       1 NAD1300     0.0000 
     32 O3D        40.5900   15.8020   79.9700 O.3       1 NAD1300     0.0000 
     33 C2D        42.8250   14.9400   80.4250 C.3       1 NAD1300     0.0000 
     34 O2D        42.6330   15.2930   81.7860 O.3       1 NAD1300     0.0000 
     35 C1D        42.4370   13.5520   79.9730 C.3       1 NAD1300     0.0000 
     36 N1N        43.3770   12.4430   80.2900 N.pl3     1 NAD1300     0.0000 
     37 C2N        44.7100   12.4580   79.7800 C.ar      1 NAD1300     0.0000 
     38 C3N        45.5710   11.3690   80.1090 C.ar      1 NAD1300     0.0000 
     39 C7N        46.9650   11.3390   79.6060 C.2       1 NAD1300     0.0000 
     40 O7N        47.7210   10.2820   79.9770 O.2       1 NAD1300     0.0000 
     41 N7N        47.5100   12.2660   78.8420 N.am      1 NAD1300     0.0000 
     42 C4N        45.0380   10.2820   80.9360 C.ar      1 NAD1300     0.0000 
     43 C5N        43.6930   10.2860   81.4320 C.ar      1 NAD1300     0.0000 
     44 C6N        42.8640   11.3820   81.0940 C.ar      1 NAD1300     0.0000 
     45 H          45.6424   20.2565   76.1277 H         1 NAD1300     0.0000 
     46 H          44.4725   18.9935   76.5473 H         1 NAD1300     0.0000 
     47 H          43.2976   19.4209   74.4220 H         1 NAD1300     0.0000 
     48 H          45.6033   20.5379   73.5998 H         1 NAD1300     0.0000 
     49 H          45.5516   22.2754   74.9930 H         1 NAD1300     0.0000 
     50 H          42.6232   22.5226   74.3153 H         1 NAD1300     0.0000 
     51 H          45.0165   23.2501   77.3144 H         1 NAD1300     0.0000 
     52 H          41.6057   28.1855   78.0880 H         1 NAD1300     0.0000 
     53 H          42.4210   26.9214   79.0694 H         1 NAD1300     0.0000 
     54 H          39.6007   25.7348   74.7464 H         1 NAD1300     0.0000 
     55 H          42.9808   14.7612   76.2927 H         1 NAD1300     0.0000 
     56 H          42.6264   16.4266   76.7834 H         1 NAD1300     0.0000 
     57 H          41.0122   14.9560   77.7556 H         1 NAD1300     0.0000 
     58 H          42.3871   16.6780   79.3365 H         1 NAD1300     0.0000 
     59 H          43.8428   15.1098   80.0706 H         1 NAD1300     0.0000 
     60 H          41.4523   13.3198   80.3767 H         1 NAD1300     0.0000 
     61 H          45.0328   13.2147   79.2052 H         1 NAD1300     0.0000 
     62 H          46.9076   13.0118   78.5575 H         1 NAD1300     0.0000 
     63 H          48.4760   12.1387   78.6169 H         1 NAD1300     0.0000 
     64 H          45.6596    9.4978   81.1599 H         1 NAD1300     0.0000 
     65 H          43.3579    9.5312   82.0005 H         1 NAD1300     0.0000 
     66 H          41.9008   11.4180   81.4221 H         1 NAD1300     0.0000 
     67 H          44.3356   21.5015   71.8138 H         1 NAD1300     0.0000 
     68 H          44.6736   24.2434   73.8723 H         1 NAD1300     0.0000 
     69 H          40.1038   15.0891   79.4648 H         1 NAD1300     0.0000 
     70 H          41.7351   15.7321   81.8152 H         1 NAD1300     0.0000 
@<TRIPOS>BOND
     1    2    1 ar   
     2    3    1 ar   
     3    4    1 1    
     4   23    1 1    
     5    5    4 1    
     6    6    5 1    
     7   45    5 1    
     8   46    5 1    
     9    7    6 1    
    10    8    6 1    
    11   47    6 1    
    12   12    7 1    
    13    9    8 1    
    14   10    8 1    
    15   48    8 1    
    16   67    9 1    
    17   11   10 1    
    18   12   10 1    
    19   49   10 1    
    20   68   11 1    
    21   13   12 1    
    22   50   12 1    
    23   14   13 1    
    24   22   13 1    
    25   15   14 2    
    26   51   14 1    
    27   16   15 1    
    28   17   16 ar   
    29   22   16 ar   
    30   18   17 1    
    31   19   17 ar   
    32   52   18 1    
    33   53   18 1    
    34   20   19 ar   
    35   21   20 ar   
    36   54   20 1    
    37   22   21 ar   
    38   24   23 1    
    39   25   24 ar   
    40   26   24 ar   
    41   27   24 1    
    42   28   27 1    
    43   29   28 1    
    44   55   28 1    
    45   56   28 1    
    46   30   29 1    
    47   31   29 1    
    48   57   29 1    
    49   35   30 1    
    50   32   31 1    
    51   33   31 1    
    52   58   31 1    
    53   69   32 1    
    54   34   33 1    
    55   35   33 1    
    56   59   33 1    
    57   70   34 1    
    58   36   35 1    
    59   60   35 1    
    60   37   36 ar   
    61   44   36 ar   
    62   38   37 ar   
    63   61   37 1    
    64   39   38 1    
    65   42   38 ar   
    66   40   39 2    
    67   41   39 am   
    68   62   41 1    
    69   63   41 1    
    70   43   42 ar   
    71   64   42 1    
    72   44   43 ar   
    73   65   43 1    
    74   66   44 1    
@<TRIPOS>SUBSTRUCTURE
     1 NAD1300     1 GROUP   
@<TRIPOS>SET

