#    Name: 3oz2_FAD_1_INTS_M
#    Modification time : Tue Mar 25 05:41:17 2014

@<TRIPOS>MOLECULE
3oz2_FAD_1_INTS_M
  126     0     9     0     0
SMALL
NO_CHARGES


@<TRIPOS>ATOM
      1 N          12.6905   43.4550   21.8665 N.am      2 SEC2        0.0000 
      2 N          13.4280   44.2790   20.7110 N.am      8 SEL2        0.0000 
      3 N          11.9530   42.6310   23.0220 N.am      5 SEP2        0.0000 
      4 CA         12.5235   44.0170   17.7465 C.3       3 GLC5        0.0000 
      5 CA         14.5440   44.7140   17.1220 C.3       9 GLL5        0.0000 
      6 CA         10.5030   43.3200   18.3710 C.3       6 GLP5        0.0000 
      7 CA         15.7665   46.1675   17.3850 C.3       3 GLC5        0.0000 
      8 CA         16.9890   47.6210   17.6480 C.3       6 GLP5        0.0000 
      9 CA         13.4800   43.8615   14.5350 C.3       3 GLC5        0.0000 
     10 CA         14.4980   43.4940   16.2240 C.3       9 GLL5        0.0000 
     11 CA         12.4620   44.2290   12.8460 C.3       6 GLP5        0.0000 
     12 O          13.7210   40.8300   15.7410 O.2       1 ALC1        0.0000 
     13 O          14.3130   41.1720   16.8990 O.2       7 ALL1        0.0000 
     14 O          13.1290   40.4880   14.5830 O.2       4 ALP1        0.0000 
     15 O          15.7515   39.8585   15.0715 O.2       1 ALC1        0.0000 
     16 O          16.6950   40.6610   15.5390 O.2       7 ALL1        0.0000 
     17 O          14.8080   39.0560   14.6040 O.2       4 ALP1        0.0000 
     18 CA         14.1100   43.4540   13.6685 C.3       3 GLC5        0.0000 
     19 CA         15.7580   42.6790   14.4910 C.3       9 GLL5        0.0000 
     20 CA         15.7765   44.8870   14.2980 C.3       3 GLC5        0.0000 
     21 CA         15.7950   47.0950   14.1050 C.3       6 GLP5        0.0000 
     22 CA         16.3590   44.6525    9.6500 C.3       3 GLC5        0.0000 
     23 CA         17.8850   43.3550   10.1850 C.3       9 GLL5        0.0000 
     24 CA         14.8330   45.9500    9.1150 C.3       6 GLP5        0.0000 
     25 CA         17.6020   41.6865    8.8345 C.3       3 GLC5        0.0000 
     26 CA         17.3190   40.0180    7.4840 C.3       6 GLP5        0.0000 
     27 CA         17.3640   44.0140    8.1445 C.3       3 GLC5        0.0000 
     28 CA         16.8430   44.6730    6.1040 C.3       6 GLP5        0.0000 
     29 O          19.2870   43.5030    7.9820 O.2       1 ALC1        0.0000 
     30 O          18.9690   43.7390    9.4680 O.2       7 ALL1        0.0000 
     31 O          19.6050   43.2670    6.4960 O.2       4 ALP1        0.0000 
     32 N          16.9405   42.5430    8.0360 N.am      2 SEC2        0.0000 
     33 N          16.8320   42.8310    9.4980 N.am      8 SEL2        0.0000 
     34 N          17.0490   42.2550    6.5740 N.am      5 SEP2        0.0000 
     35 CA         15.2665   44.1775    9.6205 C.3       3 GLC5        0.0000 
     36 CA         15.7000   42.4050   10.1260 C.3       9 GLL5        0.0000 
     37 CA         14.0265   42.5120    8.8605 C.3       3 GLC5        0.0000 
     38 CA         12.3530   42.6190    7.5950 C.3       6 GLP5        0.0000 
     39 CA         14.2105   41.0040   10.7650 C.3       3 GLC5        0.0000 
     40 CA         12.7210   39.6030   11.4040 C.3       6 GLP5        0.0000 
     41 CA         16.6230   40.9595   10.8595 C.3       3 GLC5        0.0000 
     42 CA         17.5460   39.5140   11.5930 C.3       6 GLP5        0.0000 
     43 CA         16.5095   41.2115    8.8050 C.3       3 GLC5        0.0000 
     44 N          15.3470   40.8270   11.4465 N.am      2 SEC2        0.0000 
     45 N          15.5660   42.4190   11.4800 N.am      8 SEL2        0.0000 
     46 N          15.1280   39.2350   11.4130 N.am      5 SEP2        0.0000 
     47 CA         14.5285   43.5865   12.5115 C.3       3 GLC5        0.0000 
     48 CA         16.5950   42.9440   12.1770 C.3       9 GLL5        0.0000 
     49 N          13.4065   49.2385   27.9885 N.am      2 SEC2        0.0000 
     50 N          13.6610   47.8150   28.5690 N.am      8 SEL2        0.0000 
     51 N          13.1520   50.6620   27.4080 N.am      5 SEP2        0.0000 
     52 N          12.3465   49.5760   28.2080 N.am      2 SEC2        0.0000 
     53 N          11.5410   48.4900   29.0080 N.am      8 SEL2        0.0000 
     54 N          11.2780   48.8680   27.6255 N.am      2 SEC2        0.0000 
     55 N          11.0150   49.2460   26.2430 N.am      5 SEP2        0.0000 
     56 O          11.1835   46.8145   30.9900 O.2       1 ALC1        0.0000 
     57 O          12.4680   46.9510   30.4340 O.2       7 ALL1        0.0000 
     58 O           9.8990   46.6780   31.5460 O.2       4 ALP1        0.0000 
     59 N          12.2265   44.8250   32.1455 N.am      2 SEC2        0.0000 
     60 N          13.4470   45.5150   31.8820 N.am      8 SEL2        0.0000 
     61 N          11.0060   44.1350   32.4090 N.am      5 SEP2        0.0000 
     62 N          15.7110   44.1570   30.6015 N.am      2 SEC2        0.0000 
     63 N          15.8710   45.6250   30.4780 N.am      8 SEL2        0.0000 
     64 N          15.5510   42.6890   30.7250 N.am      5 SEP2        0.0000 
     65 CA         19.8245   43.8200   31.5135 C.3       3 GLC5        0.0000 
     66 CA         20.1540   43.5430   29.3540 C.3       9 GLL5        0.0000 
     67 CA         19.4950   44.0970   33.6730 C.3       6 GLP5        0.0000 
     68 CA         21.8210   44.4070   26.0535 C.3       3 GLC5        0.0000 
     69 CA         20.1000   44.9070   26.7030 C.3       9 GLL5        0.0000 
     70 CA         23.5420   43.9070   25.4040 C.3       6 GLP5        0.0000 
     71 CA         15.2340   44.8755   28.2250 C.3       3 GLC5        0.0000 
     72 CA         16.8540   46.1290   28.3040 C.3       9 GLL5        0.0000 
     73 CA         13.6140   43.6220   28.1460 C.3       6 GLP5        0.0000 
     74 CA         14.1845   49.3235   26.3895 C.3       3 GLC5        0.0000 
     75 CA         15.5930   47.6570   26.7240 C.3       9 GLL5        0.0000 
     76 CA         12.7760   50.9900   26.0550 C.3       6 GLP5        0.0000 
     77 CA         14.0830   45.2105   27.0170 C.3       3 GLC5        0.0000 
     78 CA         14.5520   46.7990   25.8880 C.3       9 GLL5        0.0000 
     79 CA         12.5430   46.5195   26.3450 C.3       3 GLC5        0.0000 
     80 CA         10.5340   46.2400   26.8020 C.3       6 GLP5        0.0000 
     81 N          13.6415   44.4635   25.4335 N.am      2 SEC2        0.0000 
     82 N          14.8590   45.4030   25.7900 N.am      8 SEL2        0.0000 
     83 N          12.4240   43.5240   25.0770 N.am      5 SEP2        0.0000 
     84 CA         13.6485   49.1835   25.2680 C.3       3 GLC5        0.0000 
     85 CA         14.5210   47.3770   24.4810 C.3       9 GLL5        0.0000 
     86 O          14.8235   49.5275   23.5890 O.2       1 ALC1        0.0000 
     87 O          14.3850   48.8020   24.6230 O.2       7 ALL1        0.0000 
     88 O          15.2620   50.2530   22.5550 O.2       4 ALP1        0.0000 
     89 O          15.5765   48.7075   23.4810 O.2       1 ALC1        0.0000 
     90 O          16.7680   48.6130   22.3390 O.2       4 ALP1        0.0000 
     91 CA         11.9795   46.5305   25.1915 C.3       3 GLC5        0.0000 
     92 CA         13.4250   46.8210   23.5810 C.3       9 GLL5        0.0000 
     93 N          13.0735   44.4975   24.1320 N.am      2 SEC2        0.0000 
     94 N          13.7230   45.4710   23.1870 N.am      8 SEL2        0.0000 
     95 N          12.8380   44.0510   23.1045 N.am      2 SEC2        0.0000 
     96 CA         14.8475   48.8850   21.4160 C.3       3 GLC5        0.0000 
     97 CA         13.2600   47.7090   22.3230 C.3       9 GLL5        0.0000 
     98 CA         16.4350   50.0610   20.5090 C.3       6 GLP5        0.0000 
     99 CA         11.6305   48.7855   21.8295 C.3       3 GLC5        0.0000 
    100 CA         10.0010   49.8620   21.3360 C.3       6 GLP5        0.0000 
    101 N          13.6895   50.0525   19.7215 N.am      2 SEC2        0.0000 
    102 N          12.9650   48.7710   19.5840 N.am      8 SEL2        0.0000 
    103 N          14.4140   51.3340   19.8590 N.am      5 SEP2        0.0000 
    104 N          10.0190   46.9640   19.0535 N.am      2 SEC2        0.0000 
    105 N          11.4480   46.6930   19.1360 N.am      8 SEL2        0.0000 
    106 N           8.5900   47.2350   18.9710 N.am      5 SEP2        0.0000 
    107 CA         15.1580   45.5995   15.3890 C.3       3 GLC5        0.0000 
    108 CA         16.8405   45.1008   12.3100 C.3       3 GLC5        0.0000 
    109 CA         17.7550   43.4110   11.5630 C.3       9 GLL5        0.0000 
    110 CA         16.5060   47.0240   12.7500 C.3       6 GLP5        0.0000 
    111 CA         17.3768   41.3388   11.5592 C.3       3 GLC5        0.0000 
    112 CA         16.7085   43.5498   29.0925 C.3       3 GLC5        0.0000 
    113 CA         16.8980   45.4840   29.5520 C.3       9 GLL5        0.0000 
    114 CA         15.9770   42.0290   28.4660 C.3       6 GLP5        0.0000 
    115 CA         16.2485   43.8243   30.8995 C.3       3 GLC5        0.0000 
    116 CA         17.9820   44.6570   29.8860 C.3       9 GLL5        0.0000 
    117 CA         15.0570   42.5780   32.0800 C.3       6 GLP5        0.0000 
    118 CA         21.3092   44.9315   29.6335 C.3       3 GLC5        0.0000 
    119 CA         19.0250   44.4530   28.9740 C.3       9 GLL5        0.0000 
    120 CA         23.0290   45.8650   30.1030 C.3       6 GLP5        0.0000 
    121 CA         20.0678   46.7850   27.5042 C.3       3 GLC5        0.0000 
    122 CA         18.9890   45.0830   27.7260 C.3       9 GLL5        0.0000 
    123 CA         20.5910   48.5750   27.7940 C.3       6 GLP5        0.0000 
    124 CA         17.2162   43.6878   28.1723 C.3       3 GLC5        0.0000 
    125 CA         17.9040   45.9250   27.4070 C.3       9 GLL5        0.0000 
    126 CA         18.9850   47.3010   27.8248 C.3       3 GLC5        0.0000 
@<TRIPOS>BOND
@<TRIPOS>SUBSTRUCTURE
     1 ALC1       12 GROUP        1 X    ALC  0     ROOT ALC X 1
     2 SEC2        1 GROUP        1 X    SEC  0     **** SEC X 2
     3 GLC5        4 GROUP        1 X    GLC  0     **** GLC X 6
     4 ALP1       14 GROUP        1 Y    ALP  0     ROOT ALP Y 8
     5 SEP2        3 GROUP        1 Y    SEP  0     **** SEP Y 9
     6 GLP5        6 GROUP        1 Y    GLP  0     **** GLP Y 13
     7 ALL1       13 GROUP        1 Z    ALL  0     ROOT ALL Z 15
     8 SEL2        2 GROUP        1 Z    SEL  0     **** SEL Z 16
     9 GLL5        5 GROUP        1 Z    GLL  0     **** GLL Z 20
@<TRIPOS>SET

