#    Name: 3oz2_FAD_1_ligand
#    Modification time : Tue Mar 25 05:41:17 2014

@<TRIPOS>MOLECULE
3oz2_FAD_1_ligand
   83    88     1     0     0
SMALL
NO_CHARGES


@<TRIPOS>ATOM
      1 PA         14.2760   44.9600   19.6940 P.3       1 FAD501      0.0000 
      2 O1A        13.4280   44.2790   20.7110 O.co2     1 FAD501      0.0000 
      3 O2A        15.7700   44.8130   19.8450 O.co2     1 FAD501      0.0000 
      4 O5B        13.8040   44.3850   18.2810 O.3       1 FAD501      0.0000 
      5 C5B        14.5440   44.7140   17.1220 C.3       1 FAD501      0.0000 
      6 C4B        14.4980   43.4940   16.2240 C.3       1 FAD501      0.0000 
      7 O4B        15.1070   43.8310   14.9700 O.3       1 FAD501      0.0000 
      8 C3B        15.2380   42.2500   16.7700 C.3       1 FAD501      0.0000 
      9 O3B        14.3130   41.1720   16.8990 O.3       1 FAD501      0.0000 
     10 C2B        16.3300   42.0270   15.7460 C.3       1 FAD501      0.0000 
     11 O2B        16.6950   40.6610   15.5390 O.3       1 FAD501      0.0000 
     12 C1B        15.7580   42.6790   14.4910 C.3       1 FAD501      0.0000 
     13 N9A        16.7470   43.0460   13.5030 N.pl3     1 FAD501      0.0000 
     14 C8A        17.9670   43.5960   13.7260 C.2       1 FAD501      0.0000 
     15 N7A        18.6060   43.8050   12.5700 N.2       1 FAD501      0.0000 
     16 C5A        17.7550   43.4110   11.5630 C.ar      1 FAD501      0.0000 
     17 C6A        17.8850   43.3550   10.1850 C.ar      1 FAD501      0.0000 
     18 N6A        18.9690   43.7390    9.4680 N.pl3     1 FAD501      0.0000 
     19 N1A        16.8320   42.8310    9.4980 N.ar      1 FAD501      0.0000 
     20 C2A        15.7000   42.4050   10.1260 C.ar      1 FAD501      0.0000 
     21 N3A        15.5660   42.4190   11.4800 N.ar      1 FAD501      0.0000 
     22 C4A        16.5950   42.9440   12.1770 C.ar      1 FAD501      0.0000 
     23 N1         13.6610   47.8150   28.5690 N.2       1 FAD501      0.0000 
     24 C2         12.5160   47.7670   29.3200 C.2       1 FAD501      0.0000 
     25 O2         11.5410   48.4900   29.0080 O.2       1 FAD501      0.0000 
     26 N3         12.4680   46.9510   30.4340 N.am      1 FAD501      0.0000 
     27 C4         13.5510   46.2250   30.8600 C.2       1 FAD501      0.0000 
     28 O4         13.4470   45.5150   31.8820 O.2       1 FAD501      0.0000 
     29 C4X        14.7180   46.2910   30.0980 C.2       1 FAD501      0.0000 
     30 N5         15.8710   45.6250   30.4780 N.2       1 FAD501      0.0000 
     31 C5X        16.8980   45.4840   29.5520 C.ar      1 FAD501      0.0000 
     32 C6         17.9820   44.6570   29.8860 C.ar      1 FAD501      0.0000 
     33 C7         19.0250   44.4530   28.9740 C.ar      1 FAD501      0.0000 
     34 C7M        20.1540   43.5430   29.3540 C.3       1 FAD501      0.0000 
     35 C8         18.9890   45.0830   27.7260 C.ar      1 FAD501      0.0000 
     36 C8M        20.1000   44.9070   26.7030 C.3       1 FAD501      0.0000 
     37 C9         17.9040   45.9250   27.4070 C.ar      1 FAD501      0.0000 
     38 C9A        16.8540   46.1290   28.3040 C.ar      1 FAD501      0.0000 
     39 N10        15.7700   46.9500   28.0130 N.pl3     1 FAD501      0.0000 
     40 C10        14.7320   47.0360   28.9000 C.2       1 FAD501      0.0000 
     41 C1'        15.5930   47.6570   26.7240 C.3       1 FAD501      0.0000 
     42 C2'        14.5520   46.7990   25.8880 C.3       1 FAD501      0.0000 
     43 O2'        14.8590   45.4030   25.7900 O.3       1 FAD501      0.0000 
     44 C3'        14.5210   47.3770   24.4810 C.3       1 FAD501      0.0000 
     45 O3'        14.3850   48.8020   24.6230 O.3       1 FAD501      0.0000 
     46 C4'        13.4250   46.8210   23.5810 C.3       1 FAD501      0.0000 
     47 O4'        13.7230   45.4710   23.1870 O.3       1 FAD501      0.0000 
     48 C5'        13.2600   47.7090   22.3230 C.3       1 FAD501      0.0000 
     49 O5'        12.3350   47.1380   21.4260 O.3       1 FAD501      0.0000 
     50 P          12.5870   47.3580   19.8580 P.3       1 FAD501      0.0000 
     51 O1P        12.9650   48.7710   19.5840 O.co2     1 FAD501      0.0000 
     52 O2P        11.4480   46.6930   19.1360 O.co2     1 FAD501      0.0000 
     53 O3P        13.9340   46.5180   19.6110 O.3       1 FAD501      0.0000 
     54 H          15.5843   44.9303   17.3452 H         1 FAD501      0.0000 
     55 H          14.1107   45.5491   16.5800 H         1 FAD501      0.0000 
     56 H          13.4615   43.2152   16.0580 H         1 FAD501      0.0000 
     57 H          15.6857   42.5455   17.6931 H         1 FAD501      0.0000 
     58 H          17.1783   42.6445   16.0462 H         1 FAD501      0.0000 
     59 H          15.0271   41.9923   14.0797 H         1 FAD501      0.0000 
     60 H          18.3211   43.8069   14.6154 H         1 FAD501      0.0000 
     61 H          14.8977   42.0511    9.5393 H         1 FAD501      0.0000 
     62 H          11.5684   46.8873   30.9708 H         1 FAD501      0.0000 
     63 H          18.0090   44.1994   30.8053 H         1 FAD501      0.0000 
     64 H          17.8913   46.3985   26.4880 H         1 FAD501      0.0000 
     65 H          16.5027   47.6923   26.1633 H         1 FAD501      0.0000 
     66 H          15.1703   48.6296   26.8604 H         1 FAD501      0.0000 
     67 H          13.5776   46.9733   26.3254 H         1 FAD501      0.0000 
     68 H          15.4919   47.1609   24.0166 H         1 FAD501      0.0000 
     69 H          12.4858   46.8632   24.1266 H         1 FAD501      0.0000 
     70 H          14.2610   47.8221   21.8788 H         1 FAD501      0.0000 
     71 H          12.9456   48.7040   22.6739 H         1 FAD501      0.0000 
     72 H          20.8365   43.4741   28.6263 H         1 FAD501      0.0000 
     73 H          20.6300   43.8637   30.1729 H         1 FAD501      0.0000 
     74 H          19.8347   42.6149   29.5452 H         1 FAD501      0.0000 
     75 H          20.9821   45.2196   27.0553 H         1 FAD501      0.0000 
     76 H          20.2128   43.9493   26.4383 H         1 FAD501      0.0000 
     77 H          19.9191   45.4231   25.8658 H         1 FAD501      0.0000 
     78 H          13.9398   41.0401   15.9807 H         1 FAD501      0.0000 
     79 H          15.8516   40.2090   15.2486 H         1 FAD501      0.0000 
     80 H          18.7262   43.5577    8.5150 H         1 FAD501      0.0000 
     81 H          14.3280   45.0756   25.0085 H         1 FAD501      0.0000 
     82 H          14.7715   49.1837   23.7834 H         1 FAD501      0.0000 
     83 H          13.0943   45.2765   22.4341 H         1 FAD501      0.0000 
@<TRIPOS>BOND
     1    2    1 ar   
     2    3    1 ar   
     3    4    1 1    
     4   53    1 1    
     5    5    4 1    
     6    6    5 1    
     7   54    5 1    
     8   55    5 1    
     9    7    6 1    
    10    8    6 1    
    11   56    6 1    
    12   12    7 1    
    13    9    8 1    
    14   10    8 1    
    15   57    8 1    
    16   78    9 1    
    17   11   10 1    
    18   12   10 1    
    19   58   10 1    
    20   79   11 1    
    21   13   12 1    
    22   59   12 1    
    23   14   13 1    
    24   22   13 1    
    25   15   14 2    
    26   60   14 1    
    27   16   15 1    
    28   17   16 ar   
    29   22   16 ar   
    30   18   17 1    
    31   19   17 ar   
    32   80   18 1    
    33   20   19 ar   
    34   21   20 ar   
    35   61   20 1    
    36   22   21 ar   
    37   24   23 1    
    38   40   23 2    
    39   25   24 2    
    40   26   24 am   
    41   27   26 am   
    42   62   26 1    
    43   28   27 2    
    44   29   27 1    
    45   30   29 2    
    46   40   29 1    
    47   31   30 1    
    48   32   31 ar   
    49   38   31 ar   
    50   33   32 ar   
    51   63   32 1    
    52   34   33 1    
    53   35   33 ar   
    54   72   34 1    
    55   73   34 1    
    56   74   34 1    
    57   36   35 1    
    58   37   35 ar   
    59   75   36 1    
    60   76   36 1    
    61   77   36 1    
    62   38   37 ar   
    63   64   37 1    
    64   39   38 1    
    65   40   39 1    
    66   41   39 1    
    67   42   41 1    
    68   65   41 1    
    69   66   41 1    
    70   43   42 1    
    71   44   42 1    
    72   67   42 1    
    73   81   43 1    
    74   45   44 1    
    75   46   44 1    
    76   68   44 1    
    77   82   45 1    
    78   47   46 1    
    79   48   46 1    
    80   69   46 1    
    81   83   47 1    
    82   49   48 1    
    83   70   48 1    
    84   71   48 1    
    85   50   49 1    
    86   51   50 ar   
    87   52   50 ar   
    88   53   50 1    
@<TRIPOS>SUBSTRUCTURE
     1 FAD501      1 GROUP   
@<TRIPOS>SET

