#    Name: 4bfz_ZVZ_1_INTS_M
#    Modification time : Tue Mar 25 07:40:27 2014

@<TRIPOS>MOLECULE
4bfz_ZVZ_1_INTS_M
   56     0     6     0     0
SMALL
NO_CHARGES


@<TRIPOS>ATOM
      1 O         -14.5815   -9.4460   10.1280 O.2       1 ALC1        0.0000 
      2 O         -15.1530  -10.0830   11.0750 O.2       5 ALL1        0.0000 
      3 O         -14.0100   -8.8090    9.1810 O.2       3 ALP1        0.0000 
      4 CA        -15.9685   -9.8300    9.2470 C.3       2 GLC5        0.0000 
      5 CA        -15.8640  -11.2110   10.4570 C.3       6 GLL5        0.0000 
      6 CA        -16.0730   -8.4490    8.0370 C.3       4 GLP5        0.0000 
      7 CA        -13.9280  -11.1705   10.3205 C.3       2 GLC5        0.0000 
      8 CA        -11.9920  -11.1300   10.1840 C.3       4 GLP5        0.0000 
      9 CA        -15.2805   -8.8290   14.5370 C.3       2 GLC5        0.0000 
     10 CA        -14.1110   -8.7360   12.8360 C.3       6 GLL5        0.0000 
     11 CA        -16.4500   -8.9220   16.2380 C.3       4 GLP5        0.0000 
     12 CA        -12.9500   -7.9860   13.9020 C.3       2 GLC5        0.0000 
     13 CA        -11.7890   -7.2360   14.9680 C.3       4 GLP5        0.0000 
     14 CA        -12.9755  -10.2275   12.3545 C.3       2 GLC5        0.0000 
     15 CA        -11.8400  -11.7190   11.8730 C.3       4 GLP5        0.0000 
     16 CA        -12.3560   -8.2265   11.8920 C.3       2 GLC5        0.0000 
     17 CA        -10.6010   -7.7170   10.9480 C.3       4 GLP5        0.0000 
     18 CA        -21.5725   -0.4655    7.8885 C.3       2 GLC5        0.0000 
     19 CA        -20.1530   -0.5400    9.5420 C.3       6 GLL5        0.0000 
     20 CA        -22.9920   -0.3910    6.2350 C.3       4 GLP5        0.0000 
     21 CA        -19.8160   -4.5205   12.5705 C.3       2 GLC5        0.0000 
     22 CA        -18.7910   -6.1700   11.6480 C.3       6 GLL5        0.0000 
     23 CA        -20.8410   -2.8710   13.4930 C.3       4 GLP5        0.0000 
     24 CA        -21.8650   -6.2085   13.1015 C.3       2 GLC5        0.0000 
     25 CA        -20.7640   -7.4170   11.9460 C.3       6 GLL5        0.0000 
     26 CA        -22.9660   -5.0000   14.2570 C.3       4 GLP5        0.0000 
     27 CA        -14.6475   -4.8533   12.8262 C.3       2 GLC5        0.0000 
     28 CA        -14.9990   -6.8230   11.5120 C.3       6 GLL5        0.0000 
     29 CA        -14.5230   -3.4880   14.4030 C.3       4 GLP5        0.0000 
     30 CA        -15.3400   -4.0902   12.5925 C.3       2 GLC5        0.0000 
     31 CA        -15.4670   -4.6090   10.6810 C.3       6 GLL5        0.0000 
     32 CA        -19.6283   -3.3135   12.0650 C.3       2 GLC5        0.0000 
     33 CA        -17.7210   -3.7210   10.5640 C.3       6 GLL5        0.0000 
     34 CA        -20.2620   -2.5010   11.8090 C.3       2 GLC5        0.0000 
     35 CA        -19.9500   -2.7210   10.3690 C.3       6 GLL5        0.0000 
     36 CA        -21.8175   -1.0703   10.2613 C.3       2 GLC5        0.0000 
     37 CA        -23.7170   -0.8050   10.6890 C.3       4 GLP5        0.0000 
     38 CA        -17.5585   -5.6353   13.4429 C.3       2 GLC5        0.0000 
     39 CA        -17.3040   -4.9350   15.2810 C.3       4 GLP5        0.0000 
     40 CA        -20.9142   -8.1937    8.6245 C.3       2 GLC5        0.0000 
     41 CA        -19.3170   -7.8620   10.0480 C.3       6 GLL5        0.0000 
     42 CA        -22.2240   -7.8240    7.2530 C.3       4 GLP5        0.0000 
     43 CA        -17.8388   -8.5062    9.0165 C.3       2 GLC5        0.0000 
     44 CA        -19.8920   -9.2650    9.9440 C.3       6 GLL5        0.0000 
     45 CA        -23.1072   -9.1483    9.1337 C.3       2 GLC5        0.0000 
     46 CA        -22.0110  -10.3490   10.0260 C.3       6 GLL5        0.0000 
     47 CA        -23.5860   -7.7960    7.9500 C.3       4 GLP5        0.0000 
     48 CA        -23.9746  -11.6573    7.7885 C.3       2 GLC5        0.0000 
     49 CA        -22.1550  -12.2650    8.6680 C.3       6 GLL5        0.0000 
     50 CA        -24.5910  -11.2050    5.9970 C.3       4 GLP5        0.0000 
     51 CA        -25.1390  -10.3023   10.7230 C.3       2 GLC5        0.0000 
     52 CA        -23.9400  -11.7870   10.2150 C.3       6 GLL5        0.0000 
     53 CA        -26.6850   -9.3850   11.0340 C.3       4 GLP5        0.0000 
     54 CA        -24.7825  -11.7312   11.9180 C.3       2 GLC5        0.0000 
     55 CA        -23.2460  -10.6520   10.6090 C.3       6 GLL5        0.0000 
     56 CA        -25.9720  -12.2430   13.4240 C.3       4 GLP5        0.0000 
@<TRIPOS>BOND
@<TRIPOS>SUBSTRUCTURE
     1 ALC1        1 GROUP        1 X    ALC  0     ROOT ALC X 1
     2 GLC5        4 GROUP        1 X    GLC  0     **** GLC X 6
     3 ALP1        3 GROUP        1 Y    ALP  0     ROOT ALP Y 8
     4 GLP5        6 GROUP        1 Y    GLP  0     **** GLP Y 13
     5 ALL1        2 GROUP        1 Z    ALL  0     ROOT ALL Z 15
     6 GLL5        5 GROUP        1 Z    GLL  0     **** GLL Z 20
@<TRIPOS>SET

