#    Name: 4bfz_ZVZ_1_ligand
#    Modification time : Tue Mar 25 07:40:27 2014

@<TRIPOS>MOLECULE
4bfz_ZVZ_1_ligand
   61    64     1     0     0
SMALL
NO_CHARGES


@<TRIPOS>ATOM
      1 OAC       -15.1560  -10.8200   13.1600 O.2       1 ZVZ501      0.0000 
      2 CAY       -14.8430   -9.9630   12.3600 C.2       1 ZVZ501      0.0000 
      3 NAW       -15.1530  -10.0830   11.0750 N.am      1 ZVZ501      0.0000 
      4 CAA       -15.8640  -11.2110   10.4570 C.3       1 ZVZ501      0.0000 
      5 CAT       -14.1110   -8.7360   12.8360 C.3       1 ZVZ501      0.0000 
      6 OAX       -14.0630   -7.7950   11.7720 O.3       1 ZVZ501      0.0000 
      7 CBA       -14.9990   -6.8230   11.5120 C.ar      1 ZVZ501      0.0000 
      8 CAK       -14.5450   -5.6140   10.9870 C.ar      1 ZVZ501      0.0000 
      9 CAN       -15.4670   -4.6090   10.6810 C.ar      1 ZVZ501      0.0000 
     10 CAO       -16.3710   -7.0070   11.7210 C.ar      1 ZVZ501      0.0000 
     11 CBC       -17.2990   -5.9950   11.4020 C.ar      1 ZVZ501      0.0000 
     12 CBE       -16.8470   -4.7760   10.8830 C.ar      1 ZVZ501      0.0000 
     13 CBB       -17.7210   -3.7210   10.5640 C.ar      1 ZVZ501      0.0000 
     14 CAM       -19.1100   -3.7910   10.7100 C.ar      1 ZVZ501      0.0000 
     15 CAJ       -19.9500   -2.7210   10.3690 C.ar      1 ZVZ501      0.0000 
     16 CAZ       -19.4160   -1.5410    9.8810 C.ar      1 ZVZ501      0.0000 
     17 CAD       -20.1530   -0.5400    9.5420 C.1       1 ZVZ501      0.0000 
     18 NAB       -20.8280    0.3420    9.1970 N.1       1 ZVZ501      0.0000 
     19 CAI       -18.0530   -1.4680    9.7320 C.ar      1 ZVZ501      0.0000 
     20 CAL       -17.2180   -2.5340   10.0630 C.ar      1 ZVZ501      0.0000 
     21 CAU       -18.7910   -6.1700   11.6480 C.3       1 ZVZ501      0.0000 
     22 NBF       -19.3600   -7.5000   11.4880 N.4       1 ZVZ501      0.0000 
     23 CAP       -20.7640   -7.4170   11.9460 C.3       1 ZVZ501      0.0000 
     24 CAR       -21.3930   -8.8030   11.8250 C.3       1 ZVZ501      0.0000 
     25 NBG       -21.3000   -9.1790   10.3920 N.3       1 ZVZ501      0.0000 
     26 CAS       -19.8920   -9.2650    9.9440 C.3       1 ZVZ501      0.0000 
     27 CAQ       -19.3170   -7.8620   10.0480 C.3       1 ZVZ501      0.0000 
     28 CBD       -22.0110  -10.3490   10.0260 C.ar      1 ZVZ501      0.0000 
     29 NAV       -21.5060  -11.1570    9.0580 N.ar      1 ZVZ501      0.0000 
     30 CAG       -22.1550  -12.2650    8.6680 C.ar      1 ZVZ501      0.0000 
     31 CAE       -23.3980  -12.5990    9.2220 C.ar      1 ZVZ501      0.0000 
     32 CAF       -23.9400  -11.7870   10.2150 C.ar      1 ZVZ501      0.0000 
     33 CAH       -23.2460  -10.6520   10.6090 C.ar      1 ZVZ501      0.0000 
     34 H         -14.8835   -9.3148   10.3788 H         1 ZVZ501      0.0000 
     35 H         -13.1085   -9.0368   13.1564 H         1 ZVZ501      0.0000 
     36 H         -14.6404   -8.3364   13.7067 H         1 ZVZ501      0.0000 
     37 H         -13.5467   -5.4621   10.8266 H         1 ZVZ501      0.0000 
     38 H         -15.1235   -3.7085   10.2915 H         1 ZVZ501      0.0000 
     39 H         -16.7129   -7.8969   12.1150 H         1 ZVZ501      0.0000 
     40 H         -19.5352   -4.6635   11.0832 H         1 ZVZ501      0.0000 
     41 H         -20.9682   -2.8218   10.4852 H         1 ZVZ501      0.0000 
     42 H         -17.6211   -0.5931    9.3610 H         1 ZVZ501      0.0000 
     43 H         -16.1917   -2.4295    9.9281 H         1 ZVZ501      0.0000 
     44 H         -19.3303   -5.4380   10.9777 H         1 ZVZ501      0.0000 
     45 H         -19.0084   -5.7812   12.6861 H         1 ZVZ501      0.0000 
     46 H         -18.8261   -8.2076   12.0666 H         1 ZVZ501      0.0000 
     47 H         -21.3269   -6.7241   11.3306 H         1 ZVZ501      0.0000 
     48 H         -20.8104   -7.1028   12.9828 H         1 ZVZ501      0.0000 
     49 H         -22.4202   -8.7497   12.1384 H         1 ZVZ501      0.0000 
     50 H         -20.8394   -9.4931   12.4361 H         1 ZVZ501      0.0000 
     51 H         -19.8379   -9.5927    8.9188 H         1 ZVZ501      0.0000 
     52 H         -19.3286   -9.9248   10.5832 H         1 ZVZ501      0.0000 
     53 H         -18.3027   -7.8682    9.6896 H         1 ZVZ501      0.0000 
     54 H         -19.9239   -7.1875    9.4701 H         1 ZVZ501      0.0000 
     55 H         -21.7531  -12.8995    7.9487 H         1 ZVZ501      0.0000 
     56 H         -23.8972  -13.4286    8.8988 H         1 ZVZ501      0.0000 
     57 H         -24.8352  -12.0254   10.6454 H         1 ZVZ501      0.0000 
     58 H         -23.6351  -10.0305   11.3290 H         1 ZVZ501      0.0000 
     59 H         -15.9868  -11.0786    9.4734 H         1 ZVZ501      0.0000 
     60 H         -15.3701  -12.0721   10.5774 H         1 ZVZ501      0.0000 
     61 H         -16.7741  -11.3374   10.8516 H         1 ZVZ501      0.0000 
@<TRIPOS>BOND
     1    2    1 2    
     2    3    2 am   
     3    5    2 1    
     4    4    3 1    
     5   34    3 1    
     6   59    4 1    
     7   60    4 1    
     8   61    4 1    
     9    6    5 1    
    10   35    5 1    
    11   36    5 1    
    12    7    6 1    
    13    8    7 ar   
    14   10    7 ar   
    15    9    8 ar   
    16   37    8 1    
    17   12    9 ar   
    18   38    9 1    
    19   11   10 ar   
    20   39   10 1    
    21   12   11 ar   
    22   21   11 1    
    23   13   12 1    
    24   14   13 ar   
    25   20   13 ar   
    26   15   14 ar   
    27   40   14 1    
    28   16   15 ar   
    29   41   15 1    
    30   17   16 1    
    31   19   16 ar   
    32   18   17 3    
    33   20   19 ar   
    34   42   19 1    
    35   43   20 1    
    36   22   21 1    
    37   44   21 1    
    38   45   21 1    
    39   23   22 1    
    40   27   22 1    
    41   46   22 1    
    42   24   23 1    
    43   47   23 1    
    44   48   23 1    
    45   25   24 1    
    46   49   24 1    
    47   50   24 1    
    48   26   25 1    
    49   28   25 1    
    50   27   26 1    
    51   51   26 1    
    52   52   26 1    
    53   53   27 1    
    54   54   27 1    
    55   29   28 ar   
    56   33   28 ar   
    57   30   29 ar   
    58   31   30 ar   
    59   55   30 1    
    60   32   31 ar   
    61   56   31 1    
    62   33   32 ar   
    63   57   32 1    
    64   58   33 1    
@<TRIPOS>SUBSTRUCTURE
     1 ZVZ501      1 GROUP   
@<TRIPOS>SET

