#    Name: 4fcd_0T6_2_INTS_M
#    Modification time : Mon Mar 24 19:19:25 2014

@<TRIPOS>MOLECULE
4fcd_0T6_2_INTS_M
   49     0     6     0     0
SMALL
NO_CHARGES


@<TRIPOS>ATOM
      1 CA         14.4475  -40.1760  -15.5555 C.3       2 GLC5        0.0000 
      2 CA         14.6120  -37.9770  -15.7060 C.3       6 GLL5        0.0000 
      3 CA         14.2830  -42.3750  -15.4050 C.3       4 GLP5        0.0000 
      4 CA         12.5145  -37.3910  -15.2505 C.3       2 GLC5        0.0000 
      5 CA         10.4170  -36.8050  -14.7950 C.3       4 GLP5        0.0000 
      6 CA         14.7800  -38.2260  -13.6625 C.3       2 GLC5        0.0000 
      7 CA         14.9480  -38.4750  -11.6190 C.3       4 GLP5        0.0000 
      8 CA         14.8565  -36.0350  -14.8840 C.3       2 GLC5        0.0000 
      9 CA         15.1010  -34.0930  -14.0620 C.3       4 GLP5        0.0000 
     10 CA         12.6140  -37.2440  -17.5500 C.3       2 GLC5        0.0000 
     11 CA         14.5010  -38.1120  -17.1740 C.3       6 GLL5        0.0000 
     12 CA         10.7270  -36.3760  -17.9260 C.3       4 GLP5        0.0000 
     13 N          18.6210  -35.7915  -18.7810 N.am      1 SEC2        0.0000 
     14 N          17.0610  -36.4870  -19.1540 N.am      5 SEL2        0.0000 
     15 N          20.1810  -35.0960  -18.4080 N.am      3 SEP2        0.0000 
     16 CA         17.5615  -38.6705  -19.5470 C.3       2 GLC5        0.0000 
     17 CA         16.5630  -36.8690  -20.4290 C.3       6 GLL5        0.0000 
     18 CA         18.5600  -40.4720  -18.6650 C.3       4 GLP5        0.0000 
     19 CA         11.0360  -37.4935  -21.7415 C.3       2 GLC5        0.0000 
     20 CA         11.3980  -38.9650  -20.1980 C.3       6 GLL5        0.0000 
     21 CA         10.6740  -36.0220  -23.2850 C.3       4 GLP5        0.0000 
     22 CA          9.5910  -38.5285  -22.4745 C.3       2 GLC5        0.0000 
     23 CA         10.5530  -39.6630  -21.0750 C.3       6 GLL5        0.0000 
     24 CA          8.6290  -37.3940  -23.8740 C.3       4 GLP5        0.0000 
     25 CA         14.4280  -42.1725  -18.4545 C.3       2 GLC5        0.0000 
     26 CA         14.7260  -41.2400  -20.3380 C.3       6 GLL5        0.0000 
     27 CA         14.1300  -43.1050  -16.5710 C.3       4 GLP5        0.0000 
     28 CA         16.6430  -40.8560  -19.5015 C.3       2 GLC5        0.0000 
     29 CA         16.3300  -40.8490  -21.3740 C.3       2 GLC5        0.0000 
     30 CA         17.9340  -40.4580  -22.4100 C.3       4 GLP5        0.0000 
     31 CA         18.1610  -37.2625  -24.0805 C.3       2 GLC5        0.0000 
     32 CA         16.7920  -36.8100  -22.8610 C.3       6 GLL5        0.0000 
     33 CA         19.5300  -37.7150  -25.3000 C.3       4 GLP5        0.0000 
     34 CA         17.1610  -34.2830  -21.0970 C.3       2 GLC5        0.0000 
     35 CA         17.2640  -36.4460  -21.5830 C.3       6 GLL5        0.0000 
     36 CA         17.0580  -32.1200  -20.6110 C.3       4 GLP5        0.0000 
     37 CA         20.8185  -36.0510  -21.4625 C.3       2 GLC5        0.0000 
     38 CA         19.0850  -35.0670  -22.4030 C.3       6 GLL5        0.0000 
     39 CA         22.5520  -37.0350  -20.5220 C.3       4 GLP5        0.0000 
     40 CA         19.3075  -36.3910  -23.8515 C.3       2 GLC5        0.0000 
     41 CA         18.0715  -33.5935  -21.5070 C.3       2 GLC5        0.0000 
     42 CA         16.7625  -39.8045  -23.6355 C.3       2 GLC5        0.0000 
     43 CA         15.5910  -39.1510  -24.8610 C.3       6 GLL5        0.0000 
     44 CA         17.3965  -39.2350  -25.4445 C.3       2 GLC5        0.0000 
     45 CA         19.2020  -39.3190  -26.0280 C.3       4 GLP5        0.0000 
     46 CA         16.3854  -38.6471  -16.4865 C.3       2 GLC5        0.0000 
     47 CA         17.8320  -39.4690  -15.6720 C.3       4 GLP5        0.0000 
     48 CA         11.3882  -37.7885  -19.0020 C.3       2 GLC5        0.0000 
     49 CA         12.7010  -39.4370  -19.9580 C.3       6 GLL5        0.0000 
@<TRIPOS>BOND
@<TRIPOS>SUBSTRUCTURE
     1 SEC2       13 GROUP        1 X    SEC  0     ROOT SEC X 2
     2 GLC5        1 GROUP        1 X    GLC  0     **** GLC X 6
     3 SEP2       15 GROUP        1 Y    SEP  0     ROOT SEP Y 9
     4 GLP5        3 GROUP        1 Y    GLP  0     **** GLP Y 13
     5 SEL2       14 GROUP        1 Z    SEL  0     ROOT SEL Z 16
     6 GLL5        2 GROUP        1 Z    GLL  0     **** GLL Z 20
@<TRIPOS>SET

