#    Name: 4fcd_0T6_2_ligand
#    Modification time : Mon Mar 24 19:19:25 2014

@<TRIPOS>MOLECULE
4fcd_0T6_2_ligand
   40    43     1     0     0
SMALL
NO_CHARGES


@<TRIPOS>ATOM
      1 C1         14.6120  -37.9770  -15.7060 C.3       1 0T6803      0.0000 
      2 C2         14.5010  -38.1120  -17.1740 C.2       1 0T6803      0.0000 
      3 C3         15.3210  -37.6060  -18.1620 C.2       1 0T6803      0.0000 
      4 N1         16.4520  -36.8500  -18.1150 N.2       1 0T6803      0.0000 
      5 N2         17.0610  -36.4870  -19.1540 N.2       1 0T6803      0.0000 
      6 C4         16.5630  -36.8690  -20.4290 C.ar      1 0T6803      0.0000 
      7 C5         15.3950  -37.6530  -20.5790 C.ar      1 0T6803      0.0000 
      8 N3         14.7670  -38.0230  -19.3630 N.pl3     1 0T6803      0.0000 
      9 C6         13.6260  -38.7620  -19.0430 C.2       1 0T6803      0.0000 
     10 N4         13.4730  -38.8210  -17.7300 N.2       1 0T6803      0.0000 
     11 C7         12.7010  -39.4370  -19.9580 C.ar      1 0T6803      0.0000 
     12 C8         11.3980  -38.9650  -20.1980 C.ar      1 0T6803      0.0000 
     13 C9         10.5530  -39.6630  -21.0750 C.ar      1 0T6803      0.0000 
     14 C10        10.9910  -40.8300  -21.7170 C.ar      1 0T6803      0.0000 
     15 C11        12.2850  -41.3140  -21.4870 C.ar      1 0T6803      0.0000 
     16 C12        13.1300  -40.6180  -20.6060 C.ar      1 0T6803      0.0000 
     17 CL1        14.7260  -41.2400  -20.3380 Cl        1 0T6803      0.0000 
     18 C13        14.9390  -38.0030  -21.8560 C.ar      1 0T6803      0.0000 
     19 C14        15.6330  -37.5870  -23.0070 C.ar      1 0T6803      0.0000 
     20 C15        16.7920  -36.8100  -22.8610 C.ar      1 0T6803      0.0000 
     21 C16        17.2640  -36.4460  -21.5830 C.ar      1 0T6803      0.0000 
     22 O1         18.3890  -35.6880  -21.3250 O.3       1 0T6803      0.0000 
     23 C17        19.0850  -35.0670  -22.4030 C.3       1 0T6803      0.0000 
     24 O2         15.0760  -37.9970  -24.2050 O.3       1 0T6803      0.0000 
     25 C18        15.5910  -39.1510  -24.8610 C.3       1 0T6803      0.0000 
     26 H          11.0683  -38.1157  -19.7344 H         1 0T6803      0.0000 
     27 H           9.6001  -39.3132  -21.2485 H         1 0T6803      0.0000 
     28 H          10.3629  -41.3291  -22.3553 H         1 0T6803      0.0000 
     29 H          12.6114  -42.1595  -21.9513 H         1 0T6803      0.0000 
     30 H          14.0866  -38.5711  -21.9567 H         1 0T6803      0.0000 
     31 H          17.3072  -36.4997  -23.6965 H         1 0T6803      0.0000 
     32 H          15.4692  -38.3599  -15.3616 H         1 0T6803      0.0000 
     33 H          14.5818  -37.0199  -15.4177 H         1 0T6803      0.0000 
     34 H          13.8687  -38.4494  -15.2323 H         1 0T6803      0.0000 
     35 H          19.8804  -34.5518  -22.0838 H         1 0T6803      0.0000 
     36 H          19.4171  -35.7378  -23.0661 H         1 0T6803      0.0000 
     37 H          18.5015  -34.4260  -22.9016 H         1 0T6803      0.0000 
     38 H          16.5594  -39.0480  -25.0881 H         1 0T6803      0.0000 
     39 H          15.5088  -39.9693  -24.2921 H         1 0T6803      0.0000 
     40 H          15.1078  -39.3388  -25.7161 H         1 0T6803      0.0000 
@<TRIPOS>BOND
     1    2    1 1    
     2   32    1 1    
     3   33    1 1    
     4   34    1 1    
     5    3    2 2    
     6   10    2 1    
     7    4    3 1    
     8    8    3 1    
     9    5    4 2    
    10    6    5 1    
    11    7    6 ar   
    12   21    6 ar   
    13    8    7 1    
    14   18    7 ar   
    15    9    8 1    
    16   10    9 2    
    17   11    9 1    
    18   12   11 ar   
    19   16   11 ar   
    20   13   12 ar   
    21   26   12 1    
    22   14   13 ar   
    23   27   13 1    
    24   15   14 ar   
    25   28   14 1    
    26   16   15 ar   
    27   29   15 1    
    28   17   16 1    
    29   19   18 ar   
    30   30   18 1    
    31   20   19 ar   
    32   24   19 1    
    33   21   20 ar   
    34   31   20 1    
    35   22   21 1    
    36   23   22 1    
    37   35   23 1    
    38   36   23 1    
    39   37   23 1    
    40   25   24 1    
    41   38   25 1    
    42   39   25 1    
    43   40   25 1    
@<TRIPOS>SUBSTRUCTURE
     1 0T6803      1 GROUP   
@<TRIPOS>SET

