#    Name: 1hpv_478_1_INTS_M
#    Modification time : Tue Mar 25 05:40:57 2014

@<TRIPOS>MOLECULE
1hpv_478_1_INTS_M
   77     0     9     0     0
SMALL
NO_CHARGES


@<TRIPOS>ATOM
      1 CA          8.0590   17.7415    3.7670 C.3       3 GLC5        0.0000 
      2 CA          9.1760   16.2240    2.9970 C.3       9 GLL5        0.0000 
      3 CA          6.9420   19.2590    4.5370 C.3       6 GLP5        0.0000 
      4 CA          7.3605   15.8455    3.6965 C.3       3 GLC5        0.0000 
      5 CA          5.5450   15.4670    4.3960 C.3       6 GLP5        0.0000 
      6 CA         14.5960   16.7560    8.4860 C.3       3 GLC5        0.0000 
      7 CA         12.4160   16.2780    8.6520 C.3       9 GLL5        0.0000 
      8 CA         16.7760   17.2340    8.3200 C.3       6 GLP5        0.0000 
      9 CA         15.2060   16.0295    7.6490 C.3       3 GLC5        0.0000 
     10 CA         13.6360   14.8250    6.9780 C.3       9 GLL5        0.0000 
     11 CA         10.7545   12.6945    9.9540 C.3       3 GLC5        0.0000 
     12 CA         12.2990   13.7060    8.7650 C.3       9 GLL5        0.0000 
     13 CA          9.2100   11.6830   11.1430 C.3       6 GLP5        0.0000 
     14 CA         10.7890   11.9135    7.2065 C.3       3 GLC5        0.0000 
     15 CA         12.5740   12.4340    8.1160 C.3       9 GLL5        0.0000 
     16 CA          9.0040   11.3930    6.2970 C.3       6 GLP5        0.0000 
     17 CA         10.9375   11.5495    9.0555 C.3       3 GLC5        0.0000 
     18 CA          9.3010   10.6650    9.9950 C.3       6 GLP5        0.0000 
     19 CA         12.8975   10.6545    8.4495 C.3       3 GLC5        0.0000 
     20 CA         13.2210    8.8750    8.7830 C.3       6 GLP5        0.0000 
     21 CA         14.0050   10.6675    7.6095 C.3       3 GLC5        0.0000 
     22 CA         13.3710   12.3570    6.8870 C.3       9 GLL5        0.0000 
     23 CA         14.6390    8.9780    8.3320 C.3       6 GLP5        0.0000 
     24 CA          9.7850   20.5785   10.2605 C.3       3 GLC5        0.0000 
     25 CA          9.6950   18.4110    9.8910 C.3       9 GLL5        0.0000 
     26 CA          9.8750   22.7460   10.6300 C.3       6 GLP5        0.0000 
     27 CA         10.1350   19.4575   11.7615 C.3       3 GLC5        0.0000 
     28 CA         10.5750   20.5040   13.6320 C.3       6 GLP5        0.0000 
     29 CA         11.8750   15.7665   12.7315 C.3       3 GLC5        0.0000 
     30 CA         10.0730   16.3630   13.6040 C.3       9 GLL5        0.0000 
     31 CA         13.6770   15.1700   11.8590 C.3       6 GLP5        0.0000 
     32 CA          9.7200   18.7790   14.6260 C.3       3 GLC5        0.0000 
     33 CA          8.8650   17.0540   15.6200 C.3       9 GLL5        0.0000 
     34 CA          9.5945   17.5840   17.5935 C.3       3 GLC5        0.0000 
     35 CA         10.3240   18.1140   19.5670 C.3       6 GLP5        0.0000 
     36 CA          8.7595   14.9155   16.2330 C.3       3 GLC5        0.0000 
     37 CA          8.6540   12.7770   16.8460 C.3       6 GLP5        0.0000 
     38 CA          6.3280   21.7365    9.5865 C.3       3 GLC5        0.0000 
     39 CA          6.1460   19.9370    9.6140 C.3       9 GLL5        0.0000 
     40 CA          6.5100   23.5360    9.5590 C.3       6 GLP5        0.0000 
     41 CA          4.0545   20.3750    9.6445 C.3       3 GLC5        0.0000 
     42 CA          1.9630   20.8130    9.6750 C.3       6 GLP5        0.0000 
     43 CA          6.1265   20.7330    7.8000 C.3       3 GLC5        0.0000 
     44 CA          6.1070   21.5290    5.9860 C.3       6 GLP5        0.0000 
     45 CA          3.1950   17.2045    9.2565 C.3       3 GLC5        0.0000 
     46 CA          4.8220   17.6950    9.7310 C.3       9 GLL5        0.0000 
     47 CA          1.5680   16.7140    8.7820 C.3       6 GLP5        0.0000 
     48 CA          3.3925   19.2540    9.7030 C.3       3 GLC5        0.0000 
     49 CA          4.8430   15.8275   10.3850 C.3       3 GLC5        0.0000 
     50 CA          4.8640   13.9600   11.0390 C.3       6 GLP5        0.0000 
     51 CA         10.1475   17.3780   -0.2655 C.3       3 GLC5        0.0000 
     52 CA          9.7510   16.6260    1.6330 C.3       9 GLL5        0.0000 
     53 CA         10.5440   18.1300   -2.1640 C.3       6 GLP5        0.0000 
     54 N          11.4400   20.2660    8.0945 N.am      2 SEC2        0.0000 
     55 N          11.4320   19.0300    8.4660 N.am      8 SEL2        0.0000 
     56 N          11.4480   21.5020    7.7230 N.am      5 SEP2        0.0000 
     57 O          12.3505   18.8445    9.5085 O.2       1 ALC1        0.0000 
     58 O          11.4320   19.0300    8.4660 O.2       7 ALL1        0.0000 
     59 O          13.2690   18.6590   10.5510 O.2       4 ALP1        0.0000 
     60 CA         10.2698   18.1265    3.1070 C.3       3 GLC5        0.0000 
     61 CA         11.0760   19.8280    3.8990 C.3       6 GLP5        0.0000 
     62 CA          7.9472   17.0450    1.5785 C.3       3 GLC5        0.0000 
     63 CA          6.4310   17.6650    0.8420 C.3       6 GLP5        0.0000 
     64 CA         13.0691   14.9105   10.2235 C.3       3 GLC5        0.0000 
     65 CA         12.8310   14.9140    8.1700 C.3       9 GLL5        0.0000 
     66 CA         15.3431   12.7296    7.3859 C.3       3 GLC5        0.0000 
     67 CA         17.1190   12.1830    8.0010 C.3       6 GLP5        0.0000 
     68 CA         10.0147   14.3520   13.2200 C.3       3 GLC5        0.0000 
     69 CA         10.5770   12.3320   13.1950 C.3       6 GLP5        0.0000 
     70 CA         11.5378   15.3163   14.9735 C.3       3 GLC5        0.0000 
     71 CA         12.9930   14.1050   15.6490 C.3       6 GLP5        0.0000 
     72 CA         10.8016   18.0850   13.8968 C.3       3 GLC5        0.0000 
     73 CA         10.0920   16.6920   14.9920 C.3       9 GLL5        0.0000 
     74 CA         11.8310   19.6380   13.6750 C.3       6 GLP5        0.0000 
     75 CA          9.0341   14.3210    1.9719 C.3       3 GLC5        0.0000 
     76 CA         10.1130   15.1490    3.5480 C.3       9 GLL5        0.0000 
     77 CA          8.0160   12.8980    1.2880 C.3       6 GLP5        0.0000 
@<TRIPOS>BOND
@<TRIPOS>SUBSTRUCTURE
     1 ALC1       57 GROUP        1 X    ALC  0     ROOT ALC X 1
     2 SEC2       54 GROUP        1 X    SEC  0     **** SEC X 2
     3 GLC5        1 GROUP        1 X    GLC  0     **** GLC X 6
     4 ALP1       59 GROUP        1 Y    ALP  0     ROOT ALP Y 8
     5 SEP2       56 GROUP        1 Y    SEP  0     **** SEP Y 9
     6 GLP5        3 GROUP        1 Y    GLP  0     **** GLP Y 13
     7 ALL1       58 GROUP        1 Z    ALL  0     ROOT ALL Z 15
     8 SEL2       55 GROUP        1 Z    SEL  0     **** SEL Z 16
     9 GLL5        2 GROUP        1 Z    GLL  0     **** GLL Z 20
@<TRIPOS>SET

