#    Name: 1hpv_478_1_ligand
#    Modification time : Tue Mar 25 05:40:57 2014

@<TRIPOS>MOLECULE
1hpv_478_1_ligand
   70    72     1     0     0
SMALL
NO_CHARGES


@<TRIPOS>ATOM
      1 C1         11.1690   14.9770    2.4450 C.3       1 478200      0.0000 
      2 C2          9.1760   16.2240    2.9970 C.3       1 478200      0.0000 
      3 C3         10.1490   15.7020    5.9990 C.2       1 478200      0.0000 
      4 C4         10.1130   15.1490    3.5480 C.3       1 478200      0.0000 
      5 C5         10.9600   16.6620    8.1450 C.3       1 478200      0.0000 
      6 C6         10.3870   18.1190    8.4840 C.3       1 478200      0.0000 
      7 C7         12.4160   16.2780    8.6520 C.3       1 478200      0.0000 
      8 C8         12.8310   14.9140    8.1700 C.ar      1 478200      0.0000 
      9 C9         13.6360   14.8250    6.9780 C.ar      1 478200      0.0000 
     10 C10        12.2990   13.7060    8.7650 C.ar      1 478200      0.0000 
     11 C11        13.8910   13.5660    6.3310 C.ar      1 478200      0.0000 
     12 C12        12.5740   12.4340    8.1160 C.ar      1 478200      0.0000 
     13 C13        13.3710   12.3570    6.8870 C.ar      1 478200      0.0000 
     14 C14         9.6950   18.4110    9.8910 C.3       1 478200      0.0000 
     15 C15         7.3810   17.6970    9.1700 C.3       1 478200      0.0000 
     16 C16         6.1860   18.4060    9.7900 C.3       1 478200      0.0000 
     17 C17         8.8320   16.3810   12.8860 C.ar      1 478200      0.0000 
     18 C18        10.0730   16.3630   13.6040 C.ar      1 478200      0.0000 
     19 C19        10.0920   16.6920   14.9920 C.ar      1 478200      0.0000 
     20 C20         8.8650   17.0540   15.6200 C.ar      1 478200      0.0000 
     21 C21         7.6520   17.0060   14.9260 C.ar      1 478200      0.0000 
     22 C22         7.6390   16.6690   13.5550 C.ar      1 478200      0.0000 
     23 C23         6.1460   19.9370    9.6140 C.3       1 478200      0.0000 
     24 C24         4.8220   17.6950    9.7310 C.3       1 478200      0.0000 
     25 C25         9.7510   16.6260    1.6330 C.3       1 478200      0.0000 
     26 N1         10.9400   16.4720    6.7130 N.am      1 478200      0.0000 
     27 N2          8.5160   17.5800   10.2280 N.pl3     1 478200      0.0000 
     28 N3          8.8400   17.3220   16.8980 N.pl3     1 478200      0.0000 
     29 O1         10.7260   15.6620    4.7310 O.3       1 478200      0.0000 
     30 O2          9.0810   15.3130    6.2870 O.2       1 478200      0.0000 
     31 O3         11.4320   19.0300    8.4660 O.3       1 478200      0.0000 
     32 O4         10.0510   15.5110   10.8470 O.2       1 478200      0.0000 
     33 O5          7.7070   15.1600   11.0710 O.2       1 478200      0.0000 
     34 O6         11.0530   16.0820    1.5150 O.3       1 478200      0.0000 
     35 S1          8.7650   16.1120   11.2000 S.o2      1 478200      0.0000 
     36 H          10.9903   14.0220    1.9548 H         1 478200      0.0000 
     37 H          12.1486   14.9546    2.9183 H         1 478200      0.0000 
     38 H           9.1757   17.0706    3.6480 H         1 478200      0.0000 
     39 H           8.1973   15.8170    2.8661 H         1 478200      0.0000 
     40 H           9.5900   14.2644    3.6742 H         1 478200      0.0000 
     41 H          10.2641   15.9335    8.5984 H         1 478200      0.0000 
     42 H           9.6575   18.3832    7.7164 H         1 478200      0.0000 
     43 H          12.4009   16.3133    9.7401 H         1 478200      0.0000 
     44 H          13.1000   17.0408    8.2834 H         1 478200      0.0000 
     45 H          14.0362   15.6807    6.5824 H         1 478200      0.0000 
     46 H          11.7562   13.7423    9.6006 H         1 478200      0.0000 
     47 H          14.4412   13.5409    5.4790 H         1 478200      0.0000 
     48 H          12.2081   11.5760    8.5189 H         1 478200      0.0000 
     49 H          13.5372   11.4685    6.4604 H         1 478200      0.0000 
     50 H           9.4292   19.4905    9.8907 H         1 478200      0.0000 
     51 H          10.4899   18.2975   10.6600 H         1 478200      0.0000 
     52 H           7.7511   18.2638    8.3284 H         1 478200      0.0000 
     53 H           7.0987   16.7030    8.8557 H         1 478200      0.0000 
     54 H           6.4437   18.3226   10.9847 H         1 478200      0.0000 
     55 H          10.9310   16.1172   13.1247 H         1 478200      0.0000 
     56 H          10.9507   16.6688   15.5140 H         1 478200      0.0000 
     57 H           6.7728   17.2136   15.4051 H         1 478200      0.0000 
     58 H           6.7448   16.6370   13.0520 H         1 478200      0.0000 
     59 H           9.7518   17.7172    1.5850 H         1 478200      0.0000 
     60 H           9.0725   16.2473    0.8654 H         1 478200      0.0000 
     61 H          11.7001   17.0670    6.1977 H         1 478200      0.0000 
     62 H           7.9539   17.5941   17.2733 H         1 478200      0.0000 
     63 H           9.7092   17.2305   17.3839 H         1 478200      0.0000 
     64 H           6.9461   20.3786   10.0201 H         1 478200      0.0000 
     65 H           6.1245   20.1995    8.6493 H         1 478200      0.0000 
     66 H           5.3386   20.3395   10.0454 H         1 478200      0.0000 
     67 H           4.5359   17.5180    8.7893 H         1 478200      0.0000 
     68 H           4.8422   16.8130   10.2019 H         1 478200      0.0000 
     69 H           4.1006   18.2393   10.1591 H         1 478200      0.0000 
     70 H          12.0526   18.7261    9.1889 H         1 478200      0.0000 
@<TRIPOS>BOND
     1    4    1 1    
     2   34    1 1    
     3   36    1 1    
     4   37    1 1    
     5    4    2 1    
     6   25    2 1    
     7   38    2 1    
     8   39    2 1    
     9   26    3 am   
    10   29    3 1    
    11   30    3 2    
    12   29    4 1    
    13   40    4 1    
    14    6    5 1    
    15    7    5 1    
    16   26    5 1    
    17   41    5 1    
    18   14    6 1    
    19   31    6 1    
    20   42    6 1    
    21    8    7 1    
    22   43    7 1    
    23   44    7 1    
    24    9    8 ar   
    25   10    8 ar   
    26   11    9 ar   
    27   45    9 1    
    28   12   10 ar   
    29   46   10 1    
    30   13   11 ar   
    31   47   11 1    
    32   13   12 ar   
    33   48   12 1    
    34   49   13 1    
    35   27   14 1    
    36   50   14 1    
    37   51   14 1    
    38   16   15 1    
    39   27   15 1    
    40   52   15 1    
    41   53   15 1    
    42   23   16 1    
    43   24   16 1    
    44   54   16 1    
    45   18   17 ar   
    46   22   17 ar   
    47   35   17 1    
    48   19   18 ar   
    49   55   18 1    
    50   20   19 ar   
    51   56   19 1    
    52   21   20 ar   
    53   28   20 1    
    54   22   21 ar   
    55   57   21 1    
    56   58   22 1    
    57   64   23 1    
    58   65   23 1    
    59   66   23 1    
    60   67   24 1    
    61   68   24 1    
    62   69   24 1    
    63   34   25 1    
    64   59   25 1    
    65   60   25 1    
    66   61   26 1    
    67   35   27 1    
    68   62   28 1    
    69   63   28 1    
    70   70   31 1    
    71   35   32 2    
    72   35   33 2    
@<TRIPOS>SUBSTRUCTURE
     1 478200      1 GROUP   
@<TRIPOS>SET

