#    Name: 1ke7_LS3_1_INTS_M
#    Modification time : Tue Mar 25 09:51:29 2014

@<TRIPOS>MOLECULE
1ke7_LS3_1_INTS_M
   58     0     9     0     0
SMALL
NO_CHARGES


@<TRIPOS>ATOM
      1 N         -11.4845   52.9650   10.7155 N.am      2 SEC2        0.0000 
      2 N         -10.9100   52.3530   11.7630 N.am      8 SEL2        0.0000 
      3 N         -12.0590   53.5770    9.6680 N.am      5 SEP2        0.0000 
      4 O         -10.4145   53.7995   13.5240 O.2       1 ALC1        0.0000 
      5 O          -9.6420   52.5270   13.6990 O.2       7 ALL1        0.0000 
      6 O         -11.1870   55.0720   13.3490 O.2       4 ALP1        0.0000 
      7 CA         -5.7225   50.9335   14.4565 C.3       3 GLC5        0.0000 
      8 CA         -7.0150   49.4940   15.3550 C.3       9 GLL5        0.0000 
      9 CA         -4.4300   52.3730   13.5580 C.3       6 GLP5        0.0000 
     10 CA        -10.7990   47.7165   12.1315 C.3       3 GLC5        0.0000 
     11 CA        -10.1730   49.4120   11.8460 C.3       9 GLL5        0.0000 
     12 CA        -11.4250   46.0210   12.4170 C.3       6 GLP5        0.0000 
     13 O         -11.3985   50.2670    9.5685 O.2       1 ALC1        0.0000 
     14 O         -10.9420   49.3820   10.5820 O.2       7 ALL1        0.0000 
     15 O         -11.8550   51.1520    8.5550 O.2       4 ALP1        0.0000 
     16 CA         -8.5255   48.7520    9.3750 C.3       3 GLC5        0.0000 
     17 CA        -10.0100   47.3440    9.3940 C.3       9 GLL5        0.0000 
     18 CA         -7.0410   50.1600    9.3560 C.3       6 GLP5        0.0000 
     19 CA        -10.0005   47.5240    6.7895 C.3       3 GLC5        0.0000 
     20 CA        -10.2970   46.1970    8.5330 C.3       9 GLL5        0.0000 
     21 CA         -9.7040   48.8510    5.0460 C.3       6 GLP5        0.0000 
     22 CA         -7.6265   46.2100    7.7805 C.3       3 GLC5        0.0000 
     23 CA         -9.3360   45.1630    8.0910 C.3       9 GLL5        0.0000 
     24 CA         -5.9170   47.2570    7.4700 C.3       6 GLP5        0.0000 
     25 N          -8.5040   46.6635    5.6470 N.am      2 SEC2        0.0000 
     26 N          -9.4570   45.3080    5.5090 N.am      8 SEL2        0.0000 
     27 N          -7.5510   48.0190    5.7850 N.am      5 SEP2        0.0000 
     28 CA        -10.8225   44.3150    5.0490 C.3       3 GLC5        0.0000 
     29 CA        -11.6310   44.8710    6.9850 C.3       9 GLL5        0.0000 
     30 CA        -10.0140   43.7590    3.1130 C.3       6 GLP5        0.0000 
     31 CA        -10.4145   51.8355   15.1935 C.3       3 GLC5        0.0000 
     32 CA         -8.8130   51.6860   14.3930 C.3       9 GLL5        0.0000 
     33 CA        -12.4240   51.8740   15.3840 C.3       6 GLP5        0.0000 
     34 CA         -8.0150   53.7755   14.4085 C.3       3 GLC5        0.0000 
     35 CA         -7.6250   55.7540   13.8140 C.3       6 GLP5        0.0000 
     36 CA         -9.1915   53.2635   15.9740 C.3       3 GLC5        0.0000 
     37 CA         -7.9970   51.9080   15.6130 C.3       9 GLL5        0.0000 
     38 CA         -9.9780   54.7300   16.9450 C.3       6 GLP5        0.0000 
     39 CA         -5.9977   51.8618   14.7095 C.3       3 GLC5        0.0000 
     40 CA         -7.9210   47.9553   16.6593 C.3       3 GLC5        0.0000 
     41 CA         -9.2650   46.9500   17.7310 C.3       6 GLP5        0.0000 
     42 CA         -9.7482   48.8852   15.1828 C.3       3 GLC5        0.0000 
     43 CA         -7.8730   49.3310   14.1390 C.3       9 GLL5        0.0000 
     44 CA        -11.1640   47.9020   16.4430 C.3       6 GLP5        0.0000 
     45 CA         -7.8219   51.1572   12.4891 C.3       3 GLC5        0.0000 
     46 CA         -7.3060   52.1260   10.8840 C.3       6 GLP5        0.0000 
     47 CA        -10.8483   51.1480   14.2742 C.3       3 GLC5        0.0000 
     48 CA         -8.7920   50.4060   13.7060 C.3       9 GLL5        0.0000 
     49 CA         -8.6345   51.0255   11.5592 C.3       3 GLC5        0.0000 
     50 CA         -9.7530   50.4380   12.6230 C.3       9 GLL5        0.0000 
     51 CA        -10.9943   46.9173   11.0002 C.3       3 GLC5        0.0000 
     52 CA        -11.1170   48.2830    9.7730 C.3       9 GLL5        0.0000 
     53 CA        -11.1963   46.0585   10.3337 C.3       3 GLC5        0.0000 
     54 CA        -13.5350   46.8605   10.3170 C.3       3 GLC5        0.0000 
     55 CA        -12.4880   48.0360    9.2410 C.3       9 GLL5        0.0000 
     56 CA        -14.4450   46.2620   11.8380 C.3       6 GLP5        0.0000 
     57 CA        -12.7575   49.0605    7.4165 C.3       3 GLC5        0.0000 
     58 CA        -12.8900   50.6620    6.0370 C.3       6 GLP5        0.0000 
@<TRIPOS>BOND
@<TRIPOS>SUBSTRUCTURE
     1 ALC1        4 GROUP        1 X    ALC  0     ROOT ALC X 1
     2 SEC2        1 GROUP        1 X    SEC  0     **** SEC X 2
     3 GLC5        7 GROUP        1 X    GLC  0     **** GLC X 6
     4 ALP1        6 GROUP        1 Y    ALP  0     ROOT ALP Y 8
     5 SEP2        3 GROUP        1 Y    SEP  0     **** SEP Y 9
     6 GLP5        9 GROUP        1 Y    GLP  0     **** GLP Y 13
     7 ALL1        5 GROUP        1 Z    ALL  0     ROOT ALL Z 15
     8 SEL2        2 GROUP        1 Z    SEL  0     **** SEL Z 16
     9 GLL5        8 GROUP        1 Z    GLL  0     **** GLL Z 20
@<TRIPOS>SET

