#    Name: 1ke7_LS3_1_ligand
#    Modification time : Tue Mar 25 09:51:29 2014

@<TRIPOS>MOLECULE
1ke7_LS3_1_ligand
   43    47     1     0     0
SMALL
NO_CHARGES


@<TRIPOS>ATOM
      1 O5        -10.9100   52.3530   11.7630 O.2       1 LS3299      0.0000 
      2 C6        -10.1870   51.8690   12.6200 C.2       1 LS3299      0.0000 
      3 N7         -9.6420   52.5270   13.6990 N.am      1 LS3299      0.0000 
      4 C8         -8.8130   51.6860   14.3930 C.ar      1 LS3299      0.0000 
      5 C9         -7.9970   51.9080   15.6130 C.ar      1 LS3299      0.0000 
      6 C10        -7.1340   50.7930   16.1090 C.ar      1 LS3299      0.0000 
      7 C11        -7.0150   49.4940   15.3550 C.ar      1 LS3299      0.0000 
      8 C12        -6.1390   48.4270   15.8200 C.2       1 LS3299      0.0000 
      9 O13        -5.8340   48.2230   17.1420 O.3       1 LS3299      0.0000 
     10 C14        -5.1820   47.0170   17.1810 C.2       1 LS3299      0.0000 
     11 N15        -4.8760   46.5750   15.9410 N.2       1 LS3299      0.0000 
     12 C16        -5.4640   47.4140   15.0610 C.2       1 LS3299      0.0000 
     13 C17        -7.8730   49.3310   14.1390 C.ar      1 LS3299      0.0000 
     14 C18        -8.7920   50.4060   13.7060 C.ar      1 LS3299      0.0000 
     15 C19        -9.7530   50.4380   12.6230 C.2       1 LS3299      0.0000 
     16 C20       -10.1730   49.4120   11.8460 C.2       1 LS3299      0.0000 
     17 N21       -10.9420   49.3820   10.5820 N.pl3     1 LS3299      0.0000 
     18 C22       -11.1170   48.2830    9.7730 C.ar      1 LS3299      0.0000 
     19 C23       -10.0100   47.3440    9.3940 C.ar      1 LS3299      0.0000 
     20 C24       -10.2970   46.1970    8.5330 C.ar      1 LS3299      0.0000 
     21 C25        -9.3360   45.1630    8.0910 C.3       1 LS3299      0.0000 
     22 S26        -9.9210   44.4500    6.5620 S.o2      1 LS3299      0.0000 
     23 O27        -9.6840   43.0320    6.5110 O.2       1 LS3299      0.0000 
     24 O28        -9.4570   45.3080    5.5090 O.2       1 LS3299      0.0000 
     25 C29       -11.6310   44.8710    6.9850 C.3       1 LS3299      0.0000 
     26 C30       -11.6380   45.9950    7.9680 C.ar      1 LS3299      0.0000 
     27 C31       -12.7620   46.8820    8.3510 C.ar      1 LS3299      0.0000 
     28 C32       -12.4880   48.0360    9.2410 C.ar      1 LS3299      0.0000 
     29 H          -9.8207   53.4491   13.9304 H         1 LS3299      0.0000 
     30 H          -8.0205   52.7699   16.0887 H         1 LS3299      0.0000 
     31 H          -6.6203   50.9072   16.9629 H         1 LS3299      0.0000 
     32 H          -4.9687   46.5416   18.0134 H         1 LS3299      0.0000 
     33 H          -5.4607   47.3826   14.1186 H         1 LS3299      0.0000 
     34 H          -7.8182   48.4771   13.6153 H         1 LS3299      0.0000 
     35 H          -9.9138   48.3895   12.1835 H         1 LS3299      0.0000 
     36 H         -11.3805   50.3069   10.3109 H         1 LS3299      0.0000 
     37 H          -9.0905   47.5150    9.7352 H         1 LS3299      0.0000 
     38 H          -9.2747   44.3135    8.7306 H         1 LS3299      0.0000 
     39 H          -8.3776   45.5380    7.8164 H         1 LS3299      0.0000 
     40 H         -11.9978   43.9477    7.3667 H         1 LS3299      0.0000 
     41 H         -12.0406   45.1137    6.0331 H         1 LS3299      0.0000 
     42 H         -13.6766   46.7080    8.0198 H         1 LS3299      0.0000 
     43 H         -13.2318   48.6603    9.4904 H         1 LS3299      0.0000 
@<TRIPOS>BOND
     1    2    1 2    
     2    3    2 am   
     3   15    2 1    
     4    4    3 1    
     5   29    3 1    
     6    5    4 ar   
     7   14    4 ar   
     8    6    5 ar   
     9   30    5 1    
    10    7    6 ar   
    11   31    6 1    
    12    8    7 1    
    13   13    7 ar   
    14    9    8 1    
    15   12    8 2    
    16   10    9 1    
    17   11   10 2    
    18   32   10 1    
    19   12   11 1    
    20   33   12 1    
    21   14   13 ar   
    22   34   13 1    
    23   15   14 1    
    24   16   15 2    
    25   17   16 1    
    26   35   16 1    
    27   18   17 1    
    28   36   17 1    
    29   19   18 ar   
    30   28   18 ar   
    31   20   19 ar   
    32   37   19 1    
    33   21   20 1    
    34   26   20 ar   
    35   22   21 1    
    36   38   21 1    
    37   39   21 1    
    38   23   22 2    
    39   24   22 2    
    40   25   22 1    
    41   26   25 1    
    42   40   25 1    
    43   41   25 1    
    44   27   26 ar   
    45   28   27 ar   
    46   42   27 1    
    47   43   28 1    
@<TRIPOS>SUBSTRUCTURE
     1 LS3299      1 GROUP   
@<TRIPOS>SET

