#    Name: 1hi0_GTP_4_INTS_M
#    Modification time : Tue Mar 25 05:30:52 2014

@<TRIPOS>MOLECULE
1hi0_GTP_4_INTS_M
   38     0    15     0     0
SMALL
NO_CHARGES


@<TRIPOS>ATOM
      1 NZ         51.1585   21.3465   62.6475 N.4       3 LYC4        0.0000 
      2 NZ         52.2340   21.2910   63.6180 N.4      13 LYL4        0.0000 
      3 NZ         49.1670   20.4510   61.7750 N.4       8 LYP4        0.0000 
      4 N          51.1585   21.3465   62.6475 N.am      2 SEC2        0.0000 
      5 N          52.2340   21.2910   63.6180 N.am     12 SEL2        0.0000 
      6 N          50.0830   21.4020   61.6770 N.am      7 SEP2        0.0000 
      7 N          54.6750   23.4640   65.3995 N.am      2 SEC2        0.0000 
      8 N          54.4660   22.3360   64.1130 N.am     12 SEL2        0.0000 
      9 N          54.8840   24.5920   66.6860 N.am      7 SEP2        0.0000 
     10 N          56.9830   24.2315   64.2685 N.am      2 SEC2        0.0000 
     11 N          56.9330   22.7990   63.4310 N.am     12 SEL2        0.0000 
     12 N          57.0330   25.6640   65.1060 N.am      7 SEP2        0.0000 
     13 N          54.3470   22.1590   60.5100 N.am      2 SEC2        0.0000 
     14 N          55.3860   21.7270   61.7560 N.am     12 SEL2        0.0000 
     15 N          53.3080   22.5910   59.2640 N.am      7 SEP2        0.0000 
     16 Zn         56.1455   18.4110   62.4725 Zn        4 ZIC7        0.0000 
     17 Zn         56.6000   19.4840   61.9540 Zn       14 ZIL7        0.0000 
     18 Zn         55.6910   17.3380   62.9910 Zn        9 ZIP7        0.0000 
     19 N          57.4415   18.8450   61.1350 N.am      2 SEC2        0.0000 
     20 N          56.6000   19.4840   61.9540 N.am     12 SEL2        0.0000 
     21 N          58.2830   18.2060   60.3160 N.am      7 SEP2        0.0000 
     22 NZ         54.9570   21.6925   58.9805 N.4       3 LYC4        0.0000 
     23 NZ         55.8540   20.3650   59.7040 N.4      13 LYL4        0.0000 
     24 NZ         54.0600   23.0200   58.2570 N.4       8 LYP4        0.0000 
     25 N          57.0685   19.2855   60.0100 N.am      2 SEC2        0.0000 
     26 N          55.8540   20.3650   59.7040 N.am     12 SEL2        0.0000 
     27 CA         60.3570   24.8170   60.5530 C.3       5 GLC5        0.0000 
     28 CA         59.8950   23.7830   58.8290 C.3      15 GLL5        0.0000 
     29 CA         60.8190   25.8510   62.2770 C.3      10 GLP5        0.0000 
     30 N          60.0925   25.3760   59.7715 N.am      2 SEC2        0.0000 
     31 N          61.0930   24.2310   59.4090 N.am     12 SEL2        0.0000 
     32 N          59.0920   26.5210   60.1340 N.am      7 SEP2        0.0000 
     33 N          54.2765   21.3475   54.0450 N.am      2 SEC2        0.0000 
     34 N          55.0330   22.4610   52.9470 N.am     12 SEL2        0.0000 
     35 N          53.5200   20.2340   55.1430 N.am      7 SEP2        0.0000 
     36 O          59.3245   26.0495   52.1505 O.2       1 ALC1        0.0000 
     37 O          59.1190   24.6300   52.3510 O.2      11 ALL1        0.0000 
     38 O          59.5300   27.4690   51.9500 O.2       6 ALP1        0.0000 
@<TRIPOS>BOND
@<TRIPOS>SUBSTRUCTURE
     1 ALC1       36 GROUP        1 X    ALC  0     ROOT ALC X 1
     2 SEC2        4 GROUP        1 X    SEC  0     **** SEC X 2
     3 LYC4        1 GROUP        1 X    LYC  0     **** LYC X 4
     4 ZIC7       16 GROUP        1 X    ZIC  0     **** ZIC X 5
     5 GLC5       27 GROUP        1 X    GLC  0     **** GLC X 6
     6 ALP1       38 GROUP        1 Y    ALP  0     ROOT ALP Y 8
     7 SEP2        6 GROUP        1 Y    SEP  0     **** SEP Y 9
     8 LYP4        3 GROUP        1 Y    LYP  0     **** LYP Y 11
     9 ZIP7       18 GROUP        1 Y    ZIP  0     **** ZIP Y 12
    10 GLP5       29 GROUP        1 Y    GLP  0     **** GLP Y 13
    11 ALL1       37 GROUP        1 Z    ALL  0     ROOT ALL Z 15
    12 SEL2        5 GROUP        1 Z    SEL  0     **** SEL Z 16
    13 LYL4        2 GROUP        1 Z    LYL  0     **** LYL Z 18
    14 ZIL7       17 GROUP        1 Z    ZIL  0     **** ZIL Z 19
    15 GLL5       28 GROUP        1 Z    GLL  0     **** GLL Z 20
@<TRIPOS>SET

