#    Name: 1hi0_GTP_4_ligand
#    Modification time : Tue Mar 25 05:30:52 2014

@<TRIPOS>MOLECULE
1hi0_GTP_4_ligand
   44    46     1     0     0
SMALL
NO_CHARGES


@<TRIPOS>ATOM
      1 PG         53.5020   20.9740   64.3820 P.3       1 GTP667      0.0000 
      2 O1G        52.2340   21.2910   63.6180 O.co2     1 GTP667      0.0000 
      3 O2G        54.2600   19.7470   63.8840 O.co2     1 GTP667      0.0000 
      4 O3G        53.1560   20.9300   65.8090 O.co2     1 GTP667      0.0000 
      5 O3B        54.4660   22.3360   64.1130 O.3       1 GTP667      0.0000 
      6 PB         55.5600   22.8160   62.8840 P.3       1 GTP667      0.0000 
      7 O1B        55.1470   24.1980   62.3410 O.co2     1 GTP667      0.0000 
      8 O2B        56.9330   22.7990   63.4310 O.co2     1 GTP667      0.0000 
      9 O3A        55.3860   21.7270   61.7560 O.3       1 GTP667      0.0000 
     10 PA         56.4160   20.6490   61.1070 P.3       1 GTP667      0.0000 
     11 O1A        56.6000   19.4840   61.9540 O.co2     1 GTP667      0.0000 
     12 O2A        55.8540   20.3650   59.7040 O.co2     1 GTP667      0.0000 
     13 O5'        57.9150   21.4870   61.0930 O.3       1 GTP667      0.0000 
     14 C5'        57.9570   22.7680   60.2880 C.3       1 GTP667      0.0000 
     15 C4'        59.3690   22.5630   59.4820 C.3       1 GTP667      0.0000 
     16 O4'        59.2230   21.5760   58.4420 O.3       1 GTP667      0.0000 
     17 C3'        59.8950   23.7830   58.8290 C.3       1 GTP667      0.0000 
     18 O3'        61.0930   24.2310   59.4090 O.3       1 GTP667      0.0000 
     19 C2'        60.0660   23.6160   57.2710 C.3       1 GTP667      0.0000 
     20 O2'        61.3130   23.7960   56.8200 O.3       1 GTP667      0.0000 
     21 C1'        59.5340   22.0060   57.0960 C.3       1 GTP667      0.0000 
     22 N9         58.2080   21.9250   56.2590 N.pl3     1 GTP667      0.0000 
     23 C8         57.0860   21.1790   56.6870 C.2       1 GTP667      0.0000 
     24 N7         56.2460   21.4160   55.6540 N.2       1 GTP667      0.0000 
     25 C5         56.7390   22.2320   54.6320 C.2       1 GTP667      0.0000 
     26 C6         56.1510   22.6090   53.5470 C.2       1 GTP667      0.0000 
     27 O6         55.0330   22.4610   52.9470 O.2       1 GTP667      0.0000 
     28 N1         57.0690   23.5130   52.6980 N.am      1 GTP667      0.0000 
     29 C2         58.2540   23.7460   53.1970 C.2       1 GTP667      0.0000 
     30 N2         59.1190   24.6300   52.3510 N.pl3     1 GTP667      0.0000 
     31 N3         58.8760   23.3530   54.3370 N.2       1 GTP667      0.0000 
     32 C4         57.9890   22.5520   55.0280 C.2       1 GTP667      0.0000 
     33 H          58.0748   23.6030   60.8932 H         1 GTP667      0.0000 
     34 H          57.2051   22.8021   59.5733 H         1 GTP667      0.0000 
     35 H          60.0854   22.2085   60.2233 H         1 GTP667      0.0000 
     36 H          59.1142   24.5844   58.9357 H         1 GTP667      0.0000 
     37 H          59.2668   24.1673   56.8215 H         1 GTP667      0.0000 
     38 H          60.3009   21.4868   56.6559 H         1 GTP667      0.0000 
     39 H          56.9975   20.6975   57.4399 H         1 GTP667      0.0000 
     40 H          56.6784   23.8388   51.8460 H         1 GTP667      0.0000 
     41 H          59.3281   24.2928   51.4331 H         1 GTP667      0.0000 
     42 H          59.4178   25.4864   52.7721 H         1 GTP667      0.0000 
     43 H          61.7473   24.2698   58.6538 H         1 GTP667      0.0000 
     44 H          61.6478   22.8771   56.6114 H         1 GTP667      0.0000 
@<TRIPOS>BOND
     1    2    1 ar   
     2    3    1 ar   
     3    4    1 ar   
     4    5    1 1    
     5    6    5 1    
     6    7    6 ar   
     7    8    6 ar   
     8    9    6 1    
     9   10    9 1    
    10   11   10 ar   
    11   12   10 ar   
    12   13   10 1    
    13   14   13 1    
    14   15   14 1    
    15   33   14 1    
    16   34   14 1    
    17   16   15 1    
    18   17   15 1    
    19   35   15 1    
    20   21   16 1    
    21   18   17 1    
    22   19   17 1    
    23   36   17 1    
    24   43   18 1    
    25   20   19 1    
    26   21   19 1    
    27   37   19 1    
    28   44   20 1    
    29   22   21 1    
    30   38   21 1    
    31   23   22 1    
    32   32   22 1    
    33   24   23 2    
    34   39   23 1    
    35   25   24 1    
    36   26   25 1    
    37   32   25 2    
    38   27   26 2    
    39   28   26 am   
    40   29   28 1    
    41   40   28 1    
    42   30   29 1    
    43   31   29 2    
    44   41   30 1    
    45   42   30 1    
    46   32   31 1    
@<TRIPOS>SUBSTRUCTURE
     1 GTP667      1 GROUP   
@<TRIPOS>SET

