#    Name: 3nf8_CDQ_2_INTS_M
#    Modification time : Tue Mar 25 01:28:03 2014

@<TRIPOS>MOLECULE
3nf8_CDQ_2_INTS_M
   53     0     3     0     0
SMALL
NO_CHARGES


@<TRIPOS>ATOM
      1 CA          5.5110  -26.8830   -6.8825 C.3       1 GLC5        0.0000 
      2 CA          6.2510  -27.1470   -8.7640 C.3       3 GLL5        0.0000 
      3 CA          4.7710  -26.6190   -5.0010 C.3       2 GLP5        0.0000 
      4 CA         10.5955  -25.5440   -7.9010 C.3       1 GLC5        0.0000 
      5 CA         11.4350  -26.7310   -9.3570 C.3       3 GLL5        0.0000 
      6 CA          9.7560  -24.3570   -6.4450 C.3       2 GLP5        0.0000 
      7 CA         16.4905  -27.3695  -12.4490 C.3       1 GLC5        0.0000 
      8 CA         16.0960  -27.7380  -10.7540 C.3       3 GLL5        0.0000 
      9 CA         16.8850  -27.0010  -14.1440 C.3       2 GLP5        0.0000 
     10 CA         17.2265  -29.3835  -11.1385 C.3       1 GLC5        0.0000 
     11 CA         18.3570  -31.0290  -11.5230 C.3       2 GLP5        0.0000 
     12 CA         18.0225  -27.2135  -10.9060 C.3       1 GLC5        0.0000 
     13 CA         19.9490  -26.6890  -11.0580 C.3       2 GLP5        0.0000 
     14 CA         16.0510  -28.8270   -7.6485 C.3       1 GLC5        0.0000 
     15 CA         15.9140  -28.5730   -9.5660 C.3       3 GLL5        0.0000 
     16 CA         16.1880  -29.0810   -5.7310 C.3       2 GLP5        0.0000 
     17 CA         14.1495  -29.5485   -9.9670 C.3       1 GLC5        0.0000 
     18 CA         12.3850  -30.5240  -10.3680 C.3       2 GLP5        0.0000 
     19 CA         16.7000  -30.2125  -10.0545 C.3       1 GLC5        0.0000 
     20 CA         17.4860  -31.8520  -10.5430 C.3       2 GLP5        0.0000 
     21 CA          5.3555  -31.1000   -6.9305 C.3       1 GLC5        0.0000 
     22 CA          5.3950  -29.7620   -8.5090 C.3       3 GLL5        0.0000 
     23 CA          5.3160  -32.4380   -5.3520 C.3       2 GLP5        0.0000 
     24 CA          4.4925  -29.3225   -6.6660 C.3       1 GLC5        0.0000 
     25 CA          3.5900  -28.8830   -4.8230 C.3       2 GLP5        0.0000 
     26 CA          5.8190  -29.4330  -10.6340 C.3       1 GLC5        0.0000 
     27 CA          6.2430  -29.1040  -12.7590 C.3       2 GLP5        0.0000 
     28 CA          7.9320  -28.4850   -7.6000 C.3       1 GLC5        0.0000 
     29 CA          6.4640  -28.5010   -9.0000 C.3       3 GLL5        0.0000 
     30 CA          8.8340  -28.2360   -5.8850 C.3       2 GLP5        0.0000 
     31 CA          9.6755  -29.5617   -9.4110 C.3       1 GLC5        0.0000 
     32 CA          7.5960  -28.9670   -9.6300 C.3       3 GLL5        0.0000 
     33 CA         11.2590  -30.5780   -8.9710 C.3       2 GLP5        0.0000 
     34 CA          8.6562  -27.8442   -7.9212 C.3       1 GLC5        0.0000 
     35 CA          8.5880  -28.1240  -10.0720 C.3       3 GLL5        0.0000 
     36 CA          7.3607  -28.2782  -11.3582 C.3       1 GLC5        0.0000 
     37 CA          7.7915  -27.4787   -7.4352 C.3       1 GLC5        0.0000 
     38 CA          7.2470  -26.2960   -9.2070 C.3       3 GLL5        0.0000 
     39 CA          6.4417  -28.5222  -10.8993 C.3       1 GLC5        0.0000 
     40 CA          8.6588  -25.0166   -7.8870 C.3       1 GLC5        0.0000 
     41 CA          8.3690  -26.7810   -9.8430 C.3       3 GLL5        0.0000 
     42 CA         12.2230  -28.5275  -10.7170 C.3       1 GLC5        0.0000 
     43 CA         11.4910  -26.4070  -10.6990 C.3       3 GLL5        0.0000 
     44 CA         11.6182  -28.8015   -9.0195 C.3       1 GLC5        0.0000 
     45 CA         12.5200  -27.3190   -8.7790 C.3       3 GLL5        0.0000 
     46 CA         13.1235  -27.9712   -7.2918 C.3       1 GLC5        0.0000 
     47 CA         13.1550  -28.4920   -5.4520 C.3       2 GLP5        0.0000 
     48 CA         14.1655  -26.3858   -8.0018 C.3       1 GLC5        0.0000 
     49 CA         15.2390  -25.3210   -6.8720 C.3       2 GLP5        0.0000 
     50 CA         13.0373  -28.9685  -10.2570 C.3       1 GLC5        0.0000 
     51 CA         13.6640  -27.5820   -9.4840 C.3       3 GLL5        0.0000 
     52 CA         16.1610  -26.7152   -8.9200 C.3       1 GLC5        0.0000 
     53 CA         16.3170  -25.2750   -7.6800 C.3       2 GLP5        0.0000 
@<TRIPOS>BOND
@<TRIPOS>SUBSTRUCTURE
     1 GLC5        1 GROUP        1 X    GLC  0     ROOT GLC X 6
     2 GLP5        3 GROUP        1 Y    GLP  0     ROOT GLP Y 13
     3 GLL5        2 GROUP        1 Z    GLL  0     ROOT GLL Z 20
@<TRIPOS>SET

