#    Name: 3nf8_CDQ_2_ligand
#    Modification time : Tue Mar 25 01:28:04 2014

@<TRIPOS>MOLECULE
3nf8_CDQ_2_ligand
   38    41     1     0     0
SMALL
NO_CHARGES


@<TRIPOS>ATOM
      1 C1          6.4640  -28.5010   -9.0000 C.ar      1 CDQ247      0.0000 
      2 C2          7.5960  -28.9670   -9.6300 C.ar      1 CDQ247      0.0000 
      3 C3          8.5880  -28.1240  -10.0720 C.ar      1 CDQ247      0.0000 
      4 C4          8.3690  -26.7810   -9.8430 C.ar      1 CDQ247      0.0000 
      5 C5          7.2470  -26.2960   -9.2070 C.ar      1 CDQ247      0.0000 
      6 C6          6.2510  -27.1470   -8.7640 C.ar      1 CDQ247      0.0000 
      7 C7          7.3150  -24.8140   -9.1330 C.3       1 CDQ247      0.0000 
      8 C8          8.6410  -24.5380   -9.7800 C.2       1 CDQ247      0.0000 
      9 O9          9.1410  -23.4300   -9.8880 O.2       1 CDQ247      0.0000 
     10 N10         9.2200  -25.7380  -10.1890 N.am      1 CDQ247      0.0000 
     11 C11        10.2390  -25.7970  -11.2200 C.3       1 CDQ247      0.0000 
     12 C12        11.4910  -26.4070  -10.6990 C.ar      1 CDQ247      0.0000 
     13 C13        11.4350  -26.7310   -9.3570 C.ar      1 CDQ247      0.0000 
     14 C14        12.5200  -27.3190   -8.7790 C.ar      1 CDQ247      0.0000 
     15 C15        13.6640  -27.5820   -9.4840 C.ar      1 CDQ247      0.0000 
     16 C16        13.7150  -27.2440  -10.8080 C.ar      1 CDQ247      0.0000 
     17 C17        12.6310  -26.6550  -11.4330 C.ar      1 CDQ247      0.0000 
     18 C18        12.7450  -26.3560  -12.8980 C.2       1 CDQ247      0.0000 
     19 O19        13.4750  -25.4120  -13.2710 O.co2     1 CDQ247      0.0000 
     20 O20        12.1180  -27.1350  -13.6860 O.co2     1 CDQ247      0.0000 
     21 O21        14.8570  -27.5220  -11.4990 O.3       1 CDQ247      0.0000 
     22 C22        16.0960  -27.7380  -10.7540 C.3       1 CDQ247      0.0000 
     23 C23        15.9140  -28.5730   -9.5660 C.3       1 CDQ247      0.0000 
     24 O24        14.7210  -28.1680   -8.8240 O.3       1 CDQ247      0.0000 
     25 CL25        5.3950  -29.7620   -8.5090 Cl        1 CDQ247      0.0000 
     26 H           7.7044  -29.9995   -9.7772 H         1 CDQ247      0.0000 
     27 H           9.4134  -28.4590  -10.5289 H         1 CDQ247      0.0000 
     28 H           5.4284  -26.8138   -8.3029 H         1 CDQ247      0.0000 
     29 H           7.3305  -24.4910   -8.1233 H         1 CDQ247      0.0000 
     30 H           6.5358  -24.3756   -9.7029 H         1 CDQ247      0.0000 
     31 H          10.4633  -24.7854  -11.5978 H         1 CDQ247      0.0000 
     32 H           9.8827  -26.3887  -12.0798 H         1 CDQ247      0.0000 
     33 H          10.5887  -26.5292   -8.8136 H         1 CDQ247      0.0000 
     34 H          12.4804  -27.5794   -7.7624 H         1 CDQ247      0.0000 
     35 H          16.5257  -26.7560  -10.4545 H         1 CDQ247      0.0000 
     36 H          16.8549  -28.2038  -11.4216 H         1 CDQ247      0.0000 
     37 H          16.8022  -28.4955   -8.9164 H         1 CDQ247      0.0000 
     38 H          15.8271  -29.6315   -9.8642 H         1 CDQ247      0.0000 
@<TRIPOS>BOND
     1    2    1 ar   
     2    6    1 ar   
     3   25    1 1    
     4    3    2 ar   
     5   26    2 1    
     6    4    3 ar   
     7   27    3 1    
     8    5    4 ar   
     9   10    4 1    
    10    6    5 ar   
    11    7    5 1    
    12   28    6 1    
    13    8    7 1    
    14   29    7 1    
    15   30    7 1    
    16    9    8 2    
    17   10    8 am   
    18   11   10 1    
    19   12   11 1    
    20   31   11 1    
    21   32   11 1    
    22   13   12 ar   
    23   17   12 ar   
    24   14   13 ar   
    25   33   13 1    
    26   15   14 ar   
    27   34   14 1    
    28   16   15 ar   
    29   24   15 1    
    30   17   16 ar   
    31   21   16 1    
    32   18   17 1    
    33   19   18 ar   
    34   20   18 ar   
    35   22   21 1    
    36   23   22 1    
    37   35   22 1    
    38   36   22 1    
    39   24   23 1    
    40   37   23 1    
    41   38   23 1    
@<TRIPOS>SUBSTRUCTURE
     1 CDQ247      1 GROUP   
@<TRIPOS>SET

