#    Name: 4b05_32D_1_INTS_M
#    Modification time : Tue Mar 25 06:26:16 2014

@<TRIPOS>MOLECULE
4b05_32D_1_INTS_M
   63     0     9     0     0
SMALL
NO_CHARGES


@<TRIPOS>ATOM
      1 CA          4.2145    3.0325  -15.2375 C.3       3 GLC5        0.0000 
      2 CA          5.2130    4.4070  -16.5580 C.3       9 GLL5        0.0000 
      3 CA          3.2160    1.6580  -13.9170 C.3       6 GLP5        0.0000 
      4 CA          2.5755    2.1540  -18.7270 C.3       3 GLC5        0.0000 
      5 CA          4.1170    3.5120  -19.3240 C.3       9 GLL5        0.0000 
      6 CA          1.0340    0.7960  -18.1300 C.3       6 GLP5        0.0000 
      7 O           2.9700    3.2925  -21.1590 O.2       1 ALC1        0.0000 
      8 O           4.0820    3.0720  -20.5470 O.2       7 ALL1        0.0000 
      9 O           1.8580    3.5130  -21.7710 O.2       4 ALP1        0.0000 
     10 CA          5.8310   -4.7815  -20.2650 C.3       3 GLC5        0.0000 
     11 CA          5.3190   -3.1660  -19.5380 C.3       9 GLL5        0.0000 
     12 CA          6.3430   -6.3970  -20.9920 C.3       6 GLP5        0.0000 
     13 CA          3.3270   -5.7555  -18.3745 C.3       3 GLC5        0.0000 
     14 CA          3.6220   -3.8310  -18.2040 C.3       9 GLL5        0.0000 
     15 CA          3.0320   -7.6800  -18.5450 C.3       6 GLP5        0.0000 
     16 CA          1.8750   -4.5685  -18.6145 C.3       3 GLC5        0.0000 
     17 CA          0.1280   -5.3060  -19.0250 C.3       6 GLP5        0.0000 
     18 CA          2.1990   -0.5705  -18.7690 C.3       3 GLC5        0.0000 
     19 CA          3.3640   -1.9370  -19.4080 C.3       9 GLL5        0.0000 
     20 CA          8.3900    6.5460  -24.4800 C.3       3 GLC5        0.0000 
     21 CA          7.2710    5.2430  -23.2350 C.3       9 GLL5        0.0000 
     22 CA          9.5090    7.8490  -25.7250 C.3       6 GLP5        0.0000 
     23 N           7.1485    5.1370  -25.7145 N.am      2 SEC2        0.0000 
     24 N           6.5160    5.4010  -24.3230 N.am      8 SEL2        0.0000 
     25 N           7.7810    4.8730  -27.1060 N.am      5 SEP2        0.0000 
     26 CA          4.4165    2.0775  -23.9685 C.3       3 GLC5        0.0000 
     27 CA          4.9460    3.8690  -23.3600 C.3       9 GLL5        0.0000 
     28 CA          3.8870    0.2860  -24.5770 C.3       6 GLP5        0.0000 
     29 CA          4.1980    3.7395  -28.2960 C.3       3 GLC5        0.0000 
     30 CA          4.3210    3.7920  -26.3130 C.3       9 GLL5        0.0000 
     31 CA          4.0750    3.6870  -30.2790 C.3       6 GLP5        0.0000 
     32 CA          5.2860    2.1170  -26.6025 C.3       3 GLC5        0.0000 
     33 CA          6.2510    0.4420  -26.8920 C.3       6 GLP5        0.0000 
     34 CA          3.1550    2.4290  -26.2335 C.3       3 GLC5        0.0000 
     35 CA          1.9890    1.0660  -26.1540 C.3       6 GLP5        0.0000 
     36 O           1.8155    3.6540  -19.2580 O.2       1 ALC1        0.0000 
     37 O           3.0330    3.8580  -18.5610 O.2       7 ALL1        0.0000 
     38 O           0.5980    3.4500  -19.9550 O.2       4 ALP1        0.0000 
     39 O           2.4455    3.6855  -20.1660 O.2       1 ALC1        0.0000 
     40 O           2.7805    4.1445  -17.1635 O.2       1 ALC1        0.0000 
     41 O           2.5280    4.4310  -15.7660 O.2       4 ALP1        0.0000 
     42 CA          4.9953    0.6963  -23.2050 C.3       3 GLC5        0.0000 
     43 CA          5.6710    1.3070  -21.3290 C.3       9 GLL5        0.0000 
     44 CA          5.1465   -0.3143  -23.3990 C.3       3 GLC5        0.0000 
     45 CA          6.7260   -0.4340  -22.6020 C.3       9 GLL5        0.0000 
     46 CA          3.2820   -0.6935  -21.5143 C.3       3 GLC5        0.0000 
     47 CA          5.2340   -1.0330  -20.8130 C.3       9 GLL5        0.0000 
     48 CA          1.4240   -1.0320  -22.3330 C.3       6 GLP5        0.0000 
     49 CA          4.5135   -0.0345  -22.6363 C.3       3 GLC5        0.0000 
     50 CA          2.7100   -1.5108  -21.0065 C.3       3 GLC5        0.0000 
     51 CA          4.6280   -2.0420  -19.9520 C.3       9 GLL5        0.0000 
     52 CA          3.8915    5.2302  -22.7617 C.3       3 GLC5        0.0000 
     53 CA          5.7520    3.6940  -22.2230 C.3       9 GLL5        0.0000 
     54 CA          2.4340    6.6790  -22.7320 C.3       6 GLP5        0.0000 
     55 CA          3.4043    6.5415  -27.0665 C.3       3 GLC5        0.0000 
     56 CA          3.4530    5.7240  -25.6200 C.3       9 GLL5        0.0000 
     57 CA          2.7840    7.7480  -28.4960 C.3       6 GLP5        0.0000 
     58 CA          5.9987    4.8060  -27.1968 C.3       3 GLC5        0.0000 
     59 CA          4.5960    4.9460  -25.6540 C.3       9 GLL5        0.0000 
     60 CA          7.5390    5.2430  -28.4100 C.3       6 GLP5        0.0000 
     61 CA          2.7512    3.6555  -25.3300 C.3       3 GLC5        0.0000 
     62 CA          1.4780    1.9760  -25.0230 C.3       6 GLP5        0.0000 
     63 CA          3.3246    5.9810  -24.0245 C.3       3 GLC5        0.0000 
@<TRIPOS>BOND
@<TRIPOS>SUBSTRUCTURE
     1 ALC1        7 GROUP        1 X    ALC  0     ROOT ALC X 1
     2 SEC2       23 GROUP        1 X    SEC  0     **** SEC X 2
     3 GLC5        1 GROUP        1 X    GLC  0     **** GLC X 6
     4 ALP1        9 GROUP        1 Y    ALP  0     ROOT ALP Y 8
     5 SEP2       25 GROUP        1 Y    SEP  0     **** SEP Y 9
     6 GLP5        3 GROUP        1 Y    GLP  0     **** GLP Y 13
     7 ALL1        8 GROUP        1 Z    ALL  0     ROOT ALL Z 15
     8 SEL2       24 GROUP        1 Z    SEL  0     **** SEL Z 16
     9 GLL5        2 GROUP        1 Z    GLL  0     **** GLL Z 20
@<TRIPOS>SET

