#    Name: 4b05_32D_1_ligand
#    Modification time : Tue Mar 25 06:26:16 2014

@<TRIPOS>MOLECULE
4b05_32D_1_ligand
   49    53     1     0     0
SMALL
NO_CHARGES


@<TRIPOS>ATOM
      1 C1          8.1610    3.3190  -18.3450 C.ar      1 32D1391     0.0000 
      2 C2          7.6400    2.9580  -19.5770 C.ar      1 32D1391     0.0000 
      3 C3          6.2770    3.0760  -19.7920 C.ar      1 32D1391     0.0000 
      4 C4          5.4800    3.5280  -18.7840 C.ar      1 32D1391     0.0000 
      5 C5          5.9770    3.9060  -17.5480 C.ar      1 32D1391     0.0000 
      6 C6          7.3400    3.7970  -17.3350 C.ar      1 32D1391     0.0000 
      7 F7          5.2130    4.4070  -16.5580 F         1 32D1391     0.0000 
      8 C8          4.1170    3.5120  -19.3240 C.2       1 32D1391     0.0000 
      9 N9          4.0820    3.0720  -20.5470 N.pl3     1 32D1391     0.0000 
     10 C10         5.4540    2.7750  -21.0260 C.3       1 32D1391     0.0000 
     11 C11         5.6710    1.3070  -21.3290 C.ar      1 32D1391     0.0000 
     12 C12         6.5360    0.9060  -22.3370 C.ar      1 32D1391     0.0000 
     13 C13         6.7260   -0.4340  -22.6020 C.ar      1 32D1391     0.0000 
     14 C14         6.0860   -1.3950  -21.8400 C.ar      1 32D1391     0.0000 
     15 C15         5.2340   -1.0330  -20.8130 C.ar      1 32D1391     0.0000 
     16 C16         5.0460    0.3230  -20.5780 C.ar      1 32D1391     0.0000 
     17 C17         4.6280   -2.0420  -19.9520 C.ar      1 32D1391     0.0000 
     18 C18         5.3190   -3.1660  -19.5380 C.ar      1 32D1391     0.0000 
     19 N19         4.8560   -4.0740  -18.6700 N.ar      1 32D1391     0.0000 
     20 C20         3.6220   -3.8310  -18.2040 C.ar      1 32D1391     0.0000 
     21 N21         2.8260   -2.8090  -18.5430 N.ar      1 32D1391     0.0000 
     22 C22         3.3640   -1.9370  -19.4080 C.ar      1 32D1391     0.0000 
     23 C24         5.7520    3.6940  -22.2230 C.ar      1 32D1391     0.0000 
     24 C25         6.9300    4.4150  -22.1970 C.ar      1 32D1391     0.0000 
     25 C26         7.2710    5.2430  -23.2350 C.ar      1 32D1391     0.0000 
     26 N27         6.5160    5.4010  -24.3230 N.ar      1 32D1391     0.0000 
     27 C28         5.3590    4.7380  -24.3740 C.ar      1 32D1391     0.0000 
     28 C29         4.9460    3.8690  -23.3600 C.ar      1 32D1391     0.0000 
     29 C30         4.5960    4.9460  -25.6540 C.3       1 32D1391     0.0000 
     30 F31         3.4530    5.7240  -25.6200 F         1 32D1391     0.0000 
     31 F32         4.3210    3.7920  -26.3130 F         1 32D1391     0.0000 
     32 N34         3.0330    3.8580  -18.5610 N.pl3     1 32D1391     0.0000 
     33 H           9.1799    3.2306  -18.1752 H         1 32D1391     0.0000 
     34 H           8.2542    2.6090  -20.3178 H         1 32D1391     0.0000 
     35 H           7.7448    4.0699  -16.4289 H         1 32D1391     0.0000 
     36 H           3.3331    2.9251  -21.1383 H         1 32D1391     0.0000 
     37 H           7.0395    1.6189  -22.8907 H         1 32D1391     0.0000 
     38 H           7.3497   -0.7239  -23.3739 H         1 32D1391     0.0000 
     39 H           6.2474   -2.3988  -22.0417 H         1 32D1391     0.0000 
     40 H           4.4053    0.6134  -19.8010 H         1 32D1391     0.0000 
     41 H           6.2980   -3.3051  -19.9536 H         1 32D1391     0.0000 
     42 H           3.2271   -4.5390  -17.4741 H         1 32D1391     0.0000 
     43 H           2.7807   -1.0890  -19.7094 H         1 32D1391     0.0000 
     44 H           7.5629    4.3254  -21.3777 H         1 32D1391     0.0000 
     45 H           8.1859    5.7792  -23.1539 H         1 32D1391     0.0000 
     46 H           4.0621    3.3618  -23.4427 H         1 32D1391     0.0000 
     47 H           5.3558    5.5219  -26.3376 H         1 32D1391     0.0000 
     48 H           2.1480    3.8547  -19.0267 H         1 32D1391     0.0000 
     49 H           3.2216    4.0836  -17.6052 H         1 32D1391     0.0000 
@<TRIPOS>BOND
     1    2    1 ar   
     2    6    1 ar   
     3   33    1 1    
     4    3    2 ar   
     5   34    2 1    
     6    4    3 ar   
     7   10    3 1    
     8    5    4 ar   
     9    8    4 1    
    10    6    5 ar   
    11    7    5 1    
    12   35    6 1    
    13    9    8 1    
    14   32    8 2    
    15   10    9 1    
    16   36    9 1    
    17   11   10 1    
    18   23   10 1    
    19   12   11 ar   
    20   16   11 ar   
    21   13   12 ar   
    22   37   12 1    
    23   14   13 ar   
    24   38   13 1    
    25   15   14 ar   
    26   39   14 1    
    27   16   15 ar   
    28   17   15 1    
    29   40   16 1    
    30   18   17 ar   
    31   22   17 ar   
    32   19   18 ar   
    33   41   18 1    
    34   20   19 ar   
    35   21   20 ar   
    36   42   20 1    
    37   22   21 ar   
    38   43   22 1    
    39   24   23 ar   
    40   28   23 ar   
    41   25   24 ar   
    42   44   24 1    
    43   26   25 ar   
    44   45   25 1    
    45   27   26 ar   
    46   28   27 ar   
    47   29   27 1    
    48   46   28 1    
    49   30   29 1    
    50   31   29 1    
    51   47   29 1    
    52   48   32 1    
    53   49   32 1    
@<TRIPOS>SUBSTRUCTURE
     1 32D1391     1 GROUP   
@<TRIPOS>SET

