#    Name: 2pg2_K01_1_INTS_M
#    Modification time : Mon Mar 24 18:57:04 2014

@<TRIPOS>MOLECULE
2pg2_K01_1_INTS_M
   61     0     3     0     0
SMALL
NO_CHARGES


@<TRIPOS>ATOM
      1 CA         34.3735   14.0565   15.5780 C.3       1 GLC5        0.0000 
      2 CA         32.7830   12.9520   15.3570 C.3       3 GLL5        0.0000 
      3 CA         35.9640   15.1610   15.7990 C.3       2 GLP5        0.0000 
      4 CA         32.7725   12.2830   13.6870 C.3       1 GLC5        0.0000 
      5 CA         32.7620   11.6140   12.0170 C.3       2 GLP5        0.0000 
      6 CA         34.8615   13.0855   16.7310 C.3       1 GLC5        0.0000 
      7 CA         33.0400   12.0200   16.7840 C.3       3 GLL5        0.0000 
      8 CA         36.6830   14.1510   16.6780 C.3       2 GLP5        0.0000 
      9 CA         29.2955   10.3740   16.5815 C.3       1 GLC5        0.0000 
     10 CA         30.6510   12.1390   16.6230 C.3       3 GLL5        0.0000 
     11 CA         27.9400    8.6090   16.5400 C.3       2 GLP5        0.0000 
     12 CA         28.4355   12.9040   10.1725 C.3       1 GLC5        0.0000 
     13 CA         27.8830   13.4590   12.0100 C.3       3 GLL5        0.0000 
     14 CA         28.9880   12.3490    8.3350 C.3       2 GLP5        0.0000 
     15 CA         29.2510   12.1275   11.7360 C.3       1 GLC5        0.0000 
     16 CA         30.6190   10.7960   11.4620 C.3       2 GLP5        0.0000 
     17 CA         24.5885   18.7225   11.0410 C.3       1 GLC5        0.0000 
     18 CA         24.7240   16.6640   11.4420 C.3       3 GLL5        0.0000 
     19 CA         24.4530   20.7810   10.6400 C.3       2 GLP5        0.0000 
     20 CA         26.1050   15.6970    8.3195 C.3       1 GLC5        0.0000 
     21 CA         25.3540   15.9960   10.2040 C.3       3 GLL5        0.0000 
     22 CA         26.8560   15.3980    6.4350 C.3       2 GLP5        0.0000 
     23 CA         25.3190   12.8620   11.3065 C.3       1 GLC5        0.0000 
     24 CA         25.7720   14.5160   10.4290 C.3       3 GLL5        0.0000 
     25 CA         24.8660   11.2080   12.1840 C.3       2 GLP5        0.0000 
     26 CA         25.8920   12.8405    9.4435 C.3       1 GLC5        0.0000 
     27 CA         26.0120   11.1650    8.4580 C.3       2 GLP5        0.0000 
     28 CA         25.7660   14.5340    8.3420 C.3       1 GLC5        0.0000 
     29 CA         25.7600   14.5520    6.2550 C.3       2 GLP5        0.0000 
     30 CA         26.5590   18.2455   16.4165 C.3       1 GLC5        0.0000 
     31 CA         27.7060   16.7560   17.5290 C.3       3 GLL5        0.0000 
     32 CA         25.4120   19.7350   15.3040 C.3       2 GLP5        0.0000 
     33 CA         29.7935   15.2760   19.3915 C.3       1 GLC5        0.0000 
     34 CA         28.3940   15.6740   18.3140 C.3       3 GLL5        0.0000 
     35 CA         31.1930   14.8780   20.4690 C.3       2 GLP5        0.0000 
     36 CA         31.2613   11.5810   14.3005 C.3       1 GLC5        0.0000 
     37 CA         31.6680   10.6570   12.5470 C.3       2 GLP5        0.0000 
     38 CA         33.2768   10.7090   15.7552 C.3       1 GLC5        0.0000 
     39 CA         33.6420    8.9320   15.4400 C.3       2 GLP5        0.0000 
     40 CA         34.0087   11.2312   18.1337 C.3       1 GLC5        0.0000 
     41 CA         31.7890   11.6950   17.3150 C.3       3 GLL5        0.0000 
     42 CA         35.6030   10.6050   19.2180 C.3       2 GLP5        0.0000 
     43 CA         29.7890   11.3195   18.3225 C.3       1 GLC5        0.0000 
     44 CA         28.3580   10.7220   19.6760 C.3       2 GLP5        0.0000 
     45 CA         31.7910   10.1785   16.5345 C.3       1 GLC5        0.0000 
     46 CA         32.3620    8.4400   16.1000 C.3       2 GLP5        0.0000 
     47 CA         26.8610   12.3230   13.1152 C.3       1 GLC5        0.0000 
     48 CA         28.1390   14.0770   13.5770 C.3       3 GLL5        0.0000 
     49 CA         25.7110   10.8780   13.4370 C.3       2 GLP5        0.0000 
     50 CA         29.5695   14.7315   11.7292 C.3       1 GLC5        0.0000 
     51 CA         31.1280   15.6950   10.6650 C.3       2 GLP5        0.0000 
     52 CA         25.6527   13.0773   12.2345 C.3       1 GLC5        0.0000 
     53 CA         26.5550   14.5530   11.7220 C.3       3 GLL5        0.0000 
     54 CA         24.5915   18.2297   13.2613 C.3       1 GLC5        0.0000 
     55 CA         24.2080   19.9430   14.3590 C.3       2 GLP5        0.0000 
     56 CA         23.8045   16.8095    9.3230 C.3       1 GLC5        0.0000 
     57 CA         22.5700   17.2890    7.8230 C.3       2 GLP5        0.0000 
     58 CA         27.6064   15.8726    9.8179 C.3       1 GLC5        0.0000 
     59 CA         29.4540   16.4800    8.9960 C.3       2 GLP5        0.0000 
     60 CA         31.9516   13.3102   17.8999 C.3       1 GLC5        0.0000 
     61 CA         32.0530   14.4290   19.2640 C.3       2 GLP5        0.0000 
@<TRIPOS>BOND
@<TRIPOS>SUBSTRUCTURE
     1 GLC5        1 GROUP        1 X    GLC  0     ROOT GLC X 6
     2 GLP5        3 GROUP        1 Y    GLP  0     ROOT GLP Y 13
     3 GLL5        2 GROUP        1 Z    GLL  0     ROOT GLL Z 20
@<TRIPOS>SET

