#    Name: 2pg2_K01_1_ligand
#    Modification time : Mon Mar 24 18:57:04 2014

@<TRIPOS>MOLECULE
2pg2_K01_1_ligand
   40    42     1     0     0
SMALL
NO_CHARGES


@<TRIPOS>ATOM
      1 O21        30.7710   14.1460   13.4240 O.2       1 K01604      0.0000 
      2 C15        30.3480   13.5460   14.3590 C.2       1 K01604      0.0000 
      3 C16        31.0580   12.8710   15.4850 C.2       1 K01604      0.0000 
      4 S17        32.7830   12.9520   15.3570 S.3       1 K01604      0.0000 
      5 C18        33.0400   12.0200   16.7840 C.2       1 K01604      0.0000 
      6 C19        31.7890   11.6950   17.3150 C.2       1 K01604      0.0000 
      7 C20        30.6510   12.1390   16.6230 C.2       1 K01604      0.0000 
      8 N14        29.0820   13.6140   14.4480 N.am      1 K01604      0.0000 
      9 C13        28.1390   14.0770   13.5770 C.2       1 K01604      0.0000 
     10 S12        27.8830   13.4590   12.0100 S.3       1 K01604      0.0000 
     11 C7         26.5550   14.5530   11.7220 C.2       1 K01604      0.0000 
     12 C6         26.3240   15.3400   12.8480 C.2       1 K01604      0.0000 
     13 C11        25.2260   16.3690   12.8850 C.3       1 K01604      0.0000 
     14 C10        24.7240   16.6640   11.4420 C.3       1 K01604      0.0000 
     15 C9         25.3540   15.9960   10.2040 C.3       1 K01604      0.0000 
     16 C8         25.7720   14.5160   10.4290 C.3       1 K01604      0.0000 
     17 C5         27.2460   15.0980   13.8800 C.2       1 K01604      0.0000 
     18 C4         26.9620   15.8310   15.1570 C.2       1 K01604      0.0000 
     19 O22        26.0490   16.5220   15.1490 O.2       1 K01604      0.0000 
     20 N3         27.6240   16.2330   16.1880 N.am      1 K01604      0.0000 
     21 C23        27.7060   16.7560   17.5290 C.3       1 K01604      0.0000 
     22 C24        28.3940   15.6740   18.3140 C.3       1 K01604      0.0000 
     23 H          33.8928   11.8674   16.9975 H         1 K01604      0.0000 
     24 H          31.7032   11.1600   18.1659 H         1 K01604      0.0000 
     25 H          29.7523   11.9766   16.8745 H         1 K01604      0.0000 
     26 H          28.6246   13.2300   15.4087 H         1 K01604      0.0000 
     27 H          25.5920   17.2956   13.3144 H         1 K01604      0.0000 
     28 H          24.3877   16.0050   13.4695 H         1 K01604      0.0000 
     29 H          24.7664   17.7891   11.2916 H         1 K01604      0.0000 
     30 H          23.6077   16.4548   11.4220 H         1 K01604      0.0000 
     31 H          26.2419   16.5671    9.9018 H         1 K01604      0.0000 
     32 H          24.6370   16.0335    9.3731 H         1 K01604      0.0000 
     33 H          24.8989   13.9258   10.5383 H         1 K01604      0.0000 
     34 H          26.3916   14.2087    9.6263 H         1 K01604      0.0000 
     35 H          28.8580   16.1155   15.8871 H         1 K01604      0.0000 
     36 H          26.7295   16.9265   17.9476 H         1 K01604      0.0000 
     37 H          28.3015   17.6513   17.5688 H         1 K01604      0.0000 
     38 H          29.3034   15.4723   17.9503 H         1 K01604      0.0000 
     39 H          28.5121   15.9293   19.2736 H         1 K01604      0.0000 
     40 H          27.8763   14.8185   18.2999 H         1 K01604      0.0000 
@<TRIPOS>BOND
     1    2    1 2    
     2    3    2 1    
     3    8    2 am   
     4    4    3 1    
     5    7    3 2    
     6    5    4 1    
     7    6    5 2    
     8   23    5 1    
     9    7    6 1    
    10   24    6 1    
    11   25    7 1    
    12    9    8 1    
    13   26    8 1    
    14   10    9 1    
    15   17    9 2    
    16   11   10 1    
    17   12   11 2    
    18   16   11 1    
    19   13   12 1    
    20   17   12 1    
    21   14   13 1    
    22   27   13 1    
    23   28   13 1    
    24   15   14 1    
    25   29   14 1    
    26   30   14 1    
    27   16   15 1    
    28   31   15 1    
    29   32   15 1    
    30   33   16 1    
    31   34   16 1    
    32   18   17 1    
    33   19   18 2    
    34   20   18 am   
    35   21   20 1    
    36   35   20 1    
    37   22   21 1    
    38   36   21 1    
    39   37   21 1    
    40   38   22 1    
    41   39   22 1    
    42   40   22 1    
@<TRIPOS>SUBSTRUCTURE
     1 K01604      1 GROUP   
@<TRIPOS>SET

