#    Name: 1t4v_14A_1_INTS_M
#    Modification time : Tue Mar 25 04:22:35 2014

@<TRIPOS>MOLECULE
1t4v_14A_1_INTS_M
   66     0     9     0     0
SMALL
NO_CHARGES


@<TRIPOS>ATOM
      1 O           9.2515  -11.7160   25.1580 O.2       1 ALC1        0.0000 
      2 O          10.2210  -12.9420   24.4940 O.2       7 ALL1        0.0000 
      3 O           8.2820  -10.4900   25.8220 O.2       4 ALP1        0.0000 
      4 O           9.1435  -12.7925   25.1500 O.2       1 ALC1        0.0000 
      5 O           8.0660  -12.6430   25.8060 O.2       4 ALP1        0.0000 
      6 O          10.3750  -14.3375   24.2625 O.2       1 ALC1        0.0000 
      7 O          10.5290  -15.7330   24.0310 O.2       4 ALP1        0.0000 
      8 OD1         9.6600  -11.2265   24.9805 O.co2     2 ASC3        0.0000 
      9 OD1        11.0380  -11.9630   24.1390 O.co2     8 ASL3        0.0000 
     10 OD1         8.2820  -10.4900   25.8220 O.co2     5 ASP3        0.0000 
     11 OD1         9.1435  -12.7925   25.1500 O.co2     2 ASC3        0.0000 
     12 OD1         8.0660  -12.6430   25.8060 O.co2     5 ASP3        0.0000 
     13 O           9.5905  -10.6160   25.2320 O.2       1 ALC1        0.0000 
     14 O          10.8990  -10.7420   24.6420 O.2       7 ALL1        0.0000 
     15 CA         10.9040  -11.3745   20.9310 C.3       3 GLC5        0.0000 
     16 CA         12.8750  -10.7330   21.6190 C.3       9 GLL5        0.0000 
     17 CA          8.9330  -12.0160   20.2430 C.3       6 GLP5        0.0000 
     18 CA         12.5910   -8.7780   21.7300 C.3       3 GLC5        0.0000 
     19 CA         12.3070   -6.8230   21.8410 C.3       6 GLP5        0.0000 
     20 CA         14.4240  -10.8250   23.0935 C.3       3 GLC5        0.0000 
     21 CA         15.9730  -10.9170   24.5680 C.3       6 GLP5        0.0000 
     22 CA         12.2705  -12.3425   18.9370 C.3       3 GLC5        0.0000 
     23 CA         13.4390  -11.7160   20.5680 C.3       9 GLL5        0.0000 
     24 CA         11.1020  -12.9690   17.3060 C.3       6 GLP5        0.0000 
     25 CA         15.4550  -11.4125   22.6220 C.3       3 GLC5        0.0000 
     26 CA         14.9370  -11.9080   20.6760 C.3       9 GLL5        0.0000 
     27 CA         19.6885  -11.4880   19.2225 C.3       3 GLC5        0.0000 
     28 CA         20.0380  -12.9820   19.9780 C.3       9 GLL5        0.0000 
     29 CA         19.3390   -9.9940   18.4670 C.3       6 GLP5        0.0000 
     30 CA         21.3890  -14.1500   19.4250 C.3       3 GLC5        0.0000 
     31 CA         22.7400  -15.3180   18.8720 C.3       6 GLP5        0.0000 
     32 CA         19.4900  -14.1660   18.5585 C.3       3 GLC5        0.0000 
     33 CA         18.9420  -15.3500   17.1390 C.3       6 GLP5        0.0000 
     34 CA         20.3750  -11.9475   21.6025 C.3       3 GLC5        0.0000 
     35 CA         20.7120  -10.9130   23.2270 C.3       6 GLP5        0.0000 
     36 CA         19.5075  -17.5725   28.4410 C.3       3 GLC5        0.0000 
     37 CA         18.0230  -18.3200   27.3020 C.3       9 GLL5        0.0000 
     38 CA         20.9920  -16.8250   29.5800 C.3       6 GLP5        0.0000 
     39 CA         20.2475  -12.9600   23.9475 C.3       3 GLC5        0.0000 
     40 CA         19.7830  -15.0070   24.6680 C.3       9 GLL5        0.0000 
     41 CA         18.5815  -13.2440   24.7620 C.3       3 GLC5        0.0000 
     42 CA         17.3800  -11.4810   24.8560 C.3       6 GLP5        0.0000 
     43 CA         19.3250  -13.1870   27.1260 C.3       3 GLC5        0.0000 
     44 CA         20.9150  -14.4310   26.7970 C.3       9 GLL5        0.0000 
     45 CA         17.7350  -11.9430   27.4550 C.3       6 GLP5        0.0000 
     46 CA         18.3125  -14.0050   26.9775 C.3       3 GLC5        0.0000 
     47 CA         19.6230  -14.9140   26.1870 C.3       9 GLL5        0.0000 
     48 CA         17.0020  -13.0960   27.7680 C.3       6 GLP5        0.0000 
     49 CA         17.1643  -12.3543   23.0488 C.3       3 GLC5        0.0000 
     50 CA         16.4310  -13.4820   21.6420 C.3       9 GLL5        0.0000 
     51 CA         18.7235  -11.6325   19.6715 C.3       3 GLC5        0.0000 
     52 CA         17.4660  -12.9730   20.8410 C.3       9 GLL5        0.0000 
     53 CA         19.7855  -12.5050   22.2763 C.3       3 GLC5        0.0000 
     54 CA         18.7500  -13.5690   20.9110 C.3       9 GLL5        0.0000 
     55 CA         17.3573  -13.1593   23.6807 C.3       3 GLC5        0.0000 
     56 CA         17.9680  -15.1090   22.5250 C.3       9 GLL5        0.0000 
     57 CA         16.5487  -17.6397   27.5515 C.3       3 GLC5        0.0000 
     58 CA         18.0340  -17.8510   26.0680 C.3       9 GLL5        0.0000 
     59 CA         15.0690  -17.1940   28.4180 C.3       6 GLP5        0.0000 
     60 CA         21.8925  -12.8897   24.4247 C.3       3 GLC5        0.0000 
     61 CA         21.3050  -15.1490   24.5490 C.3       9 GLL5        0.0000 
     62 CA         22.1430  -10.9340   23.7160 C.3       6 GLP5        0.0000 
     63 CA         22.8915  -13.4243   27.1923 C.3       3 GLC5        0.0000 
     64 CA         21.9790  -14.5420   25.7180 C.3       9 GLL5        0.0000 
     65 CA         24.3360  -12.3620   28.1270 C.3       6 GLP5        0.0000 
     66 CA         20.6305  -15.7487   28.0360 C.3       3 GLC5        0.0000 
@<TRIPOS>BOND
@<TRIPOS>SUBSTRUCTURE
     1 ALC1        1 GROUP        1 X    ALC  0     ROOT ALC X 1
     2 ASC3        8 GROUP        1 X    ASC  0     **** ASC X 3
     3 GLC5       15 GROUP        1 X    GLC  0     **** GLC X 6
     4 ALP1        3 GROUP        1 Y    ALP  0     ROOT ALP Y 8
     5 ASP3       10 GROUP        1 Y    ASP  0     **** ASP Y 10
     6 GLP5       17 GROUP        1 Y    GLP  0     **** GLP Y 13
     7 ALL1        2 GROUP        1 Z    ALL  0     ROOT ALL Z 15
     8 ASL3        9 GROUP        1 Z    ASL  0     **** ASL Z 17
     9 GLL5       16 GROUP        1 Z    GLL  0     **** GLL Z 20
@<TRIPOS>SET

