#    Name: 1t4v_14A_1_ligand
#    Modification time : Tue Mar 25 04:22:35 2014

@<TRIPOS>MOLECULE
1t4v_14A_1_ligand
   53    54     1     0     0
SMALL
NO_CHARGES


@<TRIPOS>ATOM
      1 N1         10.2210  -12.9420   24.4940 N.pl3     1 14A1411     0.0000 
      2 C2         11.0380  -11.9630   24.1390 C.cat     1 14A1411     0.0000 
      3 N3         10.8990  -10.7420   24.6420 N.pl3     1 14A1411     0.0000 
      4 N4         11.9500  -12.1800   23.2230 N.pl3     1 14A1411     0.0000 
      5 O5         12.9320  -11.3150   22.9410 O.3       1 14A1411     0.0000 
      6 C6         12.8750  -10.7330   21.6190 C.3       1 14A1411     0.0000 
      7 C7         13.4390  -11.7160   20.5680 C.3       1 14A1411     0.0000 
      8 C8         14.9370  -11.9080   20.6760 C.3       1 14A1411     0.0000 
      9 O9         15.1530  -12.9450   21.6270 O.3       1 14A1411     0.0000 
     10 C10        16.4310  -13.4820   21.6420 C.ar      1 14A1411     0.0000 
     11 C11        17.4660  -12.9730   20.8410 C.ar      1 14A1411     0.0000 
     12 C12        18.7500  -13.5690   20.9110 C.ar      1 14A1411     0.0000 
     13 C13        18.9680  -14.6250   21.7400 C.ar      1 14A1411     0.0000 
     14 C14        17.9680  -15.1090   22.5250 C.ar      1 14A1411     0.0000 
     15 C15        16.7010  -14.5660   22.4860 C.ar      1 14A1411     0.0000 
     16 CL16       20.0380  -12.9820   19.9780 Cl        1 14A1411     0.0000 
     17 C17        18.2570  -16.2700   23.3980 C.2       1 14A1411     0.0000 
     18 O18        17.4590  -17.2030   23.2970 O.2       1 14A1411     0.0000 
     19 N19        19.2560  -16.3480   24.3080 N.am      1 14A1411     0.0000 
     20 C20        19.2990  -17.5030   25.2690 C.3       1 14A1411     0.0000 
     21 C21        18.0340  -17.8510   26.0680 C.2       1 14A1411     0.0000 
     22 C22        18.0230  -18.3200   27.3020 C.2       1 14A1411     0.0000 
     23 C23        19.7830  -15.0070   24.6680 C.3       1 14A1411     0.0000 
     24 C24        21.3050  -15.1490   24.5490 C.3       1 14A1411     0.0000 
     25 C25        21.9790  -14.5420   25.7180 C.3       1 14A1411     0.0000 
     26 C26        20.9150  -14.4310   26.7970 C.3       1 14A1411     0.0000 
     27 C27        19.6230  -14.9140   26.1870 C.3       1 14A1411     0.0000 
     28 H           9.5456  -12.7184   25.1967 H         1 14A1411     0.0000 
     29 H          10.3532  -13.8165   24.0273 H         1 14A1411     0.0000 
     30 H          11.5478  -10.0549   24.3150 H         1 14A1411     0.0000 
     31 H          10.1581  -10.6199   25.3024 H         1 14A1411     0.0000 
     32 H          11.9180  -13.0953   22.6635 H         1 14A1411     0.0000 
     33 H          13.4649   -9.8117   21.5592 H         1 14A1411     0.0000 
     34 H          11.8459  -10.4941   21.3286 H         1 14A1411     0.0000 
     35 H          13.1869  -11.3365   19.5685 H         1 14A1411     0.0000 
     36 H          12.9333  -12.6832   20.6920 H         1 14A1411     0.0000 
     37 H          15.3793  -10.9675   20.9924 H         1 14A1411     0.0000 
     38 H          15.3187  -12.1713   19.6935 H         1 14A1411     0.0000 
     39 H          17.3026  -12.1881   20.2176 H         1 14A1411     0.0000 
     40 H          19.9115  -15.0683   21.7743 H         1 14A1411     0.0000 
     41 H          15.9489  -14.9501   23.0725 H         1 14A1411     0.0000 
     42 H          20.1336  -17.3340   26.0067 H         1 14A1411     0.0000 
     43 H          19.6179  -18.4296   24.7130 H         1 14A1411     0.0000 
     44 H          17.1514  -17.6724   25.5159 H         1 14A1411     0.0000 
     45 H          19.4245  -14.2489   24.1878 H         1 14A1411     0.0000 
     46 H          21.6255  -14.6601   23.6254 H         1 14A1411     0.0000 
     47 H          21.5472  -16.2124   24.4766 H         1 14A1411     0.0000 
     48 H          22.3433  -13.5595   25.4800 H         1 14A1411     0.0000 
     49 H          22.7735  -15.1739   26.0703 H         1 14A1411     0.0000 
     50 H          20.8166  -13.4040   27.1002 H         1 14A1411     0.0000 
     51 H          21.1829  -15.0544   27.6312 H         1 14A1411     0.0000 
     52 H          19.3742  -15.8948   26.5771 H         1 14A1411     0.0000 
     53 H          18.8233  -14.2183   26.4164 H         1 14A1411     0.0000 
@<TRIPOS>BOND
     1    2    1 ar   
     2   28    1 1    
     3   29    1 1    
     4    3    2 ar   
     5    4    2 ar   
     6   30    3 1    
     7   31    3 1    
     8    5    4 1    
     9   32    4 1    
    10    6    5 1    
    11    7    6 1    
    12   33    6 1    
    13   34    6 1    
    14    8    7 1    
    15   35    7 1    
    16   36    7 1    
    17    9    8 1    
    18   37    8 1    
    19   38    8 1    
    20   10    9 1    
    21   11   10 ar   
    22   15   10 ar   
    23   12   11 ar   
    24   39   11 1    
    25   13   12 ar   
    26   16   12 1    
    27   14   13 ar   
    28   40   13 1    
    29   15   14 ar   
    30   17   14 1    
    31   41   15 1    
    32   18   17 2    
    33   19   17 am   
    34   20   19 1    
    35   23   19 1    
    36   21   20 1    
    37   42   20 1    
    38   43   20 1    
    39   22   21 2    
    40   44   21 1    
    41   24   23 1    
    42   27   23 1    
    43   45   23 1    
    44   25   24 1    
    45   46   24 1    
    46   47   24 1    
    47   26   25 1    
    48   48   25 1    
    49   49   25 1    
    50   27   26 1    
    51   50   26 1    
    52   51   26 1    
    53   52   27 1    
    54   53   27 1    
@<TRIPOS>SUBSTRUCTURE
     1 14A1411     1 GROUP   
@<TRIPOS>SET

