#    Name: 3p7a_P7A_1_INTS_M
#    Modification time : Tue Mar 25 06:01:49 2014

@<TRIPOS>MOLECULE
3p7a_P7A_1_INTS_M
   72     0     9     0     0
SMALL
NO_CHARGES


@<TRIPOS>ATOM
      1 N          47.5280   33.2570  -19.0925 N.am      2 SEC2        0.0000 
      2 N          48.7580   32.7890  -19.2330 N.am      8 SEL2        0.0000 
      3 N          46.2980   33.7250  -18.9520 N.am      5 SEP2        0.0000 
      4 O          51.7375   32.0560  -17.4900 O.2       1 ALC1        0.0000 
      5 O          51.0180   32.7540  -18.8530 O.2       7 ALL1        0.0000 
      6 O          52.4570   31.3580  -16.1270 O.2       4 ALP1        0.0000 
      7 CA         53.6315   37.4110  -19.9845 C.3       3 GLC5        0.0000 
      8 CA         52.2270   36.1760  -20.9300 C.3       9 GLL5        0.0000 
      9 CA         55.0360   38.6460  -19.0390 C.3       6 GLP5        0.0000 
     10 CA         50.4820   33.4525  -21.0055 C.3       3 GLC5        0.0000 
     11 CA         50.6810   35.0360  -19.4830 C.3       9 GLL5        0.0000 
     12 CA         50.2830   31.8690  -22.5280 C.3       6 GLP5        0.0000 
     13 CA         49.4150   36.1510  -18.0920 C.3       3 GLC5        0.0000 
     14 CA         48.1490   37.2660  -16.7010 C.3       6 GLP5        0.0000 
     15 O          51.0725   31.3510  -16.8780 O.2       1 ALC1        0.0000 
     16 O          49.6880   31.3440  -17.6290 O.2       7 ALL1        0.0000 
     17 CA         47.8195   30.0485  -20.2120 C.3       3 GLC5        0.0000 
     18 CA         47.6950   30.0300  -18.0950 C.3       9 GLL5        0.0000 
     19 CA         47.9440   30.0670  -22.3290 C.3       6 GLP5        0.0000 
     20 CA         44.9565   28.3730  -21.4075 C.3       3 GLC5        0.0000 
     21 CA         45.1510   29.3700  -19.5000 C.3       9 GLL5        0.0000 
     22 CA         44.7620   27.3760  -23.3150 C.3       6 GLP5        0.0000 
     23 CA         46.5475   29.7185  -20.9145 C.3       3 GLC5        0.0000 
     24 CA         45.3095   31.1865  -20.3220 C.3       3 GLC5        0.0000 
     25 CA         45.4680   33.0030  -21.1440 C.3       6 GLP5        0.0000 
     26 CA         42.5555   29.6055  -17.1335 C.3       3 GLC5        0.0000 
     27 CA         44.2420   28.3220  -17.5260 C.3       9 GLL5        0.0000 
     28 CA         40.8690   30.8890  -16.7410 C.3       6 GLP5        0.0000 
     29 CA         46.3800   25.8085  -17.3255 C.3       3 GLC5        0.0000 
     30 CA         46.1080   27.2180  -18.7410 C.3       9 GLL5        0.0000 
     31 CA         46.6520   24.3990  -15.9100 C.3       6 GLP5        0.0000 
     32 CA         46.5355   25.9900  -20.1525 C.3       3 GLC5        0.0000 
     33 CA         46.9630   24.7620  -21.5640 C.3       6 GLP5        0.0000 
     34 CA         47.8315   32.4140  -15.6535 C.3       3 GLC5        0.0000 
     35 CA         49.6740   31.9730  -14.6440 C.3       9 GLL5        0.0000 
     36 CA         45.9890   32.8550  -16.6630 C.3       6 GLP5        0.0000 
     37 CA         48.5680   34.5055  -13.2380 C.3       3 GLC5        0.0000 
     38 CA         49.2840   32.8120  -13.4120 C.3       9 GLL5        0.0000 
     39 CA         47.8520   36.1990  -13.0640 C.3       6 GLP5        0.0000 
     40 CA         50.8520   29.1995  -13.8030 C.3       3 GLC5        0.0000 
     41 CA         48.7970   29.8910  -13.4830 C.3       9 GLL5        0.0000 
     42 CA         52.9070   28.5080  -14.1230 C.3       6 GLP5        0.0000 
     43 CA         48.4355   27.9670  -13.9820 C.3       3 GLC5        0.0000 
     44 CA         48.0740   26.0430  -14.4810 C.3       6 GLP5        0.0000 
     45 CA         53.2650   30.8160  -19.8315 C.3       3 GLC5        0.0000 
     46 CA         53.4520   32.7310  -20.4610 C.3       9 GLL5        0.0000 
     47 CA         53.0780   28.9010  -19.2020 C.3       6 GLP5        0.0000 
     48 CA         56.4795   32.9315  -23.1685 C.3       3 GLC5        0.0000 
     49 CA         54.9830   33.9460  -21.9180 C.3       9 GLL5        0.0000 
     50 CA         57.9760   31.9170  -24.4190 C.3       6 GLP5        0.0000 
     51 CA         47.8480   27.9245  -15.1490 C.3       3 GLC5        0.0000 
     52 CA         48.3450   30.2940  -15.8630 C.3       9 GLL5        0.0000 
     53 CA         53.5100   34.1258  -18.4102 C.3       3 GLC5        0.0000 
     54 CA         51.4410   33.8510  -19.5510 C.3       9 GLL5        0.0000 
     55 CA         54.9880   34.4010  -16.8830 C.3       6 GLP5        0.0000 
     56 CA         53.0128   34.0177  -22.6938 C.3       3 GLC5        0.0000 
     57 CA         52.6230   33.8500  -20.3240 C.3       9 GLL5        0.0000 
     58 CA         53.2060   33.6030  -24.7190 C.3       6 GLP5        0.0000 
     59 CA         49.4510   29.3900  -18.7995 C.3       3 GLC5        0.0000 
     60 CA         48.6250   30.5960  -17.2190 C.3       9 GLL5        0.0000 
     61 CA         50.7420   28.4670  -19.9420 C.3       6 GLP5        0.0000 
     62 CA         51.6355   32.7254  -21.4981 C.3       3 GLC5        0.0000 
     63 CA         53.6205   33.1783  -22.7845 C.3       3 GLC5        0.0000 
     64 CA         54.6180   32.7760  -21.2390 C.3       9 GLL5        0.0000 
     65 CA         54.7085   35.8860  -23.3937 C.3       3 GLC5        0.0000 
     66 CA         54.8390   37.2590  -24.9290 C.3       6 GLP5        0.0000 
     67 CA         55.8725   32.0359  -20.6800 C.3       3 GLC5        0.0000 
     68 CA         57.2360   30.7220  -19.9760 C.3       6 GLP5        0.0000 
     69 CA         53.8920   34.0580  -23.2888 C.3       3 GLC5        0.0000 
     70 CA         46.8209   31.3916  -16.9098 C.3       3 GLC5        0.0000 
     71 CA         55.3534   34.3111  -20.0645 C.3       3 GLC5        0.0000 
     72 CA         56.5450   34.9970  -18.8730 C.3       6 GLP5        0.0000 
@<TRIPOS>BOND
@<TRIPOS>SUBSTRUCTURE
     1 ALC1        4 GROUP        1 X    ALC  0     ROOT ALC X 1
     2 SEC2        1 GROUP        1 X    SEC  0     **** SEC X 2
     3 GLC5        7 GROUP        1 X    GLC  0     **** GLC X 6
     4 ALP1        6 GROUP        1 Y    ALP  0     ROOT ALP Y 8
     5 SEP2        3 GROUP        1 Y    SEP  0     **** SEP Y 9
     6 GLP5        9 GROUP        1 Y    GLP  0     **** GLP Y 13
     7 ALL1        5 GROUP        1 Z    ALL  0     ROOT ALL Z 15
     8 SEL2        2 GROUP        1 Z    SEL  0     **** SEL Z 16
     9 GLL5        8 GROUP        1 Z    GLL  0     **** GLL Z 20
@<TRIPOS>SET

