#    Name: 3p7a_P7A_1_ligand
#    Modification time : Tue Mar 25 06:01:49 2014

@<TRIPOS>MOLECULE
3p7a_P7A_1_ligand
   58    61     1     0     0
SMALL
NO_CHARGES


@<TRIPOS>ATOM
      1 C1         49.8250   32.3110  -18.5770 C.2       1 P7A362      0.0000 
      2 N1         49.0100   30.6660  -14.7290 N.3       1 P7A362      0.0000 
      3 O1         48.7580   32.7890  -19.2330 O.2       1 P7A362      0.0000 
      4 S1         46.8990   29.3180  -15.7710 S.3       1 P7A362      0.0000 
      5 C2         48.3450   30.2940  -15.8630 C.2       1 P7A362      0.0000 
      6 N2         51.0180   32.7540  -18.8530 N.am      1 P7A362      0.0000 
      7 O2         48.5720   33.2730  -10.8530 O.2       1 P7A362      0.0000 
      8 S2         49.1800   32.0330  -11.8770 S.o2      1 P7A362      0.0000 
      9 C3         51.4410   33.8510  -19.5510 C.ar      1 P7A362      0.0000 
     10 O3         50.6130   31.3780  -11.2410 O.2       1 P7A362      0.0000 
     11 C4         52.6230   33.8500  -20.3240 C.ar      1 P7A362      0.0000 
     12 C5         53.0160   35.0150  -21.0130 C.ar      1 P7A362      0.0000 
     13 C6         52.2270   36.1760  -20.9300 C.ar      1 P7A362      0.0000 
     14 C7         51.0560   36.1940  -20.1700 C.ar      1 P7A362      0.0000 
     15 C8         50.6810   35.0360  -19.4830 C.ar      1 P7A362      0.0000 
     16 N9         49.6880   31.3440  -17.6290 N.am      1 P7A362      0.0000 
     17 C10        48.6250   30.5960  -17.2190 C.2       1 P7A362      0.0000 
     18 C13        46.6690   29.2810  -17.4950 C.2       1 P7A362      0.0000 
     19 C14        47.6950   30.0300  -18.0950 C.2       1 P7A362      0.0000 
     20 C16        45.5570   28.5690  -18.2630 C.3       1 P7A362      0.0000 
     21 C17        45.1510   29.3700  -19.5000 C.3       1 P7A362      0.0000 
     22 C18        44.2420   28.3220  -17.5260 C.3       1 P7A362      0.0000 
     23 C19        46.1080   27.2180  -18.7410 C.3       1 P7A362      0.0000 
     24 C20        49.6740   31.9730  -14.6440 C.3       1 P7A362      0.0000 
     25 C21        49.2840   32.8120  -13.4120 C.3       1 P7A362      0.0000 
     26 C23        48.1970   30.7010  -12.3140 C.3       1 P7A362      0.0000 
     27 C24        48.7970   29.8910  -13.4830 C.3       1 P7A362      0.0000 
     28 C31        53.4520   32.7310  -20.4610 C.ar      1 P7A362      0.0000 
     29 C32        54.6180   32.7760  -21.2390 C.ar      1 P7A362      0.0000 
     30 C33        54.9830   33.9460  -21.9180 C.ar      1 P7A362      0.0000 
     31 C34        54.1730   35.0800  -21.7990 C.ar      1 P7A362      0.0000 
     32 H          51.8723   32.1358  -18.4533 H         1 P7A362      0.0000 
     33 H          52.5210   37.0232  -21.4389 H         1 P7A362      0.0000 
     34 H          50.4851   37.0349  -20.1167 H         1 P7A362      0.0000 
     35 H          49.8195   35.0439  -18.9052 H         1 P7A362      0.0000 
     36 H          50.6419   31.1164  -17.0727 H         1 P7A362      0.0000 
     37 H          47.7525   30.1478  -19.0813 H         1 P7A362      0.0000 
     38 H          49.4516   32.5801  -15.5471 H         1 P7A362      0.0000 
     39 H          50.7774   31.8468  -14.6281 H         1 P7A362      0.0000 
     40 H          50.0010   33.6368  -13.2479 H         1 P7A362      0.0000 
     41 H          48.2912   33.2789  -13.5454 H         1 P7A362      0.0000 
     42 H          47.2462   31.1305  -12.5757 H         1 P7A362      0.0000 
     43 H          48.1177   30.1082  -11.4200 H         1 P7A362      0.0000 
     44 H          49.7563   29.4563  -13.1353 H         1 P7A362      0.0000 
     45 H          48.1241   29.0313  -13.6787 H         1 P7A362      0.0000 
     46 H          53.2005   31.8508  -19.9784 H         1 P7A362      0.0000 
     47 H          55.2131   31.9381  -21.3118 H         1 P7A362      0.0000 
     48 H          55.8255   33.9692  -22.4892 H         1 P7A362      0.0000 
     49 H          54.4217   35.9450  -22.2791 H         1 P7A362      0.0000 
     50 H          45.9176   29.4944  -20.1300 H         1 P7A362      0.0000 
     51 H          44.4211   28.9176  -20.0123 H         1 P7A362      0.0000 
     52 H          44.8184   30.2819  -19.2593 H         1 P7A362      0.0000 
     53 H          44.3735   27.7585  -16.7104 H         1 P7A362      0.0000 
     54 H          43.8179   29.1767  -17.2265 H         1 P7A362      0.0000 
     55 H          43.5754   27.8507  -18.1035 H         1 P7A362      0.0000 
     56 H          46.8980   27.3313  -19.3435 H         1 P7A362      0.0000 
     57 H          46.4026   26.6454  -17.9759 H         1 P7A362      0.0000 
     58 H          45.4232   26.6969  -19.2505 H         1 P7A362      0.0000 
@<TRIPOS>BOND
     1    3    1 2    
     2    6    1 am   
     3   16    1 am   
     4    5    2 1    
     5   24    2 1    
     6   27    2 1    
     7    5    4 1    
     8   18    4 1    
     9   17    5 2    
    10    9    6 1    
    11   32    6 1    
    12    8    7 2    
    13   10    8 2    
    14   25    8 1    
    15   26    8 1    
    16   11    9 ar   
    17   15    9 ar   
    18   12   11 ar   
    19   28   11 ar   
    20   13   12 ar   
    21   31   12 ar   
    22   14   13 ar   
    23   33   13 1    
    24   15   14 ar   
    25   34   14 1    
    26   35   15 1    
    27   17   16 1    
    28   36   16 1    
    29   19   17 1    
    30   19   18 2    
    31   20   18 1    
    32   37   19 1    
    33   21   20 1    
    34   22   20 1    
    35   23   20 1    
    36   50   21 1    
    37   51   21 1    
    38   52   21 1    
    39   53   22 1    
    40   54   22 1    
    41   55   22 1    
    42   56   23 1    
    43   57   23 1    
    44   58   23 1    
    45   25   24 1    
    46   38   24 1    
    47   39   24 1    
    48   40   25 1    
    49   41   25 1    
    50   27   26 1    
    51   42   26 1    
    52   43   26 1    
    53   44   27 1    
    54   45   27 1    
    55   29   28 ar   
    56   46   28 1    
    57   30   29 ar   
    58   47   29 1    
    59   31   30 ar   
    60   48   30 1    
    61   49   31 1    
@<TRIPOS>SUBSTRUCTURE
     1 P7A362      1 GROUP   
@<TRIPOS>SET

