#    Name: 2ham_C33_1_INTS_M
#    Modification time : Tue Mar 25 15:47:43 2014

@<TRIPOS>MOLECULE
2ham_C33_1_INTS_M
  137     0     9     0     0
SMALL
NO_CHARGES


@<TRIPOS>ATOM
      1 CA         12.5385   17.8790   32.7235 C.3       3 GLC5        0.0000 
      2 CA         13.5120   18.6580   34.4750 C.3       9 GLL5        0.0000 
      3 CA         11.5650   17.1000   30.9720 C.3       6 GLP5        0.0000 
      4 CA         14.4045   17.3985   37.2860 C.3       3 GLC5        0.0000 
      5 CA         14.1450   17.5810   35.4410 C.3       9 GLL5        0.0000 
      6 CA         14.6640   17.2160   39.1310 C.3       6 GLP5        0.0000 
      7 CA         15.6680   18.7695   36.1755 C.3       3 GLC5        0.0000 
      8 CA         17.1910   19.9580   36.9100 C.3       6 GLP5        0.0000 
      9 CA         16.1675   15.6210   35.7275 C.3       3 GLC5        0.0000 
     10 CA         14.9300   16.4510   34.6330 C.3       9 GLL5        0.0000 
     11 CA         17.4050   14.7910   36.8220 C.3       6 GLP5        0.0000 
     12 CA         17.1710   15.8745   34.7395 C.3       3 GLC5        0.0000 
     13 CA         15.9720   17.1220   33.6380 C.3       9 GLL5        0.0000 
     14 CA         18.3700   14.6270   35.8410 C.3       6 GLP5        0.0000 
     15 CA         17.0915   15.7420   32.7755 C.3       3 GLC5        0.0000 
     16 CA         18.2110   14.3620   31.9130 C.3       6 GLP5        0.0000 
     17 CA         16.5815   18.5400   35.2740 C.3       3 GLC5        0.0000 
     18 CA         14.7450   16.8915   31.0740 C.3       3 GLC5        0.0000 
     19 CA         15.3590   18.2440   32.7200 C.3       9 GLL5        0.0000 
     20 CA         14.1310   15.5390   29.4280 C.3       6 GLP5        0.0000 
     21 CA         13.4620   17.6720   31.8460 C.3       3 GLC5        0.0000 
     22 CA         15.6620   23.8485   33.7420 C.3       3 GLC5        0.0000 
     23 CA         13.9630   22.9530   33.3710 C.3       9 GLL5        0.0000 
     24 CA         17.3610   24.7440   34.1130 C.3       6 GLP5        0.0000 
     25 CA         15.1050   25.0115   34.4340 C.3       3 GLC5        0.0000 
     26 CA         13.2730   24.0940   34.1430 C.3       9 GLL5        0.0000 
     27 CA         16.9370   25.9290   34.7250 C.3       6 GLP5        0.0000 
     28 CA         10.8375   25.0525   30.2460 C.3       3 GLC5        0.0000 
     29 CA         12.2070   24.9340   31.9530 C.3       9 GLL5        0.0000 
     30 CA          9.4680   25.1710   28.5390 C.3       6 GLP5        0.0000 
     31 CA         11.7290   23.3885   29.7810 C.3       3 GLC5        0.0000 
     32 CA         13.0990   23.9360   31.1210 C.3       9 GLL5        0.0000 
     33 CA         10.3590   22.8410   28.4410 C.3       6 GLP5        0.0000 
     34 CA         15.0985   24.8145   31.5090 C.3       3 GLC5        0.0000 
     35 CA         17.0980   25.6930   31.8970 C.3       6 GLP5        0.0000 
     36 CA         14.2325   24.0395   29.5400 C.3       3 GLC5        0.0000 
     37 CA         15.3660   24.1430   27.9590 C.3       6 GLP5        0.0000 
     38 CA         15.8910   23.9885   32.3095 C.3       3 GLC5        0.0000 
     39 CA         14.3350   23.3720   31.9110 C.3       9 GLL5        0.0000 
     40 CA         17.4470   24.6050   32.7080 C.3       6 GLP5        0.0000 
     41 CA         14.7890   22.5035   30.0870 C.3       3 GLC5        0.0000 
     42 CA         15.2430   21.6350   28.2630 C.3       6 GLP5        0.0000 
     43 CA         14.5680   22.4875   36.0630 C.3       3 GLC5        0.0000 
     44 CA         12.8640   23.8900   35.6970 C.3       9 GLL5        0.0000 
     45 CA         16.2720   21.0850   36.4290 C.3       6 GLP5        0.0000 
     46 CA         12.1400   24.9555   37.9710 C.3       3 GLC5        0.0000 
     47 CA         11.6460   24.8500   35.8760 C.3       9 GLL5        0.0000 
     48 CA         12.6340   25.0610   40.0660 C.3       6 GLP5        0.0000 
     49 CA         11.5260   18.7145   32.7425 C.3       3 GLC5        0.0000 
     50 CA         12.1650   18.9720   34.4820 C.3       9 GLL5        0.0000 
     51 CA         10.8870   18.4570   31.0030 C.3       6 GLP5        0.0000 
     52 CA         11.0215   17.6390   35.3155 C.3       3 GLC5        0.0000 
     53 CA          9.8780   16.3060   36.1490 C.3       6 GLP5        0.0000 
     54 CA         11.6655   19.9060   36.0665 C.3       3 GLC5        0.0000 
     55 CA         11.1660   20.8400   37.6510 C.3       6 GLP5        0.0000 
     56 N          17.8895   16.7210   34.7490 N.am      2 SEC2        0.0000 
     57 N          17.0200   17.7280   34.4040 N.am      8 SEL2        0.0000 
     58 N          18.7590   15.7140   35.0940 N.am      5 SEP2        0.0000 
     59 O          17.8520   18.5730   33.7055 O.2       1 ALC1        0.0000 
     60 O          17.0200   17.7280   34.4040 O.2       7 ALL1        0.0000 
     61 O          18.6840   19.4180   33.0070 O.2       4 ALP1        0.0000 
     62 N          13.2065   15.6895   36.8985 N.am      2 SEC2        0.0000 
     63 N          13.1190   16.9780   36.2250 N.am      8 SEL2        0.0000 
     64 N          13.2940   14.4010   37.5720 N.am      5 SEP2        0.0000 
     65 O          11.8995   16.6230   35.6035 O.2       1 ALC1        0.0000 
     66 O          13.1190   16.9780   36.2250 O.2       7 ALL1        0.0000 
     67 O          10.6800   16.2680   34.9820 O.2       4 ALP1        0.0000 
     68 CA          8.3750   24.8390   36.8055 C.3       3 GLC5        0.0000 
     69 CA          8.6990   25.5380   34.8500 C.3       9 GLL5        0.0000 
     70 CA          8.0510   24.1400   38.7610 C.3       6 GLP5        0.0000 
     71 CA          9.3940   22.3005   33.6525 C.3       3 GLC5        0.0000 
     72 CA         10.8590   23.2510   33.3150 C.3       9 GLL5        0.0000 
     73 CA          7.9290   21.3500   33.9900 C.3       6 GLP5        0.0000 
     74 CA          8.3830   28.4730   33.8140 C.3       3 GLC5        0.0000 
     75 CA          9.9590   27.6690   34.8260 C.3       9 GLL5        0.0000 
     76 CA          6.8070   29.2770   32.8020 C.3       6 GLP5        0.0000 
     77 CA          9.4660   29.2340   35.6645 C.3       3 GLC5        0.0000 
     78 CA          8.9730   30.7990   36.5030 C.3       6 GLP5        0.0000 
     79 CA         11.9835   27.8150   35.5525 C.3       3 GLC5        0.0000 
     80 CA         14.0080   27.9610   36.2790 C.3       6 GLP5        0.0000 
     81 CA          7.1445   27.4535   33.3585 C.3       3 GLC5        0.0000 
     82 CA          7.4820   25.6300   33.9150 C.3       9 GLL5        0.0000 
     83 N           5.0065   26.7135   35.8810 N.am      2 SEC2        0.0000 
     84 N           4.6600   26.6060   34.5560 N.am      8 SEL2        0.0000 
     85 N           5.3530   26.8210   37.2060 N.am      5 SEP2        0.0000 
     86 O           5.3055   27.7145   34.1660 O.2       1 ALC1        0.0000 
     87 O           4.6600   26.6060   34.5560 O.2       7 ALL1        0.0000 
     88 O           5.9510   28.8230   33.7760 O.2       4 ALP1        0.0000 
     89 CA          2.3195   25.5685   35.1880 C.3       3 GLC5        0.0000 
     90 CA          3.8100   24.3470   34.4140 C.3       9 GLL5        0.0000 
     91 CA          0.8290   26.7900   35.9620 C.3       6 GLP5        0.0000 
     92 CA          2.3495   23.1030   34.6125 C.3       3 GLC5        0.0000 
     93 CA          0.8890   21.8590   34.8110 C.3       6 GLP5        0.0000 
     94 CA          3.6390   23.4295   36.2130 C.3       3 GLC5        0.0000 
     95 CA          3.4680   22.5120   38.0120 C.3       6 GLP5        0.0000 
     96 CA          3.9675   25.5100   30.8540 C.3       3 GLC5        0.0000 
     97 CA          4.7290   25.5030   32.4230 C.3       9 GLL5        0.0000 
     98 CA          3.2060   25.5170   29.2850 C.3       6 GLP5        0.0000 
     99 CA          5.7680   27.3900   32.6125 C.3       3 GLC5        0.0000 
    100 CA          3.2280   27.0150   31.9765 C.3       3 GLC5        0.0000 
    101 CA          1.7270   28.5270   31.5300 C.3       6 GLP5        0.0000 
    102 CA         14.0355   15.5110   31.6075 C.3       3 GLC5        0.0000 
    103 CA         13.9400   15.4830   33.7870 C.3       9 GLL5        0.0000 
    104 CA         12.7525   16.2915   32.3795 C.3       3 GLC5        0.0000 
    105 CA         16.0490   14.0480   32.0080 C.3       3 GLC5        0.0000 
    106 CA         14.6270   14.2530   33.1550 C.3       9 GLL5        0.0000 
    107 CA         17.4710   13.8430   30.8610 C.3       6 GLP5        0.0000 
    108 CA         14.2405   14.2135   31.2790 C.3       3 GLC5        0.0000 
    109 CA         13.8540   14.1740   29.4030 C.3       6 GLP5        0.0000 
    110 CA         12.8725   13.1045   32.9735 C.3       3 GLC5        0.0000 
    111 CA         11.1180   11.9560   32.7920 C.3       6 GLP5        0.0000 
    112 CA         16.3495   14.0305   35.4750 C.3       3 GLC5        0.0000 
    113 CA         15.2940   13.2700   34.1280 C.3       9 GLL5        0.0000 
    114 CA         16.7525   13.8160   33.0205 C.3       3 GLC5        0.0000 
    115 CA         13.2387   19.7280   31.8987 C.3       3 GLC5        0.0000 
    116 CA         14.5400   19.2790   33.5170 C.3       9 GLL5        0.0000 
    117 CA         11.7940   19.5210   30.3980 C.3       6 GLP5        0.0000 
    118 CA         15.1490   20.0267   35.2125 C.3       3 GLC5        0.0000 
    119 CA         17.6387   18.0610   32.8775 C.3       3 GLC5        0.0000 
    120 CA         19.6120   18.4390   32.5760 C.3       6 GLP5        0.0000 
    121 CA         16.4282   17.7640   31.4375 C.3       3 GLC5        0.0000 
    122 CA         17.1910   17.8450   29.6960 C.3       6 GLP5        0.0000 
    123 CA         16.2967   21.9222   33.6268 C.3       3 GLC5        0.0000 
    124 CA         14.1980   21.7400   33.9090 C.3       9 GLL5        0.0000 
    125 CA         18.0810   22.6790   33.6580 C.3       6 GLP5        0.0000 
    126 CA         15.2549   21.5721   34.9561 C.3       3 GLC5        0.0000 
    127 CA         14.8270   20.5910   33.2820 C.3       9 GLL5        0.0000 
    128 CA         12.7230   26.2970   30.8815 C.3       3 GLC5        0.0000 
    129 CA         12.7930   28.1590   30.2260 C.3       6 GLP5        0.0000 
    130 CA         11.7105   22.6050   36.7188 C.3       3 GLC5        0.0000 
    131 CA         10.3765   28.0707   32.9147 C.3       3 GLC5        0.0000 
    132 CA         10.7820   29.2080   31.2710 C.3       6 GLP5        0.0000 
    133 CA          7.5601   23.2647   34.1746 C.3       3 GLC5        0.0000 
    134 CA          6.7506   26.4733   35.9201 C.3       3 GLC5        0.0000 
    135 CA          6.2920   24.7750   34.3360 C.3       9 GLL5        0.0000 
    136 CA          6.3100   27.7670   37.4810 C.3       6 GLP5        0.0000 
    137 CA         13.1601   26.2819   35.6660 C.3       3 GLC5        0.0000 
@<TRIPOS>BOND
@<TRIPOS>SUBSTRUCTURE
     1 ALC1       59 GROUP        1 X    ALC  0     ROOT ALC X 1
     2 SEC2       56 GROUP        1 X    SEC  0     **** SEC X 2
     3 GLC5        1 GROUP        1 X    GLC  0     **** GLC X 6
     4 ALP1       61 GROUP        1 Y    ALP  0     ROOT ALP Y 8
     5 SEP2       58 GROUP        1 Y    SEP  0     **** SEP Y 9
     6 GLP5        3 GROUP        1 Y    GLP  0     **** GLP Y 13
     7 ALL1       60 GROUP        1 Z    ALL  0     ROOT ALL Z 15
     8 SEL2       57 GROUP        1 Z    SEL  0     **** SEL Z 16
     9 GLL5        2 GROUP        1 Z    GLL  0     **** GLL Z 20
@<TRIPOS>SET

