#    Name: 2ham_C33_1_ligand
#    Modification time : Tue Mar 25 15:47:43 2014

@<TRIPOS>MOLECULE
2ham_C33_1_ligand
   81    83     1     0     0
SMALL
NO_CHARGES


@<TRIPOS>ATOM
      1 C5         14.5400   19.2790   33.5170 C.2       1 C331001     0.0000 
      2 C10        13.5120   18.6580   34.4750 C.2       1 C331001     0.0000 
      3 C1         14.1450   17.5810   35.4410 C.3       1 C331001     0.0000 
      4 C2         14.9300   16.4510   34.6330 C.3       1 C331001     0.0000 
      5 C3         15.9720   17.1220   33.6380 C.3       1 C331001     0.0000 
      6 C4         15.3590   18.2440   32.7200 C.3       1 C331001     0.0000 
      7 C6         14.8270   20.5910   33.2820 C.2       1 C331001     0.0000 
      8 C7         14.1980   21.7400   33.9090 C.2       1 C331001     0.0000 
      9 C8         13.9630   22.9530   33.3710 C.2       1 C331001     0.0000 
     10 C14        13.2730   24.0940   34.1430 C.3       1 C331001     0.0000 
     11 C13        11.8690   24.4780   33.4690 C.3       1 C331001     0.0000 
     12 C12        12.2070   24.9340   31.9530 C.3       1 C331001     0.0000 
     13 C11        13.0990   23.9360   31.1210 C.3       1 C331001     0.0000 
     14 C9         14.3350   23.3720   31.9110 C.3       1 C331001     0.0000 
     15 C15        12.8640   23.8900   35.6970 C.3       1 C331001     0.0000 
     16 C16        11.6460   24.8500   35.8760 C.3       1 C331001     0.0000 
     17 C17        11.4660   25.5770   34.4960 C.3       1 C331001     0.0000 
     18 C19        12.1650   18.9720   34.4820 C.2       1 C331001     0.0000 
     19 O3         17.0200   17.7280   34.4040 O.3       1 C331001     0.0000 
     20 O1         13.1190   16.9780   36.2250 O.3       1 C331001     0.0000 
     21 C20         9.9830   26.1980   34.2910 C.3       1 C331001     0.0000 
     22 C22         8.6990   25.5380   34.8500 C.3       1 C331001     0.0000 
     23 C18        10.8590   23.2510   33.3150 C.3       1 C331001     0.0000 
     24 C21         9.9590   27.6690   34.8260 C.3       1 C331001     0.0000 
     25 C23         7.4820   25.6300   33.9150 C.3       1 C331001     0.0000 
     26 C24         6.2920   24.7750   34.3360 C.3       1 C331001     0.0000 
     27 C25         4.8900   25.3130   33.9400 C.3       1 C331001     0.0000 
     28 O25         4.6600   26.6060   34.5560 O.3       1 C331001     0.0000 
     29 C27         3.8100   24.3470   34.4140 C.3       1 C331001     0.0000 
     30 C26         4.7290   25.5030   32.4230 C.3       1 C331001     0.0000 
     31 C28        13.9400   15.4830   33.7870 C.3       1 C331001     0.0000 
     32 C29        14.6270   14.2530   33.1550 C.3       1 C331001     0.0000 
     33 C30        15.2940   13.2700   34.1280 C.3       1 C331001     0.0000 
     34 H          14.8722   18.0877   36.0583 H         1 C331001     0.0000 
     35 H          15.4735   15.8435   35.3226 H         1 C331001     0.0000 
     36 H          16.3636   16.3493   32.9993 H         1 C331001     0.0000 
     37 H          16.1769   18.7467   32.2042 H         1 C331001     0.0000 
     38 H          14.7184   17.7658   31.9792 H         1 C331001     0.0000 
     39 H          15.5878   20.8336   32.5690 H         1 C331001     0.0000 
     40 H          13.8944   21.5619   34.9336 H         1 C331001     0.0000 
     41 H          13.8540   25.0132   34.0987 H         1 C331001     0.0000 
     42 H          12.7120   25.9049   32.0077 H         1 C331001     0.0000 
     43 H          11.2529   25.0791   31.4340 H         1 C331001     0.0000 
     44 H          13.4605   24.4546   30.2297 H         1 C331001     0.0000 
     45 H          12.4755   23.0973   30.8018 H         1 C331001     0.0000 
     46 H          14.7193   22.5048   31.3819 H         1 C331001     0.0000 
     47 H          15.1028   24.1393   31.9487 H         1 C331001     0.0000 
     48 H          13.6664   24.2069   36.2860 H         1 C331001     0.0000 
     49 H          12.5660   22.8969   35.8244 H         1 C331001     0.0000 
     50 H          11.8693   25.5697   36.6214 H         1 C331001     0.0000 
     51 H          10.7758   24.2823   36.0858 H         1 C331001     0.0000 
     52 H          12.1910   26.3633   34.4506 H         1 C331001     0.0000 
     53 H           9.8416   26.3243   33.1834 H         1 C331001     0.0000 
     54 H           8.4496   26.0146   35.8102 H         1 C331001     0.0000 
     55 H           8.9116   24.4783   35.0577 H         1 C331001     0.0000 
     56 H           7.7966   25.3349   32.8982 H         1 C331001     0.0000 
     57 H           7.1641   26.6861   33.8544 H         1 C331001     0.0000 
     58 H           6.3105   24.6431   35.4377 H         1 C331001     0.0000 
     59 H           6.4039   23.7585   33.9051 H         1 C331001     0.0000 
     60 H          13.4837   16.0987   33.0062 H         1 C331001     0.0000 
     61 H          13.1500   15.1595   34.4713 H         1 C331001     0.0000 
     62 H          15.3900   14.6113   32.4319 H         1 C331001     0.0000 
     63 H          13.8737   13.7022   32.5529 H         1 C331001     0.0000 
     64 H          11.2442   22.5216   32.7497 H         1 C331001     0.0000 
     65 H          10.6292   22.8458   34.1999 H         1 C331001     0.0000 
     66 H           9.9987   23.5294   32.8879 H         1 C331001     0.0000 
     67 H          10.1920   27.7147   35.7974 H         1 C331001     0.0000 
     68 H          10.6109   28.2515   34.3405 H         1 C331001     0.0000 
     69 H           9.0570   28.0878   34.7209 H         1 C331001     0.0000 
     70 H           3.9169   23.4407   34.0051 H         1 C331001     0.0000 
     71 H           3.8303   24.2251   35.4063 H         1 C331001     0.0000 
     72 H           2.8935   24.6692   34.1770 H         1 C331001     0.0000 
     73 H           5.3959   26.1522   32.0572 H         1 C331001     0.0000 
     74 H           4.8529   24.6442   31.9259 H         1 C331001     0.0000 
     75 H           3.8216   25.8503   32.1864 H         1 C331001     0.0000 
     76 H          15.7184   12.5024   33.6477 H         1 C331001     0.0000 
     77 H          16.0113   13.7107   34.6677 H         1 C331001     0.0000 
     78 H          14.6363   12.8836   34.7746 H         1 C331001     0.0000 
     79 H          17.4907   18.3349   33.7636 H         1 C331001     0.0000 
     80 H          12.3748   16.7969   35.5820 H         1 C331001     0.0000 
     81 H           5.1291   27.4842   34.4616 H         1 C331001     0.0000 
@<TRIPOS>BOND
     1    2    1 1    
     2    6    1 1    
     3    7    1 2    
     4    3    2 1    
     5   18    2 2    
     6    4    3 1    
     7   20    3 1    
     8   34    3 1    
     9    5    4 1    
    10   31    4 1    
    11   35    4 1    
    12    6    5 1    
    13   19    5 1    
    14   36    5 1    
    15   37    6 1    
    16   38    6 1    
    17    8    7 1    
    18   39    7 1    
    19    9    8 2    
    20   40    8 1    
    21   10    9 1    
    22   14    9 1    
    23   11   10 1    
    24   15   10 1    
    25   41   10 1    
    26   12   11 1    
    27   17   11 1    
    28   23   11 1    
    29   13   12 1    
    30   42   12 1    
    31   43   12 1    
    32   14   13 1    
    33   44   13 1    
    34   45   13 1    
    35   46   14 1    
    36   47   14 1    
    37   16   15 1    
    38   48   15 1    
    39   49   15 1    
    40   17   16 1    
    41   50   16 1    
    42   51   16 1    
    43   21   17 1    
    44   52   17 1    
    45   79   19 1    
    46   80   20 1    
    47   22   21 1    
    48   24   21 1    
    49   53   21 1    
    50   25   22 1    
    51   54   22 1    
    52   55   22 1    
    53   64   23 1    
    54   65   23 1    
    55   66   23 1    
    56   67   24 1    
    57   68   24 1    
    58   69   24 1    
    59   26   25 1    
    60   56   25 1    
    61   57   25 1    
    62   27   26 1    
    63   58   26 1    
    64   59   26 1    
    65   28   27 1    
    66   29   27 1    
    67   30   27 1    
    68   81   28 1    
    69   70   29 1    
    70   71   29 1    
    71   72   29 1    
    72   73   30 1    
    73   74   30 1    
    74   75   30 1    
    75   32   31 1    
    76   60   31 1    
    77   61   31 1    
    78   33   32 1    
    79   62   32 1    
    80   63   32 1    
    81   76   33 1    
    82   77   33 1    
    83   78   33 1    
@<TRIPOS>SUBSTRUCTURE
     1 C331001     1 GROUP   
@<TRIPOS>SET

