#    Name: 3f3y_4OA_3_INTS_M
#    Modification time : Tue Mar 25 03:08:18 2014

@<TRIPOS>MOLECULE
3f3y_4OA_3_INTS_M
   71     0     6     0     0
SMALL
NO_CHARGES


@<TRIPOS>ATOM
      1 CA         -9.6520    2.4895  -50.0390 C.3       2 GLC5        0.0000 
      2 CA        -11.4100    3.8220  -50.0430 C.3       6 GLL5        0.0000 
      3 CA         -7.8940    1.1570  -50.0350 C.3       4 GLP5        0.0000 
      4 CA        -13.5965    4.1190  -54.8635 C.3       2 GLC5        0.0000 
      5 CA        -14.5120    4.5360  -53.0720 C.3       6 GLL5        0.0000 
      6 CA        -12.6810    3.7020  -56.6550 C.3       4 GLP5        0.0000 
      7 CA        -13.1330    5.4815  -54.9590 C.3       2 GLC5        0.0000 
      8 CA        -14.2670    6.0210  -53.3530 C.3       6 GLL5        0.0000 
      9 CA        -11.9990    4.9420  -56.5650 C.3       4 GLP5        0.0000 
     10 CA        -11.7590    4.7480  -54.8075 C.3       2 GLC5        0.0000 
     11 CA        -11.5190    4.5540  -53.0500 C.3       6 GLL5        0.0000 
     12 CA        -11.5105   -1.2935  -51.3585 C.3       2 GLC5        0.0000 
     13 CA        -11.4810    0.7160  -50.7110 C.3       6 GLL5        0.0000 
     14 CA        -11.5400   -3.3030  -52.0060 C.3       4 GLP5        0.0000 
     15 O         -15.6080    1.5450  -46.1715 O.2       1 ALC1        0.0000 
     16 O         -14.3660    1.5530  -45.9740 O.2       5 ALL1        0.0000 
     17 O         -16.8500    1.5370  -46.3690 O.2       3 ALP1        0.0000 
     18 CA        -11.7400    2.3000  -45.2265 C.3       2 GLC5        0.0000 
     19 CA        -12.3140    1.7860  -47.0520 C.3       6 GLL5        0.0000 
     20 CA        -11.1660    2.8140  -43.4010 C.3       4 GLP5        0.0000 
     21 CA        -12.0810    6.2180  -54.8650 C.3       2 GLC5        0.0000 
     22 CA        -12.1630    7.4940  -53.1650 C.3       6 GLL5        0.0000 
     23 CA         -9.1900    7.3690  -53.1495 C.3       2 GLC5        0.0000 
     24 CA        -11.0850    8.0620  -52.2390 C.3       6 GLL5        0.0000 
     25 CA         -7.2950    6.6760  -54.0600 C.3       4 GLP5        0.0000 
     26 CA         -9.9250    8.5615  -50.7780 C.3       2 GLC5        0.0000 
     27 CA         -8.7650    9.0610  -49.3170 C.3       4 GLP5        0.0000 
     28 CA        -12.7380    7.3415  -55.5190 C.3       2 GLC5        0.0000 
     29 CA        -12.9920    8.6280  -53.7820 C.3       6 GLL5        0.0000 
     30 CA        -12.4840    6.0550  -57.2560 C.3       4 GLP5        0.0000 
     31 CA        -15.5225    9.8570  -52.1230 C.3       2 GLC5        0.0000 
     32 CA        -13.7940    9.4680  -52.7600 C.3       6 GLL5        0.0000 
     33 CA        -17.2510   10.2460  -51.4860 C.3       4 GLP5        0.0000 
     34 CA        -13.1255   -1.1870  -47.1820 C.3       2 GLC5        0.0000 
     35 CA        -13.5870    0.9690  -46.9580 C.3       6 GLL5        0.0000 
     36 CA        -12.6640   -3.3430  -47.4060 C.3       4 GLP5        0.0000 
     37 CA        -13.3275   -1.3220  -49.1105 C.3       2 GLC5        0.0000 
     38 CA        -13.6210    0.6290  -49.4400 C.3       6 GLL5        0.0000 
     39 CA        -13.0340   -3.2730  -48.7810 C.3       4 GLP5        0.0000 
     40 CA        -16.7015    2.3545  -50.3045 C.3       2 GLC5        0.0000 
     41 CA        -14.8050    2.1530  -51.1030 C.3       6 GLL5        0.0000 
     42 CA        -18.5980    2.5560  -49.5060 C.3       4 GLP5        0.0000 
     43 CA        -16.4375    2.2600  -52.5915 C.3       2 GLC5        0.0000 
     44 CA        -18.0700    2.3670  -54.0800 C.3       4 GLP5        0.0000 
     45 CA        -13.8100    4.2280  -49.0235 C.3       2 GLC5        0.0000 
     46 CA        -12.6360    2.8680  -50.0450 C.3       6 GLL5        0.0000 
     47 CA        -14.9840    5.5880  -48.0020 C.3       4 GLP5        0.0000 
     48 CA        -10.1065    1.1823  -46.4895 C.3       2 GLC5        0.0000 
     49 CA        -11.5000    1.4350  -48.3000 C.3       6 GLL5        0.0000 
     50 CA         -8.3060    0.7540  -45.3030 C.3       4 GLP5        0.0000 
     51 CA         -9.6895    4.6855  -50.1015 C.3       2 GLC5        0.0000 
     52 CA         -7.8210    4.8490  -49.8710 C.3       4 GLP5        0.0000 
     53 CA        -12.9635    5.6120  -49.4745 C.3       2 GLC5        0.0000 
     54 CA        -14.3690    6.7020  -48.6170 C.3       4 GLP5        0.0000 
     55 CA        -16.3032    5.0762  -53.6967 C.3       2 GLC5        0.0000 
     56 CA        -18.2170    4.8740  -54.1810 C.3       4 GLP5        0.0000 
     57 CA        -13.7257    6.1497  -50.3951 C.3       2 GLC5        0.0000 
     58 CA        -13.0780    6.4620  -52.4670 C.3       6 GLL5        0.0000 
     59 CA         -9.7925    1.1136  -49.9360 C.3       2 GLC5        0.0000 
     60 CA        -12.3020    1.4140  -49.6260 C.3       6 GLL5        0.0000 
     61 CA        -11.0945    9.5335  -53.7450 C.3       2 GLC5        0.0000 
     62 CA        -10.5650   11.2890  -54.7880 C.3       4 GLP5        0.0000 
     63 CA        -11.9790   10.1685  -54.0295 C.3       2 GLC5        0.0000 
     64 CA        -14.1061    3.1851  -47.2070 C.3       2 GLC5        0.0000 
     65 CA        -14.5420    5.1030  -46.7980 C.3       4 GLP5        0.0000 
     66 CA        -15.5576   -0.5358  -49.4289 C.3       2 GLC5        0.0000 
     67 CA        -14.3900    1.1570  -48.2270 C.3       6 GLL5        0.0000 
     68 CA        -16.8450   -1.8680  -49.1050 C.3       4 GLP5        0.0000 
     69 CA        -14.3155    0.7844  -52.5289 C.3       2 GLC5        0.0000 
     70 CA        -14.5350    0.7000  -50.6720 C.3       6 GLL5        0.0000 
     71 CA        -14.5520   -0.5890  -53.9430 C.3       4 GLP5        0.0000 
@<TRIPOS>BOND
@<TRIPOS>SUBSTRUCTURE
     1 ALC1       15 GROUP        1 X    ALC  0     ROOT ALC X 1
     2 GLC5        1 GROUP        1 X    GLC  0     **** GLC X 6
     3 ALP1       17 GROUP        1 Y    ALP  0     ROOT ALP Y 8
     4 GLP5        3 GROUP        1 Y    GLP  0     **** GLP Y 13
     5 ALL1       16 GROUP        1 Z    ALL  0     ROOT ALL Z 15
     6 GLL5        2 GROUP        1 Z    GLL  0     **** GLL Z 20
@<TRIPOS>SET

