#    Name: 3f3y_4OA_3_ligand
#    Modification time : Tue Mar 25 03:08:18 2014

@<TRIPOS>MOLECULE
3f3y_4OA_3_ligand
   66    69     1     0     0
SMALL
NO_CHARGES


@<TRIPOS>ATOM
      1 C1        -11.5000    1.4350  -48.3000 C.3       1 4OA329      0.0000 
      2 C10       -12.3020    1.4140  -49.6260 C.3       1 4OA329      0.0000 
      3 C11       -11.4100    3.8220  -50.0430 C.3       1 4OA329      0.0000 
      4 C12       -11.7060    5.2220  -50.6210 C.3       1 4OA329      0.0000 
      5 C13       -12.4510    5.1460  -51.9660 C.3       1 4OA329      0.0000 
      6 C14       -13.7230    4.3200  -51.7930 C.3       1 4OA329      0.0000 
      7 C15       -14.5120    4.5360  -53.0720 C.3       1 4OA329      0.0000 
      8 C16       -14.2670    6.0210  -53.3530 C.3       1 4OA329      0.0000 
      9 C17       -13.0780    6.4620  -52.4670 C.3       1 4OA329      0.0000 
     10 C18       -11.5190    4.5540  -53.0500 C.3       1 4OA329      0.0000 
     11 C19       -11.4810    0.7160  -50.7110 C.3       1 4OA329      0.0000 
     12 O1B       -14.3660    1.5530  -45.9740 O.3       1 4OA329      0.0000 
     13 C2        -12.3140    1.7860  -47.0520 C.3       1 4OA329      0.0000 
     14 C20       -12.1630    7.4940  -53.1650 C.3       1 4OA329      0.0000 
     15 C21       -11.0850    8.0620  -52.2390 C.3       1 4OA329      0.0000 
     16 C22       -12.9920    8.6280  -53.7820 C.3       1 4OA329      0.0000 
     17 C23       -13.7940    9.4680  -52.7600 C.3       1 4OA329      0.0000 
     18 C24       -14.2940   10.7670  -53.3900 C.2       1 4OA329      0.0000 
     19 C3        -13.5870    0.9690  -46.9580 C.3       1 4OA329      0.0000 
     20 C4        -14.3900    1.1570  -48.2270 C.3       1 4OA329      0.0000 
     21 O4        -14.5230   11.7560  -52.6430 O.co2     1 4OA329      0.0000 
     22 O4A       -14.4610   10.8190  -54.6420 O.co2     1 4OA329      0.0000 
     23 C5        -13.6210    0.6290  -49.4400 C.3       1 4OA329      0.0000 
     24 C6        -14.5350    0.7000  -50.6720 C.3       1 4OA329      0.0000 
     25 C7        -14.8050    2.1530  -51.1030 C.3       1 4OA329      0.0000 
     26 C8        -13.4880    2.8890  -51.3420 C.3       1 4OA329      0.0000 
     27 C9        -12.6360    2.8680  -50.0450 C.3       1 4OA329      0.0000 
     28 H         -10.6721    2.1594  -48.4063 H         1 4OA329      0.0000 
     29 H         -11.0346    0.4424  -48.1599 H         1 4OA329      0.0000 
     30 H         -11.0527    3.9302  -49.0107 H         1 4OA329      0.0000 
     31 H         -10.6046    3.3577  -50.6267 H         1 4OA329      0.0000 
     32 H         -10.7637    5.7528  -50.7642 H         1 4OA329      0.0000 
     33 H         -12.3142    5.7790  -49.9068 H         1 4OA329      0.0000 
     34 H         -14.3015    4.8530  -50.9848 H         1 4OA329      0.0000 
     35 H         -15.5392    4.3724  -52.8982 H         1 4OA329      0.0000 
     36 H         -14.1058    3.9552  -53.8529 H         1 4OA329      0.0000 
     37 H         -15.1345    6.5890  -53.0854 H         1 4OA329      0.0000 
     38 H         -14.0076    6.1575  -54.3830 H         1 4OA329      0.0000 
     39 H         -13.5466    6.9459  -51.5804 H         1 4OA329      0.0000 
     40 H         -12.5650    2.8510  -47.0808 H         1 4OA329      0.0000 
     41 H         -11.6982    1.6058  -46.1652 H         1 4OA329      0.0000 
     42 H         -11.6555    6.9767  -53.9944 H         1 4OA329      0.0000 
     43 H         -13.6971    8.2003  -54.5134 H         1 4OA329      0.0000 
     44 H         -12.3203    9.3020  -54.3385 H         1 4OA329      0.0000 
     45 H         -13.1505    9.6980  -51.9140 H         1 4OA329      0.0000 
     46 H         -14.6419    8.8817  -52.4134 H         1 4OA329      0.0000 
     47 H         -13.3794   -0.0300  -46.8047 H         1 4OA329      0.0000 
     48 H         -14.6001    2.2164  -48.3742 H         1 4OA329      0.0000 
     49 H         -15.3352    0.6203  -48.1455 H         1 4OA329      0.0000 
     50 H         -13.3790   -0.4123  -49.2533 H         1 4OA329      0.0000 
     51 H         -15.4850    0.2154  -50.4414 H         1 4OA329      0.0000 
     52 H         -14.0638    0.1659  -51.4986 H         1 4OA329      0.0000 
     53 H         -15.3644    2.6560  -50.3207 H         1 4OA329      0.0000 
     54 H         -15.3886    2.1480  -52.0181 H         1 4OA329      0.0000 
     55 H         -12.9311    2.3631  -52.1072 H         1 4OA329      0.0000 
     56 H         -13.3316    3.2541  -49.2273 H         1 4OA329      0.0000 
     57 H         -10.7012    5.1139  -53.1828 H         1 4OA329      0.0000 
     58 H         -11.2086    3.6340  -52.8108 H         1 4OA329      0.0000 
     59 H         -11.9761    4.4878  -53.9370 H         1 4OA329      0.0000 
     60 H         -10.6141    1.1850  -50.8802 H         1 4OA329      0.0000 
     61 H         -11.2603   -0.2267  -50.4610 H         1 4OA329      0.0000 
     62 H         -11.9704    0.6812  -51.5824 H         1 4OA329      0.0000 
     63 H         -10.4846    7.3452  -51.8845 H         1 4OA329      0.0000 
     64 H         -10.5033    8.7256  -52.7094 H         1 4OA329      0.0000 
     65 H         -11.4824    8.5288  -51.4489 H         1 4OA329      0.0000 
     66 H         -15.1539    1.9323  -46.4590 H         1 4OA329      0.0000 
@<TRIPOS>BOND
     1    2    1 1    
     2   13    1 1    
     3   28    1 1    
     4   29    1 1    
     5   11    2 1    
     6   23    2 1    
     7   27    2 1    
     8    4    3 1    
     9   27    3 1    
    10   30    3 1    
    11   31    3 1    
    12    5    4 1    
    13   32    4 1    
    14   33    4 1    
    15    6    5 1    
    16    9    5 1    
    17   10    5 1    
    18    7    6 1    
    19   26    6 1    
    20   34    6 1    
    21    8    7 1    
    22   35    7 1    
    23   36    7 1    
    24    9    8 1    
    25   37    8 1    
    26   38    8 1    
    27   14    9 1    
    28   39    9 1    
    29   57   10 1    
    30   58   10 1    
    31   59   10 1    
    32   60   11 1    
    33   61   11 1    
    34   62   11 1    
    35   19   12 1    
    36   66   12 1    
    37   19   13 1    
    38   40   13 1    
    39   41   13 1    
    40   15   14 1    
    41   16   14 1    
    42   42   14 1    
    43   63   15 1    
    44   64   15 1    
    45   65   15 1    
    46   17   16 1    
    47   43   16 1    
    48   44   16 1    
    49   18   17 1    
    50   45   17 1    
    51   46   17 1    
    52   21   18 ar   
    53   22   18 ar   
    54   20   19 1    
    55   47   19 1    
    56   23   20 1    
    57   48   20 1    
    58   49   20 1    
    59   24   23 1    
    60   50   23 1    
    61   25   24 1    
    62   51   24 1    
    63   52   24 1    
    64   26   25 1    
    65   53   25 1    
    66   54   25 1    
    67   27   26 1    
    68   55   26 1    
    69   56   27 1    
@<TRIPOS>SUBSTRUCTURE
     1 4OA329      1 GROUP   
@<TRIPOS>SET

