#    Name: 3zxi_TYA_1_INTS_M
#    Modification time : Tue Mar 25 04:04:29 2014

@<TRIPOS>MOLECULE
3zxi_TYA_1_INTS_M
   80     0    12     0     0
SMALL
NO_CHARGES


@<TRIPOS>ATOM
      1 N          -1.0670   -0.1180   26.5445 N.am      2 SEC2        0.0000 
      2 N          -1.7250    1.1880   26.6560 N.am     10 SEL2        0.0000 
      3 N          -0.4090   -1.4240   26.4330 N.am      6 SEP2        0.0000 
      4 CA         -2.9030    1.1505   21.9925 C.3       4 GLC5        0.0000 
      5 CA         -1.2610    2.1470   23.1500 C.3      12 GLL5        0.0000 
      6 CA         -4.5450    0.1540   20.8350 C.3       8 GLP5        0.0000 
      7 CA          0.2370    3.0725   20.1100 C.3       4 GLC5        0.0000 
      8 CA         -0.3570    2.9150   22.2260 C.3      12 GLL5        0.0000 
      9 CA          0.8310    3.2300   17.9940 C.3       8 GLP5        0.0000 
     10 N           1.7050    5.7025   21.3615 N.am      2 SEC2        0.0000 
     11 N           1.5270    4.3880   22.0810 N.am     10 SEL2        0.0000 
     12 N           1.8830    7.0170   20.6420 N.am      6 SEP2        0.0000 
     13 N           0.8860    6.7585   21.7350 N.am      2 SEC2        0.0000 
     14 N          -0.1110    6.5000   22.8280 N.am     10 SEL2        0.0000 
     15 O          -0.4435    7.7245   23.0860 O.2       1 ALC1        0.0000 
     16 O          -0.1110    6.5000   22.8280 O.2       9 ALL1        0.0000 
     17 O          -0.7760    8.9490   23.3440 O.2       5 ALP1        0.0000 
     18 O          -0.9085    7.2810   23.9715 O.2       1 ALC1        0.0000 
     19 O          -1.7060    8.0620   25.1150 O.2       5 ALP1        0.0000 
     20 CA         -0.2310    4.0680   19.7005 C.3       4 GLC5        0.0000 
     21 CA         -1.2930    4.9060   21.4070 C.3      12 GLL5        0.0000 
     22 CA         -6.5135    7.2000   17.8720 C.3       4 GLC5        0.0000 
     23 CA         -5.3650    6.7910   19.6170 C.3      12 GLL5        0.0000 
     24 CA         -7.6620    7.6090   16.1270 C.3       8 GLP5        0.0000 
     25 O          -7.6840    8.1580   19.1900 O.2       1 ALC1        0.0000 
     26 O          -6.7600    6.9270   19.7950 O.2       9 ALL1        0.0000 
     27 O          -8.6080    9.3890   18.5850 O.2       5 ALP1        0.0000 
     28 N          -5.4565    8.6350   17.9085 N.am      2 SEC2        0.0000 
     29 N          -4.7450    7.3580   18.5670 N.am     10 SEL2        0.0000 
     30 N          -6.1680    9.9120   17.2500 N.am      6 SEP2        0.0000 
     31 CA         -4.8335    5.6345   18.1660 C.3       4 GLC5        0.0000 
     32 CA         -3.4210    7.2260   18.3850 C.3      12 GLL5        0.0000 
     33 CA         -6.2460    4.0430   17.9470 C.3       8 GLP5        0.0000 
     34 CA         -3.0525    6.2605   16.5620 C.3       4 GLC5        0.0000 
     35 CA         -2.6840    5.2950   14.7390 C.3       8 GLP5        0.0000 
     36 CA         -3.1270    8.3220   19.6420 C.3       4 GLC5        0.0000 
     37 CA         -2.8330    9.4180   20.8990 C.3       8 GLP5        0.0000 
     38 OD1         1.8760    4.4385   28.6950 O.co2     3 ASC3        0.0000 
     39 OD1         2.6420    3.3780   27.9400 O.co2    11 ASL3        0.0000 
     40 OD1         1.1100    5.4990   29.4500 O.co2     7 ASP3        0.0000 
     41 O           1.8760    4.4385   28.6950 O.2       1 ALC1        0.0000 
     42 O           2.6420    3.3780   27.9400 O.2       9 ALL1        0.0000 
     43 O           1.1100    5.4990   29.4500 O.2       5 ALP1        0.0000 
     44 O           2.8940    4.7765   27.3720 O.2       1 ALC1        0.0000 
     45 O           3.1460    6.1750   26.8040 O.2       5 ALP1        0.0000 
     46 CA         -0.3375    1.1030   28.0410 C.3       4 GLC5        0.0000 
     47 CA          0.3330    3.0160   27.3280 C.3      12 GLL5        0.0000 
     48 CA         -1.0080   -0.8100   28.7540 C.3       8 GLP5        0.0000 
     49 CA         -0.0900    3.8840   29.1900 C.3       4 GLC5        0.0000 
     50 CA         -0.5130    4.7520   31.0520 C.3       8 GLP5        0.0000 
     51 CA          1.3690   -0.1745   25.5545 C.3       4 GLC5        0.0000 
     52 CA          2.1020    1.2530   26.8530 C.3      12 GLL5        0.0000 
     53 CA          0.6360   -1.6020   24.2560 C.3       8 GLP5        0.0000 
     54 CA          0.5470    0.2215   27.8035 C.3       4 GLC5        0.0000 
     55 CA          3.3395   -2.1875   28.5390 C.3       4 GLC5        0.0000 
     56 CA          3.9290   -0.0860   28.0210 C.3      12 GLL5        0.0000 
     57 CA          2.7500   -4.2890   29.0570 C.3       8 GLP5        0.0000 
     58 O           7.9425   -0.6890   28.8935 O.2       1 ALC1        0.0000 
     59 O           7.5710    0.0350   27.8850 O.2       9 ALL1        0.0000 
     60 O           8.3140   -1.4130   29.9020 O.2       5 ALP1        0.0000 
     61 CA         -0.4515    0.6815   21.8285 C.3       4 GLC5        0.0000 
     62 CA         -0.0940   -1.1680   20.9690 C.3       8 GLP5        0.0000 
     63 CA          1.1430    5.8247   23.7668 C.3       4 GLC5        0.0000 
     64 CA          0.3810    4.0700   22.8700 C.3      12 GLL5        0.0000 
     65 CA          2.4190    7.0170   24.7160 C.3       8 GLP5        0.0000 
     66 CA          0.0310    6.6148   21.2630 C.3       4 GLC5        0.0000 
     67 CA         -0.6470    5.1950   22.7650 C.3      12 GLL5        0.0000 
     68 CA          1.0320    8.1790   20.4400 C.3       8 GLP5        0.0000 
     69 CA         -5.1736    5.1176   19.0717 C.3       4 GLC5        0.0000 
     70 CA         -4.5980    6.0620   20.5410 C.3      12 GLL5        0.0000 
     71 CA         -3.4671    7.8051   20.5478 C.3       4 GLC5        0.0000 
     72 CA          3.5595    0.2060   25.4585 C.3       4 GLC5        0.0000 
     73 CA          4.2680   -0.6720   23.9250 C.3       8 GLP5        0.0000 
     74 CA          6.8357   -1.6575   27.1590 C.3       4 GLC5        0.0000 
     75 CA          6.2700    0.3390   27.6260 C.3      12 GLL5        0.0000 
     76 CA          7.9040   -3.3000   26.3740 C.3       8 GLP5        0.0000 
     77 CA          6.6724    2.4199   28.0388 C.3       4 GLC5        0.0000 
     78 CA          4.6180    1.6350   26.4910 C.3      12 GLL5        0.0000 
     79 CA          7.5690    3.9250   28.9600 C.3       8 GLP5        0.0000 
     80 CA          4.8127    0.0506   25.5857 C.3       4 GLC5        0.0000 
@<TRIPOS>BOND
@<TRIPOS>SUBSTRUCTURE
     1 ALC1       15 GROUP        1 X    ALC  0     ROOT ALC X 1
     2 SEC2        1 GROUP        1 X    SEC  0     **** SEC X 2
     3 ASC3       38 GROUP        1 X    ASC  0     **** ASC X 3
     4 GLC5        4 GROUP        1 X    GLC  0     **** GLC X 6
     5 ALP1       17 GROUP        1 Y    ALP  0     ROOT ALP Y 8
     6 SEP2        3 GROUP        1 Y    SEP  0     **** SEP Y 9
     7 ASP3       40 GROUP        1 Y    ASP  0     **** ASP Y 10
     8 GLP5        6 GROUP        1 Y    GLP  0     **** GLP Y 13
     9 ALL1       16 GROUP        1 Z    ALL  0     ROOT ALL Z 15
    10 SEL2        2 GROUP        1 Z    SEL  0     **** SEL Z 16
    11 ASL3       39 GROUP        1 Z    ASL  0     **** ASL Z 17
    12 GLL5        5 GROUP        1 Z    GLL  0     **** GLL Z 20
@<TRIPOS>SET

