#    Name: 3zxi_TYA_1_ligand
#    Modification time : Tue Mar 25 04:04:29 2014

@<TRIPOS>MOLECULE
3zxi_TYA_1_ligand
   59    62     1     0     0
SMALL
NO_CHARGES


@<TRIPOS>ATOM
      1 OPP        -0.4920    3.4470   26.4160 O.3       1 TYA1374     0.0000 
      2 P          -1.4620    2.3930   25.7430 P.3       1 TYA1374     0.0000 
      3 O1P        -2.8480    3.1140   25.3460 O.co2     1 TYA1374     0.0000 
      4 O2P        -1.7250    1.1880   26.6560 O.co2     1 TYA1374     0.0000 
      5 O5'        -0.6750    1.9720   24.4280 O.3       1 TYA1374     0.0000 
      6 C5'        -1.2610    2.1470   23.1500 C.3       1 TYA1374     0.0000 
      7 C4'        -0.3570    2.9150   22.2260 C.3       1 TYA1374     0.0000 
      8 O4'        -1.1610    3.5080   21.1810 O.3       1 TYA1374     0.0000 
      9 C3'         0.3810    4.0700   22.8700 C.3       1 TYA1374     0.0000 
     10 O3'         1.5270    4.3880   22.0810 O.3       1 TYA1374     0.0000 
     11 C2'        -0.6470    5.1950   22.7650 C.3       1 TYA1374     0.0000 
     12 O2'        -0.1110    6.5000   22.8280 O.3       1 TYA1374     0.0000 
     13 C1'        -1.2930    4.9060   21.4070 C.3       1 TYA1374     0.0000 
     14 N9         -2.7150    5.2420   21.3340 N.pl3     1 TYA1374     0.0000 
     15 C8         -3.7160    4.8780   22.1620 C.2       1 TYA1374     0.0000 
     16 N7         -4.8730    5.3880   21.6970 N.2       1 TYA1374     0.0000 
     17 C5         -4.5980    6.0620   20.5410 C.ar      1 TYA1374     0.0000 
     18 C6         -5.3650    6.7910   19.6170 C.ar      1 TYA1374     0.0000 
     19 N6         -6.7600    6.9270   19.7950 N.pl3     1 TYA1374     0.0000 
     20 N1         -4.7450    7.3580   18.5670 N.ar      1 TYA1374     0.0000 
     21 C2         -3.4210    7.2260   18.3850 C.ar      1 TYA1374     0.0000 
     22 N3         -2.6390    6.5350   19.2430 N.ar      1 TYA1374     0.0000 
     23 C4         -3.2210    5.9580   20.3140 C.ar      1 TYA1374     0.0000 
     24 NH2         2.6420    3.3780   27.9400 N.4       1 TYA1374     0.0000 
     25 CA          1.7810    2.7380   26.9400 C.3       1 TYA1374     0.0000 
     26 C           0.3330    3.0160   27.3280 C.3       1 TYA1374     0.0000 
     27 CB          2.1020    1.2530   26.8530 C.3       1 TYA1374     0.0000 
     28 CG          3.6000    0.9150   27.1310 C.ar      1 TYA1374     0.0000 
     29 CD1         3.9290   -0.0860   28.0210 C.ar      1 TYA1374     0.0000 
     30 CD2         4.6180    1.6350   26.4910 C.ar      1 TYA1374     0.0000 
     31 CE1         5.2650   -0.3690   28.2620 C.ar      1 TYA1374     0.0000 
     32 CE2         5.9450    1.3460   26.7270 C.ar      1 TYA1374     0.0000 
     33 CZ          6.2700    0.3390   27.6260 C.ar      1 TYA1374     0.0000 
     34 OH          7.5710    0.0350   27.8850 O.3       1 TYA1374     0.0000 
     35 H          -2.2231    2.6921   23.2172 H         1 TYA1374     0.0000 
     36 H          -1.4895    1.1737   22.6729 H         1 TYA1374     0.0000 
     37 H           0.3652    2.2488   21.7814 H         1 TYA1374     0.0000 
     38 H           0.5669    3.8597   23.8625 H         1 TYA1374     0.0000 
     39 H          -1.4076    4.9990   23.5083 H         1 TYA1374     0.0000 
     40 H          -0.7380    5.4495   20.6536 H         1 TYA1374     0.0000 
     41 H          -3.6177    4.3379   22.9605 H         1 TYA1374     0.0000 
     42 H          -7.2179    6.1771   20.2723 H         1 TYA1374     0.0000 
     43 H          -7.1710    7.7617   19.4285 H         1 TYA1374     0.0000 
     44 H          -2.9708    7.6782   17.5402 H         1 TYA1374     0.0000 
     45 H           1.9643    3.1930   25.9716 H         1 TYA1374     0.0000 
     46 H          -0.0223    2.0452   27.8382 H         1 TYA1374     0.0000 
     47 H           0.4064    3.7169   28.2404 H         1 TYA1374     0.0000 
     48 H           1.8483    0.8789   25.8514 H         1 TYA1374     0.0000 
     49 H           1.4876    0.6999   27.5770 H         1 TYA1374     0.0000 
     50 H           3.1949   -0.6181   28.5018 H         1 TYA1374     0.0000 
     51 H           4.3596    2.3918   25.8343 H         1 TYA1374     0.0000 
     52 H           5.5138   -1.1230   28.9293 H         1 TYA1374     0.0000 
     53 H           6.6867    1.8659   26.2466 H         1 TYA1374     0.0000 
     54 H           2.1085    3.8501   28.6418 H         1 TYA1374     0.0000 
     55 H           3.2222    2.7132   28.4105 H         1 TYA1374     0.0000 
     56 H           3.2494    4.0569   27.5274 H         1 TYA1374     0.0000 
     57 H           1.8725    3.5064   21.7595 H         1 TYA1374     0.0000 
     58 H          -0.8755    7.0804   23.1084 H         1 TYA1374     0.0000 
     59 H           7.5485   -0.4992   28.7301 H         1 TYA1374     0.0000 
@<TRIPOS>BOND
     1    2    1 1    
     2   26    1 1    
     3    3    2 ar   
     4    4    2 ar   
     5    5    2 1    
     6    6    5 1    
     7    7    6 1    
     8   35    6 1    
     9   36    6 1    
    10    8    7 1    
    11    9    7 1    
    12   37    7 1    
    13   13    8 1    
    14   10    9 1    
    15   11    9 1    
    16   38    9 1    
    17   57   10 1    
    18   12   11 1    
    19   13   11 1    
    20   39   11 1    
    21   58   12 1    
    22   14   13 1    
    23   40   13 1    
    24   15   14 1    
    25   23   14 1    
    26   16   15 2    
    27   41   15 1    
    28   17   16 1    
    29   18   17 ar   
    30   23   17 ar   
    31   19   18 1    
    32   20   18 ar   
    33   42   19 1    
    34   43   19 1    
    35   21   20 ar   
    36   22   21 ar   
    37   44   21 1    
    38   23   22 ar   
    39   25   24 1    
    40   54   24 1    
    41   55   24 1    
    42   56   24 1    
    43   26   25 1    
    44   27   25 1    
    45   45   25 1    
    46   46   26 1    
    47   47   26 1    
    48   28   27 1    
    49   48   27 1    
    50   49   27 1    
    51   29   28 ar   
    52   30   28 ar   
    53   31   29 ar   
    54   50   29 1    
    55   32   30 ar   
    56   51   30 1    
    57   33   31 ar   
    58   52   31 1    
    59   33   32 ar   
    60   53   32 1    
    61   34   33 1    
    62   59   34 1    
@<TRIPOS>SUBSTRUCTURE
     1 TYA1374     1 GROUP   
@<TRIPOS>SET

