#    Name: 4kd1_1QK_1_INTS_M
#    Modification time : Tue Mar 25 07:44:23 2014

@<TRIPOS>MOLECULE
4kd1_1QK_1_INTS_M
   73     0     9     0     0
SMALL
NO_CHARGES


@<TRIPOS>ATOM
      1 CA         57.7925   80.1040   26.2200 C.3       3 GLC5        0.0000 
      2 CA         56.2330   79.7930   27.7470 C.3       9 GLL5        0.0000 
      3 CA         59.3520   80.4150   24.6930 C.3       6 GLP5        0.0000 
      4 O          58.3845   77.4515   29.9145 O.2       1 ALC1        0.0000 
      5 O          57.7930   78.3560   29.1480 O.2       7 ALL1        0.0000 
      6 O          58.9760   76.5470   30.6810 O.2       4 ALP1        0.0000 
      7 CA         60.2415   77.9465   30.1080 C.3       3 GLC5        0.0000 
      8 CA         58.9050   79.1950   28.8610 C.3       9 GLL5        0.0000 
      9 CA         61.5780   76.6980   31.3550 C.3       6 GLP5        0.0000 
     10 CA         59.1285   79.8050   26.7770 C.3       3 GLC5        0.0000 
     11 CA         60.1310   78.3410   31.3125 C.3       3 GLC5        0.0000 
     12 CA         58.6840   79.9840   31.2700 C.3       9 GLL5        0.0000 
     13 CA         57.4580   81.1805   25.2720 C.3       3 GLC5        0.0000 
     14 CA         55.5640   81.9460   25.8510 C.3       9 GLL5        0.0000 
     15 CA         53.4585   78.9475   22.3015 C.3       3 GLC5        0.0000 
     16 CA         53.1370   79.4160   24.2660 C.3       9 GLL5        0.0000 
     17 CA         53.7800   78.4790   20.3370 C.3       6 GLP5        0.0000 
     18 CA         53.1060   77.3035   23.6090 C.3       3 GLC5        0.0000 
     19 CA         53.0750   75.1910   22.9520 C.3       6 GLP5        0.0000 
     20 CA         52.8105   73.5835   26.5640 C.3       3 GLC5        0.0000 
     21 CA         52.0920   75.4090   26.6520 C.3       9 GLL5        0.0000 
     22 CA         53.5290   71.7580   26.4760 C.3       6 GLP5        0.0000 
     23 CA         50.8485   74.2390   27.1955 C.3       3 GLC5        0.0000 
     24 CA         49.6050   73.0690   27.7390 C.3       6 GLP5        0.0000 
     25 CA         52.5835   75.3000   24.8020 C.3       3 GLC5        0.0000 
     26 CA         51.2880   74.5935   28.4255 C.3       3 GLC5        0.0000 
     27 CA         52.1010   76.2840   27.9100 C.3       9 GLL5        0.0000 
     28 CA         50.4750   72.9030   28.9410 C.3       6 GLP5        0.0000 
     29 N          56.5585   75.3055   29.9820 N.am      2 SEC2        0.0000 
     30 N          55.5550   76.3950   29.3270 N.am      8 SEL2        0.0000 
     31 N          57.5620   74.2160   30.6370 N.am      5 SEP2        0.0000 
     32 CA         54.1495   78.6610   30.0720 C.3       3 GLC5        0.0000 
     33 CA         54.2730   77.7210   28.0570 C.3       9 GLL5        0.0000 
     34 CA         54.0260   79.6010   32.0870 C.3       6 GLP5        0.0000 
     35 CA         59.5345   83.6850   28.6090 C.3       3 GLC5        0.0000 
     36 CA         59.0180   81.7230   29.4070 C.3       9 GLL5        0.0000 
     37 CA         60.0510   85.6470   27.8110 C.3       6 GLP5        0.0000 
     38 CA         51.0970   83.3725   25.4115 C.3       3 GLC5        0.0000 
     39 CA         52.8870   82.7700   26.5210 C.3       9 GLL5        0.0000 
     40 CA         49.3070   83.9750   24.3020 C.3       6 GLP5        0.0000 
     41 N          51.1535   78.3720   24.9905 N.am      2 SEC2        0.0000 
     42 N          52.4240   78.5110   25.0990 N.am      8 SEL2        0.0000 
     43 N          49.8830   78.2330   24.8820 N.am      5 SEP2        0.0000 
     44 CA         55.7775   80.5122   29.2025 C.3       3 GLC5        0.0000 
     45 CA         55.1760   81.8110   30.2790 C.3       6 GLP5        0.0000 
     46 CA         56.8675   78.3338   26.5495 C.3       3 GLC5        0.0000 
     47 CA         57.3560   77.4540   24.9730 C.3       6 GLP5        0.0000 
     48 CA         60.5640   79.2463   28.7722 C.3       3 GLC5        0.0000 
     49 CA         62.2320   78.7270   28.1850 C.3       6 GLP5        0.0000 
     50 CA         56.9345   81.7738   31.1765 C.3       3 GLC5        0.0000 
     51 CA         58.6220   81.0390   32.2850 C.3       9 GLL5        0.0000 
     52 CA         55.2738   82.2365   28.1250 C.3       3 GLC5        0.0000 
     53 CA         55.2014   83.3528   24.1705 C.3       3 GLC5        0.0000 
     54 CA         53.7740   83.6750   25.7910 C.3       9 GLL5        0.0000 
     55 CA         55.8300   83.5370   22.4600 C.3       6 GLP5        0.0000 
     56 CA         51.3948   81.8075   27.0660 C.3       3 GLC5        0.0000 
     57 CA         53.1700   81.4220   25.9610 C.3       9 GLL5        0.0000 
     58 CA         49.7610   81.5190   27.8910 C.3       6 GLP5        0.0000 
     59 CA         50.7458   76.8988   26.7900 C.3       3 GLC5        0.0000 
     60 CA         49.3950   77.9510   26.2990 C.3       6 GLP5        0.0000 
     61 CA         54.0498   75.7108   26.5815 C.3       3 GLC5        0.0000 
     62 CA         56.0030   75.5750   25.8820 C.3       6 GLP5        0.0000 
     63 CA         54.9525   76.3665   27.0513 C.3       3 GLC5        0.0000 
     64 CA         53.5310   76.5950   28.3840 C.3       9 GLL5        0.0000 
     65 CA         52.2168   78.5096   28.8360 C.3       3 GLC5        0.0000 
     66 CA         50.8890   79.9390   29.5700 C.3       6 GLP5        0.0000 
     67 CA         52.7537   76.6001   29.7605 C.3       3 GLC5        0.0000 
     68 CA         51.9630   76.1200   31.4190 C.3       6 GLP5        0.0000 
     69 CA         57.0389   81.3762   30.1322 C.3       3 GLC5        0.0000 
     70 CA         58.8870   80.3360   29.8580 C.3       9 GLL5        0.0000 
     71 CA         53.3524   84.4261   27.7110 C.3       3 GLC5        0.0000 
     72 CA         55.1790   83.3780   26.0910 C.3       9 GLL5        0.0000 
     73 CA         53.0230   85.7040   29.1910 C.3       6 GLP5        0.0000 
@<TRIPOS>BOND
@<TRIPOS>SUBSTRUCTURE
     1 ALC1        4 GROUP        1 X    ALC  0     ROOT ALC X 1
     2 SEC2       29 GROUP        1 X    SEC  0     **** SEC X 2
     3 GLC5        1 GROUP        1 X    GLC  0     **** GLC X 6
     4 ALP1        6 GROUP        1 Y    ALP  0     ROOT ALP Y 8
     5 SEP2       31 GROUP        1 Y    SEP  0     **** SEP Y 9
     6 GLP5        3 GROUP        1 Y    GLP  0     **** GLP Y 13
     7 ALL1        5 GROUP        1 Z    ALL  0     ROOT ALL Z 15
     8 SEL2       30 GROUP        1 Z    SEL  0     **** SEL Z 16
     9 GLL5        2 GROUP        1 Z    GLL  0     **** GLL Z 20
@<TRIPOS>SET

