#    Name: 4kd1_1QK_1_ligand
#    Modification time : Tue Mar 25 07:44:23 2014

@<TRIPOS>MOLECULE
4kd1_1QK_1_ligand
   57    60     1     0     0
SMALL
NO_CHARGES


@<TRIPOS>ATOM
      1 C10        56.2330   79.7930   27.7470 C.2       1 1QK302      0.0000 
      2 N12        57.7930   78.3560   29.1480 N.pl3     1 1QK302      0.0000 
      3 C13        58.9050   79.1950   28.8610 C.3       1 1QK302      0.0000 
      4 C15        58.6840   79.9840   31.2700 C.ar      1 1QK302      0.0000 
      5 C17        58.7640   82.4340   31.8630 C.ar      1 1QK302      0.0000 
      6 C22        55.5640   81.9460   25.8510 C.3       1 1QK302      0.0000 
      7 C24        53.7740   83.6750   25.7910 C.3       1 1QK302      0.0000 
      8 C26        53.1700   81.4220   25.9610 C.3       1 1QK302      0.0000 
      9 C28        53.1370   79.4160   24.2660 C.3       1 1QK302      0.0000 
     10 C01        52.0920   75.4090   26.6520 C.3       1 1QK302      0.0000 
     11 C02        52.1010   76.2840   27.9100 C.3       1 1QK302      0.0000 
     12 C03        53.5310   76.5950   28.3840 C.2       1 1QK302      0.0000 
     13 C04        54.3360   75.7700   29.1460 C.2       1 1QK302      0.0000 
     14 N05        55.5550   76.3950   29.3270 N.2       1 1QK302      0.0000 
     15 N06        55.4940   77.6110   28.6540 N.pl3     1 1QK302      0.0000 
     16 C07        54.2730   77.7210   28.0570 C.2       1 1QK302      0.0000 
     17 N08        53.9150   78.9200   27.2950 N.2       1 1QK302      0.0000 
     18 C09        54.9260   79.9010   27.1360 C.2       1 1QK302      0.0000 
     19 C11        56.5250   78.6340   28.5050 C.2       1 1QK302      0.0000 
     20 C14        58.8870   80.3360   29.8580 C.ar      1 1QK302      0.0000 
     21 C16        58.6220   81.0390   32.2850 C.ar      1 1QK302      0.0000 
     22 N18        58.9650   82.7760   30.4320 N.pl3     1 1QK302      0.0000 
     23 C19        59.0180   81.7230   29.4070 C.ar      1 1QK302      0.0000 
     24 O20        59.0750   83.9610   30.0960 O.2       1 1QK302      0.0000 
     25 N21        54.5410   81.0450   26.3740 N.3       1 1QK302      0.0000 
     26 C23        55.1790   83.3780   26.0910 C.3       1 1QK302      0.0000 
     27 C25        52.8870   82.7700   26.5210 C.3       1 1QK302      0.0000 
     28 C27        52.8630   80.8630   24.5960 C.3       1 1QK302      0.0000 
     29 O29        52.4240   78.5110   25.0990 O.3       1 1QK302      0.0000 
     30 H          56.9044   80.5279   27.6280 H         1 1QK302      0.0000 
     31 H          57.8732   77.5818   29.7832 H         1 1QK302      0.0000 
     32 H          58.8479   79.6185   27.8590 H         1 1QK302      0.0000 
     33 H          59.8518   78.6667   28.9663 H         1 1QK302      0.0000 
     34 H          58.5882   79.0227   31.5369 H         1 1QK302      0.0000 
     35 H          58.7263   83.1742   32.5422 H         1 1QK302      0.0000 
     36 H          55.6975   81.7913   24.7720 H         1 1QK302      0.0000 
     37 H          56.5305   81.7532   26.3356 H         1 1QK302      0.0000 
     38 H          53.5976   83.5789   24.7072 H         1 1QK302      0.0000 
     39 H          53.5493   84.7194   26.0625 H         1 1QK302      0.0000 
     40 H          52.5422   80.6847   26.7047 H         1 1QK302      0.0000 
     41 H          54.2349   79.2532   24.3419 H         1 1QK302      0.0000 
     42 H          52.8854   79.2595   23.1936 H         1 1QK302      0.0000 
     43 H          51.5661   75.7683   28.7101 H         1 1QK302      0.0000 
     44 H          51.5852   77.2228   27.6983 H         1 1QK302      0.0000 
     45 H          54.0919   74.9148   29.4887 H         1 1QK302      0.0000 
     46 H          58.4858   80.8111   33.2438 H         1 1QK302      0.0000 
     47 H          59.1369   81.9446   28.4560 H         1 1QK302      0.0000 
     48 H          55.8423   84.0291   25.4810 H         1 1QK302      0.0000 
     49 H          55.4016   83.6309   27.1505 H         1 1QK302      0.0000 
     50 H          51.8552   83.0261   26.3495 H         1 1QK302      0.0000 
     51 H          53.1126   82.7814   27.5739 H         1 1QK302      0.0000 
     52 H          53.3970   81.5071   23.8222 H         1 1QK302      0.0000 
     53 H          51.7670   81.0744   24.3660 H         1 1QK302      0.0000 
     54 H          52.5592   75.8530   25.8874 H         1 1QK302      0.0000 
     55 H          52.5489   74.5329   26.8057 H         1 1QK302      0.0000 
     56 H          51.1614   75.2049   26.3482 H         1 1QK302      0.0000 
     57 H          53.0014   79.0884   25.6764 H         1 1QK302      0.0000 
@<TRIPOS>BOND
     1   18    1 1    
     2   19    1 2    
     3   30    1 1    
     4    3    2 1    
     5   19    2 1    
     6   31    2 1    
     7   20    3 1    
     8   32    3 1    
     9   33    3 1    
    10   20    4 ar   
    11   21    4 ar   
    12   34    4 1    
    13   21    5 ar   
    14   22    5 ar   
    15   35    5 1    
    16   25    6 1    
    17   26    6 1    
    18   36    6 1    
    19   37    6 1    
    20   26    7 1    
    21   27    7 1    
    22   38    7 1    
    23   39    7 1    
    24   25    8 1    
    25   27    8 1    
    26   28    8 1    
    27   40    8 1    
    28   28    9 1    
    29   29    9 1    
    30   41    9 1    
    31   42    9 1    
    32   11   10 1    
    33   54   10 1    
    34   55   10 1    
    35   56   10 1    
    36   12   11 1    
    37   43   11 1    
    38   44   11 1    
    39   13   12 1    
    40   16   12 2    
    41   14   13 2    
    42   45   13 1    
    43   15   14 1    
    44   16   15 1    
    45   19   15 1    
    46   17   16 1    
    47   18   17 2    
    48   25   18 1    
    49   23   20 ar   
    50   46   21 1    
    51   23   22 ar   
    52   24   22 1    
    53   47   23 1    
    54   48   26 1    
    55   49   26 1    
    56   50   27 1    
    57   51   27 1    
    58   52   28 1    
    59   53   28 1    
    60   57   29 1    
@<TRIPOS>SUBSTRUCTURE
     1 1QK302      1 GROUP   
@<TRIPOS>SET

