#    Name: 1g4s_TPS_2_INTS_M
#    Modification time : Tue Mar 25 02:33:51 2014

@<TRIPOS>MOLECULE
1g4s_TPS_2_INTS_M
   80     0     9     0     0
SMALL
NO_CHARGES


@<TRIPOS>ATOM
      1 CA         58.3235   39.7135   16.3015 C.3       3 GLC5        0.0000 
      2 CA         59.5820   38.4880   15.7480 C.3       9 GLL5        0.0000 
      3 CA         57.0650   40.9390   16.8550 C.3       6 GLP5        0.0000 
      4 CA         58.1825   37.0795   14.8840 C.3       3 GLC5        0.0000 
      5 CA         56.7830   35.6710   14.0200 C.3       6 GLP5        0.0000 
      6 CA         58.6315   39.4805   14.3600 C.3       3 GLC5        0.0000 
      7 CA         57.6810   40.4730   12.9720 C.3       6 GLP5        0.0000 
      8 CA         60.9315   39.0100   14.0815 C.3       3 GLC5        0.0000 
      9 CA         62.2810   39.5320   12.4150 C.3       6 GLP5        0.0000 
     10 CA         60.2645   40.2980   15.2605 C.3       3 GLC5        0.0000 
     11 CA         60.9470   42.1080   14.7730 C.3       6 GLP5        0.0000 
     12 CA         64.8705   35.9535   16.7965 C.3       3 GLC5        0.0000 
     13 CA         64.7850   33.9850   17.1340 C.3       9 GLL5        0.0000 
     14 CA         64.9560   37.9220   16.4590 C.3       6 GLP5        0.0000 
     15 CA         67.7030   33.9175   19.5935 C.3       3 GLC5        0.0000 
     16 CA         65.8160   34.2370   18.4340 C.3       9 GLL5        0.0000 
     17 CA         69.5900   33.5980   20.7530 C.3       6 GLP5        0.0000 
     18 CA         65.0545   36.1115   18.6575 C.3       3 GLC5        0.0000 
     19 CA         64.2930   37.9860   18.8810 C.3       6 GLP5        0.0000 
     20 CA         67.0530   35.8405   19.1185 C.3       3 GLC5        0.0000 
     21 CA         68.2900   37.4440   19.8030 C.3       6 GLP5        0.0000 
     22 CA         60.3550   32.5825   19.9510 C.3       3 GLC5        0.0000 
     23 CA         62.0020   33.3260   19.4880 C.3       9 GLL5        0.0000 
     24 CA         58.7080   31.8390   20.4140 C.3       6 GLP5        0.0000 
     25 CA         61.7580   33.6485   21.4480 C.3       3 GLC5        0.0000 
     26 CA         61.5140   33.9710   23.4080 C.3       6 GLP5        0.0000 
     27 CA         65.1380   33.0565   22.9730 C.3       3 GLC5        0.0000 
     28 CA         64.6630   33.9780   21.0240 C.3       9 GLL5        0.0000 
     29 CA         65.6130   32.1350   24.9220 C.3       6 GLP5        0.0000 
     30 CA         63.8215   35.6120   19.8920 C.3       3 GLC5        0.0000 
     31 CA         62.9800   37.2460   18.7600 C.3       6 GLP5        0.0000 
     32 CA         64.5275   36.6430   20.2940 C.3       3 GLC5        0.0000 
     33 CA         64.7620   35.3000   21.7070 C.3       9 GLL5        0.0000 
     34 CA         59.0005   35.9695   14.9955 C.3       3 GLC5        0.0000 
     35 CA         60.2290   37.1930   15.9320 C.3       9 GLL5        0.0000 
     36 CA         57.7720   34.7460   14.0590 C.3       6 GLP5        0.0000 
     37 CA         61.6045   37.2195   17.3460 C.3       3 GLC5        0.0000 
     38 N          58.1595   36.3765   17.0270 N.am      2 SEC2        0.0000 
     39 N          59.5880   36.2100   16.5360 N.am      8 SEL2        0.0000 
     40 N          56.7310   36.5430   17.5180 N.am      5 SEP2        0.0000 
     41 CA         59.8690   36.1130   18.3060 C.3       3 GLC5        0.0000 
     42 CA         60.2140   34.9930   16.7170 C.3       9 GLL5        0.0000 
     43 CA         59.5240   37.2330   19.8950 C.3       6 GLP5        0.0000 
     44 O          58.1860   34.2920   17.9275 O.2       1 ALC1        0.0000 
     45 O          59.5110   34.0450   17.3330 O.2       7 ALL1        0.0000 
     46 O          56.8610   34.5390   18.5220 O.2       4 ALP1        0.0000 
     47 CA         62.0500   35.1435   13.5480 C.3       3 GLC5        0.0000 
     48 CA         62.1740   35.8650   15.6210 C.3       9 GLL5        0.0000 
     49 CA         61.9260   34.4220   11.4750 C.3       6 GLP5        0.0000 
     50 CA         63.4905   31.8600   17.1350 C.3       3 GLC5        0.0000 
     51 CA         62.3670   33.4830   16.4260 C.3       9 GLL5        0.0000 
     52 CA         64.6140   30.2370   17.8440 C.3       6 GLP5        0.0000 
     53 CA         62.6735   35.3645   17.5930 C.3       3 GLC5        0.0000 
     54 N          67.8555   34.6875   23.1460 N.am      2 SEC2        0.0000 
     55 N          67.2000   35.8400   23.3760 N.am      8 SEL2        0.0000 
     56 N          68.5110   33.5350   22.9160 N.am      5 SEP2        0.0000 
     57 N          68.1260   36.7225   22.7340 N.am      2 SEC2        0.0000 
     58 N          69.0520   37.6050   22.0920 N.am      5 SEP2        0.0000 
     59 N          65.9635   34.2460   25.6720 N.am      2 SEC2        0.0000 
     60 N          65.7140   35.5250   25.4220 N.am      8 SEL2        0.0000 
     61 N          66.2130   32.9670   25.9220 N.am      5 SEP2        0.0000 
     62 N          64.7590   36.0500   26.4170 N.am      2 SEC2        0.0000 
     63 N          63.8040   36.5750   27.4120 N.am      5 SEP2        0.0000 
     64 N          66.2125   35.9345   26.6415 N.am      2 SEC2        0.0000 
     65 N          66.7110   36.3440   27.8610 N.am      5 SEP2        0.0000 
     66 N          63.9865   37.7010   24.4100 N.am      2 SEC2        0.0000 
     67 N          65.2280   37.4310   23.8930 N.am      8 SEL2        0.0000 
     68 N          62.7450   37.9710   24.9270 N.am      5 SEP2        0.0000 
     69 CA         59.7147   37.5367   17.8675 C.3       3 GLC5        0.0000 
     70 CA         64.9573   32.1740   17.8140 C.3       3 GLC5        0.0000 
     71 CA         64.9333   32.0660   20.2747 C.3       3 GLC5        0.0000 
     72 CA         64.4980   33.9280   19.5190 C.3       9 GLL5        0.0000 
     73 CA         65.2860   30.1790   20.2780 C.3       6 GLP5        0.0000 
     74 CA         63.6413   31.8613   18.5038 C.3       3 GLC5        0.0000 
     75 CA         63.3350   33.6450   18.8390 C.3       9 GLL5        0.0000 
     76 CA         62.9696   35.4011   19.0468 C.3       3 GLC5        0.0000 
     77 CA         63.1133   34.3050   22.3867 C.3       3 GLC5        0.0000 
     78 CA         59.3357   34.8193   15.2712 C.3       3 GLC5        0.0000 
     79 CA         61.5850   34.7920   16.2500 C.3       9 GLL5        0.0000 
     80 CA         62.2584   36.3124   17.4061 C.3       3 GLC5        0.0000 
@<TRIPOS>BOND
@<TRIPOS>SUBSTRUCTURE
     1 ALC1       44 GROUP        1 X    ALC  0     ROOT ALC X 1
     2 SEC2       38 GROUP        1 X    SEC  0     **** SEC X 2
     3 GLC5        1 GROUP        1 X    GLC  0     **** GLC X 6
     4 ALP1       46 GROUP        1 Y    ALP  0     ROOT ALP Y 8
     5 SEP2       40 GROUP        1 Y    SEP  0     **** SEP Y 9
     6 GLP5        3 GROUP        1 Y    GLP  0     **** GLP Y 13
     7 ALL1       45 GROUP        1 Z    ALL  0     ROOT ALL Z 15
     8 SEL2       39 GROUP        1 Z    SEL  0     **** SEL Z 16
     9 GLL5        2 GROUP        1 Z    GLL  0     **** GLL Z 20
@<TRIPOS>SET

