#    Name: 1g4s_TPS_2_ligand
#    Modification time : Tue Mar 25 02:33:51 2014

@<TRIPOS>MOLECULE
1g4s_TPS_2_ligand
   38    39     1     0     0
SMALL
NO_CHARGES


@<TRIPOS>ATOM
      1 CM2        59.5820   38.4880   15.7480 C.3       1 TPS2002     0.0000 
      2 N3         63.5150   33.6850   17.4820 N.pl3     1 TPS2002     0.0000 
      3 C2         64.7850   33.9850   17.1340 C.2       1 TPS2002     0.0000 
      4 S1         65.8160   34.2370   18.4340 S.3       1 TPS2002     0.0000 
      5 C5         64.4980   33.9280   19.5190 C.2       1 TPS2002     0.0000 
      6 C4         63.3350   33.6450   18.8390 C.2       1 TPS2002     0.0000 
      7 CM4        62.0020   33.3260   19.4880 C.3       1 TPS2002     0.0000 
      8 C6         64.6630   33.9780   21.0240 C.3       1 TPS2002     0.0000 
      9 C7         64.7620   35.3000   21.7070 C.3       1 TPS2002     0.0000 
     10 O7         64.9650   35.0140   23.1170 O.3       1 TPS2002     0.0000 
     11 N1A        61.5210   37.0620   15.4530 N.ar      1 TPS2002     0.0000 
     12 C2A        60.2290   37.1930   15.9320 C.ar      1 TPS2002     0.0000 
     13 N3A        59.5880   36.2100   16.5360 N.ar      1 TPS2002     0.0000 
     14 C4A        60.2140   34.9930   16.7170 C.ar      1 TPS2002     0.0000 
     15 N4A        59.5110   34.0450   17.3330 N.pl3     1 TPS2002     0.0000 
     16 C5A        61.5850   34.7920   16.2500 C.ar      1 TPS2002     0.0000 
     17 C6A        62.1740   35.8650   15.6210 C.ar      1 TPS2002     0.0000 
     18 C7A        62.3670   33.4830   16.4260 C.3       1 TPS2002     0.0000 
     19 P1         65.8670   35.9690   24.0190 P.3       1 TPS2002     0.0000 
     20 O1         67.2000   35.8400   23.3760 O.co2     1 TPS2002     0.0000 
     21 O2         65.7140   35.5250   25.4220 O.co2     1 TPS2002     0.0000 
     22 O3         65.2280   37.4310   23.8930 O.co2     1 TPS2002     0.0000 
     23 H          65.2134   34.0823   16.2853 H         1 TPS2002     0.0000 
     24 H          65.5724   33.3592   21.2945 H         1 TPS2002     0.0000 
     25 H          63.8111   33.3919   21.4865 H         1 TPS2002     0.0000 
     26 H          63.8448   35.8539   21.5525 H         1 TPS2002     0.0000 
     27 H          65.5987   35.8531   21.2998 H         1 TPS2002     0.0000 
     28 H          58.5961   34.3058   17.6413 H         1 TPS2002     0.0000 
     29 H          59.9612   33.1575   17.4319 H         1 TPS2002     0.0000 
     30 H          63.1526   35.7647   15.2587 H         1 TPS2002     0.0000 
     31 H          61.7083   32.7070   16.7837 H         1 TPS2002     0.0000 
     32 H          62.8146   33.1937   15.4879 H         1 TPS2002     0.0000 
     33 H          60.0845   39.2224   16.2043 H         1 TPS2002     0.0000 
     34 H          59.5146   38.7355   14.7815 H         1 TPS2002     0.0000 
     35 H          58.6529   38.4948   16.1177 H         1 TPS2002     0.0000 
     36 H          62.0621   33.3397   20.4861 H         1 TPS2002     0.0000 
     37 H          61.2953   33.9840   19.2278 H         1 TPS2002     0.0000 
     38 H          61.6692   32.4199   19.2269 H         1 TPS2002     0.0000 
@<TRIPOS>BOND
     1   12    1 1    
     2   33    1 1    
     3   34    1 1    
     4   35    1 1    
     5    3    2 2    
     6    6    2 1    
     7   18    2 1    
     8    4    3 1    
     9   23    3 1    
    10    5    4 1    
    11    6    5 2    
    12    8    5 1    
    13    7    6 1    
    14   36    7 1    
    15   37    7 1    
    16   38    7 1    
    17    9    8 1    
    18   24    8 1    
    19   25    8 1    
    20   10    9 1    
    21   26    9 1    
    22   27    9 1    
    23   19   10 1    
    24   12   11 ar   
    25   17   11 ar   
    26   13   12 ar   
    27   14   13 ar   
    28   15   14 1    
    29   16   14 ar   
    30   28   15 1    
    31   29   15 1    
    32   17   16 ar   
    33   18   16 1    
    34   30   17 1    
    35   31   18 1    
    36   32   18 1    
    37   20   19 ar   
    38   21   19 ar   
    39   22   19 ar   
@<TRIPOS>SUBSTRUCTURE
     1 TPS2002     1 GROUP   
@<TRIPOS>SET

