#    Name: 4kbc_1QJ_1_INTS_M
#    Modification time : Tue Mar 25 07:41:11 2014

@<TRIPOS>MOLECULE
4kbc_1QJ_1_INTS_M
   69     0     9     0     0
SMALL
NO_CHARGES


@<TRIPOS>ATOM
      1 N         -26.6775   -0.2820   41.4420 N.am      2 SEC2        0.0000 
      2 N         -25.3380   -0.7920   41.4820 N.am      8 SEL2        0.0000 
      3 N         -28.0170    0.2280   41.4020 N.am      5 SEP2        0.0000 
      4 N         -18.0465   -0.9855   38.8925 N.am      2 SEC2        0.0000 
      5 N         -19.3070   -1.5430   39.2390 N.am      8 SEL2        0.0000 
      6 N         -16.7860   -0.4280   38.5460 N.am      5 SEP2        0.0000 
      7 CA        -18.9590   -1.2520   41.6465 C.3       3 GLC5        0.0000 
      8 CA        -19.9970    0.2590   40.7540 C.3       9 GLL5        0.0000 
      9 CA        -17.9210   -2.7630   42.5390 C.3       6 GLP5        0.0000 
     10 CA        -19.3770   -3.0825   40.2045 C.3       3 GLC5        0.0000 
     11 CA        -21.2290   -2.7700   39.0670 C.3       9 GLL5        0.0000 
     12 CA        -17.5250   -3.3950   41.3420 C.3       6 GLP5        0.0000 
     13 CA        -26.3290   -0.8840   40.1415 C.3       3 GLC5        0.0000 
     14 CA        -24.8960   -2.0650   41.3340 C.3       9 GLL5        0.0000 
     15 CA        -27.7620    0.2970   38.9490 C.3       6 GLP5        0.0000 
     16 CA        -20.8170   -2.3780   41.7845 C.3       3 GLC5        0.0000 
     17 CA        -21.5020   -1.6710   39.8870 C.3       9 GLL5        0.0000 
     18 CA        -20.1320   -3.0850   43.6820 C.3       6 GLP5        0.0000 
     19 CA        -20.2815   -1.3745   42.8790 C.3       3 GLC5        0.0000 
     20 CA        -20.4310    0.3360   42.0760 C.3       9 GLL5        0.0000 
     21 CA        -21.6265    1.8655   41.0540 C.3       3 GLC5        0.0000 
     22 CA        -22.8220    3.3950   40.0320 C.3       6 GLP5        0.0000 
     23 CA        -26.0945    0.6880   42.3805 C.3       3 GLC5        0.0000 
     24 CA        -24.4750    0.1910   41.1390 C.3       9 GLL5        0.0000 
     25 CA        -27.7140    1.1850   43.6220 C.3       6 GLP5        0.0000 
     26 CA        -26.1185    0.2440   40.0440 C.3       3 GLC5        0.0000 
     27 CA        -23.4170   -3.9055   42.4125 C.3       3 GLC5        0.0000 
     28 CA        -23.6330   -2.3980   40.8460 C.3       9 GLL5        0.0000 
     29 CA        -23.2010   -5.4130   43.9790 C.3       6 GLP5        0.0000 
     30 CA        -24.5280   -4.2960   42.8375 C.3       3 GLC5        0.0000 
     31 CA        -25.8550   -3.1790   41.6960 C.3       9 GLL5        0.0000 
     32 O         -27.5205   -3.0850   40.7895 O.2       1 ALC1        0.0000 
     33 O         -26.1960   -3.8890   40.5440 O.2       7 ALL1        0.0000 
     34 O         -28.8450   -2.2810   41.0350 O.2       4 ALP1        0.0000 
     35 O         -27.0825   -3.8310   39.3550 O.2       1 ALC1        0.0000 
     36 O         -27.9690   -3.7730   38.1660 O.2       4 ALP1        0.0000 
     37 CA        -17.6850    2.2645   43.4335 C.3       3 GLC5        0.0000 
     38 CA        -18.9950    3.4990   43.0320 C.3       9 GLL5        0.0000 
     39 CA        -16.3750    1.0300   43.8350 C.3       6 GLP5        0.0000 
     40 CA        -19.5995    5.2750   42.1810 C.3       3 GLC5        0.0000 
     41 CA        -20.2040    7.0510   41.3300 C.3       6 GLP5        0.0000 
     42 CA        -19.6390    4.4335   44.8290 C.3       3 GLC5        0.0000 
     43 CA        -20.2830    5.3680   46.6260 C.3       6 GLP5        0.0000 
     44 CA        -21.7428    0.4723   43.4073 C.3       3 GLC5        0.0000 
     45 CA        -20.0940    1.4310   42.8570 C.3       9 GLL5        0.0000 
     46 CA        -23.2230    0.0610   44.3480 C.3       6 GLP5        0.0000 
     47 CA        -23.0802   -1.8117   38.3520 C.3       3 GLC5        0.0000 
     48 CA        -24.7950   -1.4030   37.2270 C.3       6 GLP5        0.0000 
     49 CA        -21.1148   -1.6713   37.6055 C.3       3 GLC5        0.0000 
     50 CA        -20.8640   -1.1220   35.7340 C.3       6 GLP5        0.0000 
     51 CA        -23.7437   -1.0853   42.7190 C.3       3 GLC5        0.0000 
     52 CA        -26.2152   -2.1475   43.2565 C.3       3 GLC5        0.0000 
     53 CA        -27.0550   -1.6730   44.9980 C.3       6 GLP5        0.0000 
     54 CA        -24.5297   -1.8173   39.1585 C.3       3 GLC5        0.0000 
     55 CA        -17.2175    1.2825   41.0840 C.3       3 GLC5        0.0000 
     56 CA        -19.2440    1.2880   40.1910 C.3       9 GLL5        0.0000 
     57 CA        -15.3580    0.7210   41.5960 C.3       6 GLP5        0.0000 
     58 CA        -20.2931    2.8244   40.0474 C.3       3 GLC5        0.0000 
     59 CA        -18.9100    2.4000   40.9530 C.3       9 GLL5        0.0000 
     60 CA        -21.3210    4.0620   39.3820 C.3       6 GLP5        0.0000 
     61 CA        -18.2230    1.0845   43.0794 C.3       3 GLC5        0.0000 
     62 CA        -23.3285    1.7348   40.4582 C.3       3 GLC5        0.0000 
     63 CA        -23.1950   -0.0420   40.6300 C.3       9 GLL5        0.0000 
     64 CA        -23.4771   -0.0973   42.5962 C.3       3 GLC5        0.0000 
     65 CA        -24.2631   -0.8293   39.0358 C.3       3 GLC5        0.0000 
     66 CA        -17.7365    4.0764   41.7319 C.3       3 GLC5        0.0000 
     67 CA        -16.4160    5.1900   41.1380 C.3       6 GLP5        0.0000 
     68 CA        -20.8570    3.5152   42.7114 C.3       3 GLC5        0.0000 
     69 CA        -22.3610    4.3100   42.6210 C.3       6 GLP5        0.0000 
@<TRIPOS>BOND
@<TRIPOS>SUBSTRUCTURE
     1 ALC1       32 GROUP        1 X    ALC  0     ROOT ALC X 1
     2 SEC2        1 GROUP        1 X    SEC  0     **** SEC X 2
     3 GLC5        7 GROUP        1 X    GLC  0     **** GLC X 6
     4 ALP1       34 GROUP        1 Y    ALP  0     ROOT ALP Y 8
     5 SEP2        3 GROUP        1 Y    SEP  0     **** SEP Y 9
     6 GLP5        9 GROUP        1 Y    GLP  0     **** GLP Y 13
     7 ALL1       33 GROUP        1 Z    ALL  0     ROOT ALL Z 15
     8 SEL2        2 GROUP        1 Z    SEL  0     **** SEL Z 16
     9 GLL5        8 GROUP        1 Z    GLL  0     **** GLL Z 20
@<TRIPOS>SET

