#    Name: 4kbc_1QJ_1_ligand
#    Modification time : Tue Mar 25 07:41:11 2014

@<TRIPOS>MOLECULE
4kbc_1QJ_1_ligand
   32    34     1     0     0
SMALL
NO_CHARGES


@<TRIPOS>ATOM
      1 N3        -25.3380   -0.7920   41.4820 N.ar      1 1QJ401      0.0000 
      2 C4        -20.0940    1.4310   42.8570 C.ar      1 1QJ401      0.0000 
      3 N2        -19.3070   -1.5430   39.2390 N.2       1 1QJ401      0.0000 
      4 C7        -20.2810   -0.9310   39.9790 C.2       1 1QJ401      0.0000 
      5 C6        -19.9970    0.2590   40.7540 C.ar      1 1QJ401      0.0000 
      6 C9        -21.2290   -2.7700   39.0670 C.2       1 1QJ401      0.0000 
      7 C13       -24.8960   -2.0650   41.3340 C.ar      1 1QJ401      0.0000 
      8 C8        -21.5020   -1.6710   39.8870 C.2       1 1QJ401      0.0000 
      9 C1        -19.2440    1.2880   40.1910 C.ar      1 1QJ401      0.0000 
     10 C2        -18.9100    2.4000   40.9530 C.ar      1 1QJ401      0.0000 
     11 C3        -19.3280    2.4530   42.2860 C.ar      1 1QJ401      0.0000 
     12 C5        -20.4310    0.3360   42.0760 C.ar      1 1QJ401      0.0000 
     13 N1        -19.9000   -2.6410   38.6960 N.pl3     1 1QJ401      0.0000 
     14 C10       -22.7800   -1.3620   40.4700 C.ar      1 1QJ401      0.0000 
     15 C11       -23.1950   -0.0420   40.6300 C.ar      1 1QJ401      0.0000 
     16 C12       -24.4750    0.1910   41.1390 C.ar      1 1QJ401      0.0000 
     17 C14       -23.6330   -2.3980   40.8460 C.ar      1 1QJ401      0.0000 
     18 C15       -25.8550   -3.1790   41.6960 C.3       1 1QJ401      0.0000 
     19 O1        -26.1960   -3.8890   40.5440 O.3       1 1QJ401      0.0000 
     20 F1        -18.9950    3.4990   43.0320 F         1 1QJ401      0.0000 
     21 H         -20.3953    1.4954   43.8277 H         1 1QJ401      0.0000 
     22 H         -21.8230   -3.4455   38.8245 H         1 1QJ401      0.0000 
     23 H         -18.9372    1.2217   39.2123 H         1 1QJ401      0.0000 
     24 H         -18.3703    3.1654   40.5518 H         1 1QJ401      0.0000 
     25 H         -21.0030   -0.4235   42.4708 H         1 1QJ401      0.0000 
     26 H         -19.4456   -3.2820   38.1026 H         1 1QJ401      0.0000 
     27 H         -22.5856    0.7307   40.3841 H         1 1QJ401      0.0000 
     28 H         -24.7694    1.2026   41.2562 H         1 1QJ401      0.0000 
     29 H         -23.3436   -3.3666   40.7670 H         1 1QJ401      0.0000 
     30 H         -26.7302   -2.7204   42.1800 H         1 1QJ401      0.0000 
     31 H         -25.3606   -3.8124   42.4476 H         1 1QJ401      0.0000 
     32 H         -26.8332   -3.2949   40.0531 H         1 1QJ401      0.0000 
@<TRIPOS>BOND
     1    7    1 ar   
     2   16    1 ar   
     3   11    2 ar   
     4   12    2 ar   
     5   21    2 1    
     6    4    3 2    
     7   13    3 1    
     8    5    4 1    
     9    8    4 1    
    10    9    5 ar   
    11   12    5 ar   
    12    8    6 2    
    13   13    6 1    
    14   22    6 1    
    15   17    7 ar   
    16   18    7 1    
    17   14    8 1    
    18   10    9 ar   
    19   23    9 1    
    20   11   10 ar   
    21   24   10 1    
    22   20   11 1    
    23   25   12 1    
    24   26   13 1    
    25   15   14 ar   
    26   17   14 ar   
    27   16   15 ar   
    28   27   15 1    
    29   28   16 1    
    30   29   17 1    
    31   19   18 1    
    32   30   18 1    
    33   31   18 1    
    34   32   19 1    
@<TRIPOS>SUBSTRUCTURE
     1 1QJ401      1 GROUP   
@<TRIPOS>SET

