#    Name: 1qaq_SFG_1_INTS_M
#    Modification time : Mon Mar 24 23:17:53 2014

@<TRIPOS>MOLECULE
1qaq_SFG_1_INTS_M
   71     0    12     0     0
SMALL
NO_CHARGES


@<TRIPOS>ATOM
      1 OD1        11.2030   36.5770   24.0780 O.co2     3 ASC3        0.0000 
      2 OD1        12.1110   36.9810   22.6730 O.co2    11 ASL3        0.0000 
      3 OD1        10.2950   36.1730   25.4830 O.co2     7 ASP3        0.0000 
      4 O          12.7770   36.5845   23.9335 O.2       1 ALC1        0.0000 
      5 O          12.1110   36.9810   22.6730 O.2       9 ALL1        0.0000 
      6 O          13.4430   36.1880   25.1940 O.2       5 ALP1        0.0000 
      7 N          12.3975   38.4145   18.2860 N.am      2 SEC2        0.0000 
      8 N          12.1870   38.4400   19.7820 N.am     10 SEL2        0.0000 
      9 N          12.6080   38.3890   16.7900 N.am      6 SEP2        0.0000 
     10 N          12.3470   35.2720   19.3055 N.am      2 SEC2        0.0000 
     11 N          12.4100   36.3410   19.9940 N.am     10 SEL2        0.0000 
     12 N          12.2840   34.2030   18.6170 N.am      6 SEP2        0.0000 
     13 CA         13.3595   34.3555   21.1850 C.3       4 GLC5        0.0000 
     14 CA         14.7890   35.7010   21.6950 C.3      12 GLL5        0.0000 
     15 CA         11.9300   33.0100   20.6750 C.3       8 GLP5        0.0000 
     16 CA         18.1955   33.2450   22.6525 C.3       4 GLC5        0.0000 
     17 CA         17.0300   34.7280   22.6350 C.3      12 GLL5        0.0000 
     18 CA         19.3610   31.7620   22.6700 C.3       8 GLP5        0.0000 
     19 CA         15.9000   35.5000   25.4480 C.3       4 GLC5        0.0000 
     20 CA         16.9900   35.5940   23.9090 C.3      12 GLL5        0.0000 
     21 CA         14.8100   35.4060   26.9870 C.3       8 GLP5        0.0000 
     22 CA         16.4775   38.4625   24.0150 C.3       4 GLC5        0.0000 
     23 CA         17.9390   36.7900   23.8840 C.3      12 GLL5        0.0000 
     24 CA         15.0160   40.1350   24.1460 C.3       8 GLP5        0.0000 
     25 O          16.9605   38.1555   25.6830 O.2       1 ALC1        0.0000 
     26 O          17.3230   37.9760   24.4190 O.2       9 ALL1        0.0000 
     27 O          16.5980   38.3350   26.9470 O.2       5 ALP1        0.0000 
     28 O          18.0020   38.0605   25.9960 O.2       1 ALC1        0.0000 
     29 O          18.6810   38.1450   27.5730 O.2       5 ALP1        0.0000 
     30 O          19.1580   37.8190   26.5190 O.2       1 ALC1        0.0000 
     31 O          19.6350   37.4930   25.4650 O.2       9 ALL1        0.0000 
     32 CA         16.5895   35.4265   26.3820 C.3       4 GLC5        0.0000 
     33 CA         18.3690   35.4470   25.7770 C.3      12 GLL5        0.0000 
     34 CA         19.9340   35.8235   27.3080 C.3       4 GLC5        0.0000 
     35 CA         21.4990   36.2000   28.8390 C.3       8 GLP5        0.0000 
     36 CA         20.7745   34.0575   29.6135 C.3       4 GLC5        0.0000 
     37 CA         20.3470   32.3090   28.9550 C.3      12 GLL5        0.0000 
     38 CA         21.2020   35.8060   30.2720 C.3       8 GLP5        0.0000 
     39 CA         19.3040   30.8280   29.6395 C.3       4 GLC5        0.0000 
     40 CA         18.2610   29.3470   30.3240 C.3       8 GLP5        0.0000 
     41 O          21.2635   30.9120   30.7830 O.2       1 ALC1        0.0000 
     42 O          21.2880   31.3770   29.1540 O.2       9 ALL1        0.0000 
     43 O          21.2390   30.4470   32.4120 O.2       5 ALP1        0.0000 
     44 N          19.1210   31.9895   31.3030 N.am      2 SEC2        0.0000 
     45 N          19.5340   32.5960   30.0050 N.am     10 SEL2        0.0000 
     46 N          18.7080   31.3830   32.6010 N.am      6 SEP2        0.0000 
     47 CA         17.6165   35.5090   30.1675 C.3       4 GLC5        0.0000 
     48 CA         18.5710   33.5490   29.8160 C.3      12 GLL5        0.0000 
     49 CA         16.6620   37.4690   30.5190 C.3       8 GLP5        0.0000 
     50 CA         19.8865   34.6775   30.0440 C.3       4 GLC5        0.0000 
     51 CA         19.5195   33.1760   31.6975 C.3       4 GLC5        0.0000 
     52 CA         20.4680   32.8030   33.5790 C.3       8 GLP5        0.0000 
     53 CA         17.8795   31.7855   30.4905 C.3       4 GLC5        0.0000 
     54 CA         17.1880   30.0220   31.1650 C.3       8 GLP5        0.0000 
     55 N          18.6955   35.5650   29.5865 N.am      2 SEC2        0.0000 
     56 N          18.3780   34.2110   28.6580 N.am     10 SEL2        0.0000 
     57 N          19.0130   36.9190   30.5150 N.am      6 SEP2        0.0000 
     58 CA         14.8243   38.8880   21.0403 C.3       4 GLC5        0.0000 
     59 CA         14.5510   37.2050   21.9730 C.3      12 GLL5        0.0000 
     60 CA         15.8350   40.3320   20.1770 C.3       8 GLP5        0.0000 
     61 CA         14.4147   38.7895   23.0248 C.3       4 GLC5        0.0000 
     62 CA         20.1490   36.6702   23.1707 C.3       4 GLC5        0.0000 
     63 CA         21.7860   36.7670   22.0050 C.3       8 GLP5        0.0000 
     64 CA         18.8015   38.6783   24.5577 C.3       4 GLC5        0.0000 
     65 CA         19.0850   36.3570   24.7890 C.3      12 GLL5        0.0000 
     66 CA         19.0910   40.7830   24.7790 C.3       8 GLP5        0.0000 
     67 CA         20.6120   34.8088   28.2560 C.3       4 GLC5        0.0000 
     68 CA         19.2110   33.9080   27.6150 C.3      12 GLL5        0.0000 
     69 CA         20.7590   30.9260   27.3080 C.3       4 GLC5        0.0000 
     70 CA         20.2390   32.9270   27.7310 C.3      12 GLL5        0.0000 
     71 CA         21.2250   29.2340   26.2730 C.3       8 GLP5        0.0000 
@<TRIPOS>BOND
@<TRIPOS>SUBSTRUCTURE
     1 ALC1        4 GROUP        1 X    ALC  0     ROOT ALC X 1
     2 SEC2        7 GROUP        1 X    SEC  0     **** SEC X 2
     3 ASC3        1 GROUP        1 X    ASC  0     **** ASC X 3
     4 GLC5       13 GROUP        1 X    GLC  0     **** GLC X 6
     5 ALP1        6 GROUP        1 Y    ALP  0     ROOT ALP Y 8
     6 SEP2        9 GROUP        1 Y    SEP  0     **** SEP Y 9
     7 ASP3        3 GROUP        1 Y    ASP  0     **** ASP Y 10
     8 GLP5       15 GROUP        1 Y    GLP  0     **** GLP Y 13
     9 ALL1        5 GROUP        1 Z    ALL  0     ROOT ALL Z 15
    10 SEL2        8 GROUP        1 Z    SEL  0     **** SEL Z 16
    11 ASL3        2 GROUP        1 Z    ASL  0     **** ASL Z 17
    12 GLL5       14 GROUP        1 Z    GLL  0     **** GLL Z 20
@<TRIPOS>SET

