#    Name: 1qaq_SFG_1_ligand
#    Modification time : Mon Mar 24 23:17:53 2014

@<TRIPOS>MOLECULE
1qaq_SFG_1_ligand
   48    50     1     0     0
SMALL
NO_CHARGES


@<TRIPOS>ATOM
      1 N          12.1110   36.9810   22.6730 N.4       1 SFG245      0.0000 
      2 CA         13.0760   37.6830   21.8340 C.3       1 SFG245      0.0000 
      3 C          12.5140   37.4720   20.4390 C.2       1 SFG245      0.0000 
      4 O          12.1870   38.4400   19.7820 O.co2     1 SFG245      0.0000 
      5 OXT        12.4100   36.3410   19.9940 O.co2     1 SFG245      0.0000 
      6 CB         14.5510   37.2050   21.9730 C.3       1 SFG245      0.0000 
      7 CG         14.7890   35.7010   21.6950 C.3       1 SFG245      0.0000 
      8 CD         16.2600   35.3190   21.4260 C.3       1 SFG245      0.0000 
      9 NE         16.3560   34.3510   20.3450 N.3       1 SFG245      0.0000 
     10 C5'        17.0300   34.7280   22.6350 C.3       1 SFG245      0.0000 
     11 C4'        16.9900   35.5940   23.9090 C.3       1 SFG245      0.0000 
     12 O4'        17.3120   34.8440   25.0610 O.3       1 SFG245      0.0000 
     13 C3'        17.9390   36.7900   23.8840 C.3       1 SFG245      0.0000 
     14 O3'        17.3230   37.9760   24.4190 O.3       1 SFG245      0.0000 
     15 C2'        19.0850   36.3570   24.7890 C.3       1 SFG245      0.0000 
     16 O2'        19.6350   37.4930   25.4650 O.3       1 SFG245      0.0000 
     17 C1'        18.3690   35.4470   25.7770 C.3       1 SFG245      0.0000 
     18 N9         19.2690   34.4050   26.3280 N.pl3     1 SFG245      0.0000 
     19 C8         20.2890   33.7290   25.7320 C.2       1 SFG245      0.0000 
     20 N7         20.9130   32.8310   26.5310 N.2       1 SFG245      0.0000 
     21 C5         20.2390   32.9270   27.7310 C.ar      1 SFG245      0.0000 
     22 C6         20.3470   32.3090   28.9550 C.ar      1 SFG245      0.0000 
     23 N6         21.2880   31.3770   29.1540 N.pl3     1 SFG245      0.0000 
     24 N1         19.5340   32.5960   30.0050 N.ar      1 SFG245      0.0000 
     25 C2         18.5710   33.5490   29.8160 C.ar      1 SFG245      0.0000 
     26 N3         18.3780   34.2110   28.6580 N.ar      1 SFG245      0.0000 
     27 C4         19.2110   33.9080   27.6150 C.ar      1 SFG245      0.0000 
     28 H          13.0245   38.7477   22.0387 H         1 SFG245      0.0000 
     29 H          14.8974   37.4361   22.9947 H         1 SFG245      0.0000 
     30 H          15.1756   37.7966   21.2822 H         1 SFG245      0.0000 
     31 H          14.1804   35.4033   20.8260 H         1 SFG245      0.0000 
     32 H          14.4240   35.1216   22.5584 H         1 SFG245      0.0000 
     33 H          16.7979   36.2310   21.1226 H         1 SFG245      0.0000 
     34 H          18.0805   34.5754   22.3402 H         1 SFG245      0.0000 
     35 H          16.6114   33.7352   22.8652 H         1 SFG245      0.0000 
     36 H          15.9707   35.9987   24.0054 H         1 SFG245      0.0000 
     37 H          18.3134   36.9098   22.9051 H         1 SFG245      0.0000 
     38 H          19.7657   35.7981   24.2365 H         1 SFG245      0.0000 
     39 H          17.9865   36.0638   26.5743 H         1 SFG245      0.0000 
     40 H          20.5545   33.8858   24.7778 H         1 SFG245      0.0000 
     41 H          21.9035   31.2021   28.3855 H         1 SFG245      0.0000 
     42 H          21.2908   30.9395   30.0532 H         1 SFG245      0.0000 
     43 H          17.9358   33.7771   30.6438 H         1 SFG245      0.0000 
     44 H          11.9210   36.0610   22.3303 H         1 SFG245      0.0000 
     45 H          12.4386   36.8820   23.6126 H         1 SFG245      0.0000 
     46 H          11.2364   37.4639   22.7169 H         1 SFG245      0.0000 
     47 H          17.2123   37.7919   25.3957 H         1 SFG245      0.0000 
     48 H          19.5054   37.3027   26.4382 H         1 SFG245      0.0000 
@<TRIPOS>BOND
     1    2    1 1    
     2   44    1 1    
     3   45    1 1    
     4   46    1 1    
     5    3    2 1    
     6    6    2 1    
     7   28    2 1    
     8    4    3 ar   
     9    5    3 ar   
    10    7    6 1    
    11   29    6 1    
    12   30    6 1    
    13    8    7 1    
    14   31    7 1    
    15   32    7 1    
    16    9    8 1    
    17   10    8 1    
    18   33    8 1    
    19   11   10 1    
    20   34   10 1    
    21   35   10 1    
    22   12   11 1    
    23   13   11 1    
    24   36   11 1    
    25   17   12 1    
    26   14   13 1    
    27   15   13 1    
    28   37   13 1    
    29   47   14 1    
    30   16   15 1    
    31   17   15 1    
    32   38   15 1    
    33   48   16 1    
    34   18   17 1    
    35   39   17 1    
    36   19   18 1    
    37   27   18 1    
    38   20   19 2    
    39   40   19 1    
    40   21   20 1    
    41   22   21 ar   
    42   27   21 ar   
    43   23   22 1    
    44   24   22 ar   
    45   41   23 1    
    46   42   23 1    
    47   25   24 ar   
    48   26   25 ar   
    49   43   25 1    
    50   27   26 ar   
@<TRIPOS>SUBSTRUCTURE
     1 SFG245      1 GROUP   
@<TRIPOS>SET

