#    Name: 1BNV_1_CAVITY_N1_6.mol2
#    Modification time : Mon Mar 10 15:05:16 2014

@<TRIPOS>MOLECULE
1BNV_1_CAVITY_N1_6.mol2
   80     0     6     0     0
SMALL
NO_CHARGES


@<TRIPOS>ATOM
      1 CA         -0.9228    6.1250   14.2160 C.3       5 GLY6        0.0000 
      2 N           0.4103    4.2781   11.7539 N.2       2 ALA2        0.0000 
      3 CA         -3.1362    6.4082   15.5466 C.3       5 GLY6        0.0000 
      4 CZ         -4.2652    7.3194   15.1657 C.ar      4 PHE5        0.0000 
      5 N          -1.9051    5.0292   14.5061 N.2       2 ALA2        0.0000 
      6 DU         -3.0341    5.9403   14.1251 H         6 CUB7        0.0000 
      7 CZ         -4.1631    6.8515   13.7442 C.ar      4 PHE5        0.0000 
      8 N          -1.8031    4.5613   13.0846 N.2       2 ALA2        0.0000 
      9 DU         -2.9321    5.4725   12.7036 H         6 CUB7        0.0000 
     10 DU         -4.0611    6.3836   12.3227 H         6 CUB7        0.0000 
     11 N          -0.5720    3.1823   12.0440 N.2       2 ALA2        0.0000 
     12 DU         -1.7010    4.0935   11.6631 H         6 CUB7        0.0000 
     13 DU         -2.8300    5.0046   11.2821 H         6 CUB7        0.0000 
     14 DU         -3.9590    5.9158   10.9012 H         6 CUB7        0.0000 
     15 CA         -0.4699    2.7144   10.6225 C.3       5 GLY6        0.0000 
     16 O          -1.5989    3.6256   10.2416 O.2       2 ALA2        0.0000 
     17 O          -2.7279    4.5368    9.8606 O.2       2 ALA2        0.0000 
     18 O          -3.8569    5.4479    9.4797 O.2       2 ALA2        0.0000 
     19 CA         -4.1185    5.3123   15.8368 C.3       5 GLY6        0.0000 
     20 CZ         -5.2475    6.2235   15.4558 C.ar      4 PHE5        0.0000 
     21 OG         -2.8874    3.9333   14.7962 O.2       1 SER1        0.0000 
     22 DU         -4.0164    4.8445   14.4153 H         6 CUB7        0.0000 
     23 CZ         -5.1454    5.7556   14.0343 C.ar      4 PHE5        0.0000 
     24 CZ         -6.2745    6.6668   13.6534 C.ar      4 PHE5        0.0000 
     25 OG         -2.7854    3.4655   13.3747 O.2       1 SER1        0.0000 
     26 DU         -3.9144    4.3766   12.9938 H         6 CUB7        0.0000 
     27 O          -5.0434    5.2878   12.6128 O.2       2 ALA2        0.0000 
     28 O          -6.1724    6.1989   12.2319 O.2       2 ALA2        0.0000 
     29 CA         -7.3014    7.1101   11.8509 C.3       5 GLY6        0.0000 
     30 OG         -1.5543    2.0864   12.3342 O.2       1 SER1        0.0000 
     31 OG         -2.6833    2.9976   11.9532 O.2       1 SER1        0.0000 
     32 DU         -3.8123    3.9088   11.5723 H         6 CUB7        0.0000 
     33 O          -4.9413    4.8199   11.1913 O.2       2 ALA2        0.0000 
     34 O          -6.0703    5.7311   10.8103 O.2       2 ALA2        0.0000 
     35 CA         -1.4522    1.6186   10.9127 C.3       5 GLY6        0.0000 
     36 O          -2.5812    2.5297   10.5317 O.2       2 ALA2        0.0000 
     37 O          -3.7102    3.4409   10.1508 O.2       2 ALA2        0.0000 
     38 N          -4.8392    4.3521    9.7698 N.2       2 ALA2        0.0000 
     39 CA         -3.9718    3.3053   16.5079 C.3       5 GLY6        0.0000 
     40 CA         -6.2298    5.1277   15.7460 C.3       5 GLY6        0.0000 
     41 OG         -3.8697    2.8375   15.0864 O.2       1 SER1        0.0000 
     42 CA         -4.9987    3.7486   14.7054 C.3       5 GLY6        0.0000 
     43 O          -6.1278    4.6598   14.3245 O.2       2 ALA2        0.0000 
     44 O          -7.2568    5.5710   13.9435 O.2       2 ALA2        0.0000 
     45 OG         -3.7677    2.3696   13.6649 O.2       1 SER1        0.0000 
     46 O          -4.8967    3.2808   13.2839 O.2       2 ALA2        0.0000 
     47 OG         -2.5366    0.9906   12.6243 O.2       1 SER1        0.0000 
     48 OG         -3.6656    1.9017   12.2434 O.2       1 SER1        0.0000 
     49 O          -4.7946    2.8129   11.8624 O.2       2 ALA2        0.0000 
     50 CA         -2.4345    0.5227   11.2028 C.3       5 GLY6        0.0000 
     51 O          -3.5635    1.4339   10.8219 O.2       2 ALA2        0.0000 
     52 N          -4.6925    2.3451   10.4409 N.2       2 ALA2        0.0000 
     53 OD1        -3.8251    1.2983   17.1790 O.3       3 ASP3        0.0000 
     54 CA         -4.9541    2.2095   16.7980 C.3       5 GLY6        0.0000 
     55 CA         -6.0831    3.1206   16.4171 C.3       5 GLY6        0.0000 
     56 CA         -7.2121    4.0318   16.0361 C.3       5 GLY6        0.0000 
     57 OG         -4.8520    1.7416   15.3765 O.2       1 SER1        0.0000 
     58 N          -5.9811    2.6528   14.9956 N.2       2 ALA2        0.0000 
     59 CA         -7.1101    3.5639   14.6146 C.3       5 GLY6        0.0000 
     60 N          -4.7500    1.2738   13.9550 N.2       2 ALA2        0.0000 
     61 O          -5.8790    2.1849   13.5741 O.2       2 ALA2        0.0000 
     62 CA         -3.5189   -0.1053   12.9145 C.3       5 GLY6        0.0000 
     63 N          -4.6479    0.8059   12.5335 N.2       2 ALA2        0.0000 
     64 O          -5.7769    1.7171   12.1525 O.2       2 ALA2        0.0000 
     65 CA         -2.2878   -1.4843   11.8739 C.3       5 GLY6        0.0000 
     66 CA         -3.4168   -0.5731   11.4929 C.3       5 GLY6        0.0000 
     67 CA         -4.5458    0.3380   11.1120 C.3       5 GLY6        0.0000 
     68 N          -5.6748    1.2492   10.7310 N.2       2 ALA2        0.0000 
     69 CA         -3.3148   -1.0410   10.0714 C.3       5 GLY6        0.0000 
     70 O          -4.4438   -0.1298    9.6905 O.2       2 ALA2        0.0000 
     71 CA         -6.0385    1.5815   18.5097 C.3       5 GLY6        0.0000 
     72 CA         -7.1675    2.4926   18.1287 C.3       5 GLY6        0.0000 
     73 OD1        -5.9364    1.1136   17.0882 O.3       3 ASP3        0.0000 
     74 CA         -7.0654    2.0248   16.7072 C.3       5 GLY6        0.0000 
     75 OD1        -5.8344    0.6458   15.6667 O.3       3 ASP3        0.0000 
     76 N          -4.5012   -1.2011   13.2046 N.2       2 ALA2        0.0000 
     77 OG         -3.2701   -2.5801   12.1640 O.2       1 SER1        0.0000 
     78 CA         -4.3991   -1.6690   11.7831 C.3       5 GLY6        0.0000 
     79 CA         -5.5281   -0.7578   11.4021 C.3       5 GLY6        0.0000 
     80 CA         -5.4261   -1.2257    9.9806 C.3       5 GLY6        0.0000 
@<TRIPOS>BOND
@<TRIPOS>SUBSTRUCTURE
     1 SER1       21 GROUP   
     2 ALA2        2 GROUP   
     3 ASP3       53 GROUP   
     4 PHE5        4 GROUP   
     5 GLY6        1 GROUP   
     6 CUB7        6 GROUP   
@<TRIPOS>SET

