#    Name: 1bnv_AL7_1_INTS_M
#    Modification time : Mon Mar 24 19:40:18 2014

@<TRIPOS>MOLECULE
1bnv_AL7_1_INTS_M
   44     0    12     0     0
SMALL
NO_CHARGES


@<TRIPOS>ATOM
      1 CA          0.1700    1.7385   12.0500 C.3       4 GLC5        0.0000 
      2 CA         -1.5470    3.0460   12.4460 C.3      12 GLL5        0.0000 
      3 CA          1.8870    0.4310   11.6540 C.3       8 GLP5        0.0000 
      4 CA         -1.0800    1.6195   13.7155 C.3       4 GLC5        0.0000 
      5 CA         -0.6130    0.1930   14.9850 C.3       8 GLP5        0.0000 
      6 CA         -2.4320    6.4275   16.1985 C.3       4 GLC5        0.0000 
      7 CA         -2.6460    7.2920   14.2810 C.3      12 GLL5        0.0000 
      8 CA         -2.2180    5.5630   18.1160 C.3       8 GLP5        0.0000 
      9 CA         -1.6595   11.4680   16.5145 C.3       4 GLC5        0.0000 
     10 CA         -0.6030   10.1410   15.2420 C.3      12 GLL5        0.0000 
     11 CA         -2.7160   12.7950   17.7870 C.3       8 GLP5        0.0000 
     12 CA          0.4945    8.6020   16.0320 C.3       4 GLC5        0.0000 
     13 CA          1.5920    7.0630   16.8220 C.3       8 GLP5        0.0000 
     14 CA         -0.3490    9.8630   17.3630 C.3       4 GLC5        0.0000 
     15 CA         -0.0950    9.5850   19.4840 C.3       8 GLP5        0.0000 
     16 O          -6.6370   -0.6450   15.2535 O.2       1 ALC1        0.0000 
     17 O          -5.6080   -0.7560   16.4350 O.2       9 ALL1        0.0000 
     18 O          -7.6660   -0.5340   14.0720 O.2       5 ALP1        0.0000 
     19 O          -5.7770   -2.0005   15.5895 O.2       1 ALC1        0.0000 
     20 O          -5.9460   -3.2450   14.7440 O.2       5 ALP1        0.0000 
     21 O          -4.6980   -1.4410   17.1365 O.2       1 ALC1        0.0000 
     22 O          -3.7880   -2.1260   17.8380 O.2       5 ALP1        0.0000 
     23 Zn         -6.2765   -1.2335   15.9610 Zn        3 ZIC7        0.0000 
     24 Zn         -5.6080   -0.7560   16.4350 Zn       11 ZIL7        0.0000 
     25 Zn         -6.9450   -1.7110   15.4870 Zn        7 ZIP7        0.0000 
     26 N          -4.0715    0.4630   18.7375 N.am      2 SEC2        0.0000 
     27 N          -5.3140    0.8520   18.1880 N.am     10 SEL2        0.0000 
     28 N          -2.8290    0.0740   19.2870 N.am      6 SEP2        0.0000 
     29 CA         -8.0575    3.4020   15.6465 C.3       4 GLC5        0.0000 
     30 CA         -6.1480    3.4410   16.0360 C.3      12 GLL5        0.0000 
     31 CA         -9.9670    3.3630   15.2570 C.3       8 GLP5        0.0000 
     32 CA         -2.9965    0.3905   14.7220 C.3       4 GLC5        0.0000 
     33 CA         -4.5440    1.8080   14.8390 C.3      12 GLL5        0.0000 
     34 CA         -1.4490   -1.0270   14.6050 C.3       8 GLP5        0.0000 
     35 Zn         -5.5680    2.0125   14.3505 Zn        3 ZIC7        0.0000 
     36 Zn         -4.1910    5.7360   13.2140 Zn       11 ZIL7        0.0000 
     37 N          -7.2550    4.7425   12.3935 N.am      2 SEC2        0.0000 
     38 N          -6.6280    5.7420   13.4100 N.am     10 SEL2        0.0000 
     39 N          -7.8820    3.7430   11.3770 N.am      6 SEP2        0.0000 
     40 CA         -0.4605    6.9283   15.0205 C.3       4 GLC5        0.0000 
     41 CA          1.3590    5.9690   15.8200 C.3       8 GLP5        0.0000 
     42 CA         -5.0304    4.0273   16.9215 C.3       4 GLC5        0.0000 
     43 CA         -5.2150    3.9570   14.7200 C.3      12 GLL5        0.0000 
     44 CA         -4.5520    4.7460   18.5050 C.3       8 GLP5        0.0000 
@<TRIPOS>BOND
@<TRIPOS>SUBSTRUCTURE
     1 ALC1       16 GROUP        1 X    ALC  0     ROOT ALC X 1
     2 SEC2       26 GROUP        1 X    SEC  0     **** SEC X 2
     3 ZIC7       23 GROUP        1 X    ZIC  0     **** ZIC X 5
     4 GLC5        1 GROUP        1 X    GLC  0     **** GLC X 6
     5 ALP1       18 GROUP        1 Y    ALP  0     ROOT ALP Y 8
     6 SEP2       28 GROUP        1 Y    SEP  0     **** SEP Y 9
     7 ZIP7       25 GROUP        1 Y    ZIP  0     **** ZIP Y 12
     8 GLP5        3 GROUP        1 Y    GLP  0     **** GLP Y 13
     9 ALL1       17 GROUP        1 Z    ALL  0     ROOT ALL Z 15
    10 SEL2       27 GROUP        1 Z    SEL  0     **** SEL Z 16
    11 ZIL7       24 GROUP        1 Z    ZIL  0     **** ZIL Z 19
    12 GLL5        2 GROUP        1 Z    GLL  0     **** GLL Z 20
@<TRIPOS>SET

