#    Name: 1bnv_AL7_1_ligand
#    Modification time : Mon Mar 24 19:40:18 2014

@<TRIPOS>MOLECULE
1bnv_AL7_1_ligand
   41    43     1     0     0
SMALL
NO_CHARGES


@<TRIPOS>ATOM
      1 C3         -5.4570    1.8790   15.8760 C.2       1 AL7555      0.0000 
      2 C9         -4.1420    4.6350   12.2540 C.3       1 AL7555      0.0000 
      3 C10        -3.4840    3.4720   13.0120 C.3       1 AL7555      0.0000 
      4 C16        -1.5470    3.0460   12.4460 C.3       1 AL7555      0.0000 
      5 C19        -2.6170    8.7210   11.8780 C.ar      1 AL7555      0.0000 
      6 C20        -1.8960    9.1920   12.9630 C.ar      1 AL7555      0.0000 
      7 C21        -1.9140    8.4830   14.1610 C.ar      1 AL7555      0.0000 
      8 C22        -2.6460    7.2920   14.2810 C.ar      1 AL7555      0.0000 
      9 C24        -0.6030   10.1410   15.2420 C.3       1 AL7555      0.0000 
     10 N21        -5.6080   -0.7560   16.4350 N.pl3     1 AL7555      0.0000 
     11 S1         -5.9320    0.5970   16.9390 S.o2      1 AL7555      0.0000 
     12 O1A        -5.3140    0.8520   18.1880 O.2       1 AL7555      0.0000 
     13 O2A        -7.3140    0.7730   16.9140 O.2       1 AL7555      0.0000 
     14 S2         -6.1480    3.4410   16.0360 S.3       1 AL7555      0.0000 
     15 C6         -5.2150    3.9570   14.7200 C.2       1 AL7555      0.0000 
     16 C5         -4.3770    2.9900   14.1530 C.2       1 AL7555      0.0000 
     17 C4         -4.5440    1.8080   14.8390 C.2       1 AL7555      0.0000 
     18 N8         -4.1910    5.7360   13.2140 N.pl3     1 AL7555      0.0000 
     19 S7         -5.3450    5.5640   14.1550 S.o2      1 AL7555      0.0000 
     20 O3B        -6.6280    5.7420   13.4100 O.2       1 AL7555      0.0000 
     21 O4B        -5.2660    6.4310   15.3640 O.2       1 AL7555      0.0000 
     22 N15        -2.1620    3.8540   13.4980 N.4       1 AL7555      0.0000 
     23 C17        -3.3910    6.8190   13.1810 C.ar      1 AL7555      0.0000 
     24 C18        -3.3590    7.5480   11.9850 C.ar      1 AL7555      0.0000 
     25 O23        -1.3110    8.8950   15.2380 O.3       1 AL7555      0.0000 
     26 H          -5.1254    4.3313   11.9528 H         1 AL7555      0.0000 
     27 H          -3.5306    4.8781   11.4072 H         1 AL7555      0.0000 
     28 H          -3.3846    2.6408   12.2996 H         1 AL7555      0.0000 
     29 H          -2.6060    9.2387   10.9869 H         1 AL7555      0.0000 
     30 H          -1.3508   10.0581   12.8874 H         1 AL7555      0.0000 
     31 H          -2.6414    6.7693   15.1568 H         1 AL7555      0.0000 
     32 H          -6.0686   -1.0334   15.5919 H         1 AL7555      0.0000 
     33 H          -4.9548   -1.2832   16.9784 H         1 AL7555      0.0000 
     34 H          -4.0539    0.9761   14.6121 H         1 AL7555      0.0000 
     35 H          -3.8966    7.2060   11.1708 H         1 AL7555      0.0000 
     36 H          -0.5605    2.9513   12.5793 H         1 AL7555      0.0000 
     37 H          -1.9288    2.1222   12.4161 H         1 AL7555      0.0000 
     38 H          -1.6831    3.4488   11.5409 H         1 AL7555      0.0000 
     39 H          -0.1887   10.3299   16.1323 H         1 AL7555      0.0000 
     40 H           0.1350   10.1510   14.5672 H         1 AL7555      0.0000 
     41 H          -1.2049   10.9108   15.0295 H         1 AL7555      0.0000 
@<TRIPOS>BOND
     1   11    1 1    
     2   14    1 1    
     3   17    1 2    
     4    3    2 1    
     5   18    2 1    
     6   26    2 1    
     7   27    2 1    
     8   16    3 1    
     9   22    3 1    
    10   28    3 1    
    11   22    4 1    
    12   36    4 1    
    13   37    4 1    
    14   38    4 1    
    15    6    5 ar   
    16   24    5 ar   
    17   29    5 1    
    18    7    6 ar   
    19   30    6 1    
    20    8    7 ar   
    21   25    7 1    
    22   23    8 ar   
    23   31    8 1    
    24   25    9 1    
    25   39    9 1    
    26   40    9 1    
    27   41    9 1    
    28   11   10 1    
    29   32   10 1    
    30   33   10 1    
    31   12   11 2    
    32   13   11 2    
    33   15   14 1    
    34   16   15 2    
    35   19   15 1    
    36   17   16 1    
    37   34   17 1    
    38   19   18 1    
    39   23   18 1    
    40   20   19 2    
    41   21   19 2    
    42   24   23 ar   
    43   35   24 1    
@<TRIPOS>SUBSTRUCTURE
     1 AL7555      1 GROUP   
@<TRIPOS>SET

