#    Name: 4hgl_0YO_1_INTS_M
#    Modification time : Tue Mar 25 01:01:26 2014

@<TRIPOS>MOLECULE
4hgl_0YO_1_INTS_M
   78     0     9     0     0
SMALL
NO_CHARGES


@<TRIPOS>ATOM
      1 CA         38.4420  -15.8610   27.0910 C.3       3 GLC5        0.0000 
      2 CA         36.7820  -15.1190   28.3330 C.3       9 GLL5        0.0000 
      3 CA         40.1020  -16.6030   25.8490 C.3       6 GLP5        0.0000 
      4 CA         38.6720  -14.6190   29.2500 C.3       3 GLC5        0.0000 
      5 CA         40.5620  -14.1190   30.1670 C.3       6 GLP5        0.0000 
      6 CA         35.2615  -14.0715   29.4555 C.3       3 GLC5        0.0000 
      7 CA         33.7410  -13.0240   30.5780 C.3       6 GLP5        0.0000 
      8 CA         37.3730  -13.4625   31.1680 C.3       3 GLC5        0.0000 
      9 CA         37.1110  -13.0370   29.2410 C.3       9 GLL5        0.0000 
     10 CA         37.6350  -13.8880   33.0950 C.3       6 GLP5        0.0000 
     11 CA         35.4260  -13.0305   29.9095 C.3       3 GLC5        0.0000 
     12 CA         39.5320  -11.6955   28.6595 C.3       3 GLC5        0.0000 
     13 CA         37.5800  -12.5030   27.9730 C.3       9 GLL5        0.0000 
     14 CA         41.4840  -10.8880   29.3460 C.3       6 GLP5        0.0000 
     15 CA         35.7470  -11.6200   28.7725 C.3       3 GLC5        0.0000 
     16 CA         33.9140  -10.7370   29.5720 C.3       6 GLP5        0.0000 
     17 CA         36.2630  -11.1905   26.9450 C.3       3 GLC5        0.0000 
     18 CA         34.9460   -9.8780   25.9170 C.3       6 GLP5        0.0000 
     19 CA         38.2870  -17.0415   26.6795 C.3       3 GLC5        0.0000 
     20 CA         36.4720  -17.4800   27.5100 C.3       9 GLL5        0.0000 
     21 CA         35.9160  -20.2265   30.2160 C.3       3 GLC5        0.0000 
     22 CA         35.1930  -19.0000   29.0830 C.3       9 GLL5        0.0000 
     23 CA         36.6390  -21.4530   31.3490 C.3       6 GLP5        0.0000 
     24 CA         40.9645  -12.1625   21.3900 C.3       3 GLC5        0.0000 
     25 CA         39.2930  -13.2200   21.0360 C.3       9 GLL5        0.0000 
     26 CA         42.6360  -11.1050   21.7440 C.3       6 GLP5        0.0000 
     27 CA         38.4655  -11.2810   20.7740 C.3       3 GLC5        0.0000 
     28 CA         37.6380   -9.3420   20.5120 C.3       6 GLP5        0.0000 
     29 CA         36.9880   -9.0055   29.4640 C.3       3 GLC5        0.0000 
     30 CA         37.6200  -10.3410   28.8580 C.3       9 GLL5        0.0000 
     31 CA         36.3560   -7.6700   30.0700 C.3       6 GLP5        0.0000 
     32 CA         39.2340   -9.5835   28.4585 C.3       3 GLC5        0.0000 
     33 CA         40.8480   -8.8260   28.0590 C.3       6 GLP5        0.0000 
     34 CA         35.7670  -10.5390   29.2150 C.3       3 GLC5        0.0000 
     35 CA         36.2830  -10.1095   27.3875 C.3       3 GLC5        0.0000 
     36 CA         40.7370  -11.6195   22.7125 C.3       3 GLC5        0.0000 
     37 CA         38.8380  -12.1340   23.6810 C.3       9 GLL5        0.0000 
     38 CA         38.2380  -10.7380   22.0965 C.3       3 GLC5        0.0000 
     39 N          40.7430  -10.0170   22.0400 N.am      2 SEC2        0.0000 
     40 N          39.5790  -10.1260   22.8500 N.am      8 SEL2        0.0000 
     41 N          41.9070   -9.9080   21.2300 N.am      5 SEP2        0.0000 
     42 O          39.1455  -11.1305   20.1005 O.2       1 ALC1        0.0000 
     43 O          39.4900  -11.8730   21.4920 O.2       7 ALL1        0.0000 
     44 O          38.8010  -10.3880   18.7090 O.2       4 ALP1        0.0000 
     45 CA         38.8630  -15.0105   26.3445 C.3       3 GLC5        0.0000 
     46 CA         37.6240  -13.4180   26.8400 C.3       9 GLL5        0.0000 
     47 CA         36.3930  -12.7500   25.2685 C.3       3 GLC5        0.0000 
     48 CA         35.1620  -12.0820   23.6970 C.3       6 GLP5        0.0000 
     49 N          36.1385  -14.1360   30.6720 N.am      2 SEC2        0.0000 
     50 N          36.7320  -14.2280   29.4580 N.am      8 SEL2        0.0000 
     51 N          35.5450  -14.0440   31.8860 N.am      5 SEP2        0.0000 
     52 CA         34.8960  -15.3600   30.7580 C.3       3 GLC5        0.0000 
     53 CA         35.6960  -16.7520   29.7840 C.3       9 GLL5        0.0000 
     54 CA         34.0960  -13.9680   31.7320 C.3       6 GLP5        0.0000 
     55 CA         33.6730  -16.7245   30.2825 C.3       3 GLC5        0.0000 
     56 CA         31.6500  -16.6970   30.7810 C.3       6 GLP5        0.0000 
     57 CA         35.1662  -14.7155   27.4465 C.3       3 GLC5        0.0000 
     58 CA         36.3550  -16.4610   28.5310 C.3       9 GLL5        0.0000 
     59 CA         33.7640  -13.6410   26.4610 C.3       6 GLP5        0.0000 
     60 CA         35.5547  -13.2055   27.5340 C.3       3 GLC5        0.0000 
     61 CA         38.1692  -18.7203   28.3765 C.3       3 GLC5        0.0000 
     62 CA         40.1350  -19.3190   29.1340 C.3       6 GLP5        0.0000 
     63 CA         36.8967  -21.0850   25.6135 C.3       3 GLC5        0.0000 
     64 CA         35.4860  -21.1510   27.0590 C.3       9 GLL5        0.0000 
     65 CA         38.0100  -21.6950   24.3210 C.3       6 GLP5        0.0000 
     66 CA         35.2157  -21.5021   29.6677 C.3       3 GLC5        0.0000 
     67 CA         35.3400  -22.0320   31.3860 C.3       6 GLP5        0.0000 
     68 CA         35.8130  -13.4432   26.2967 C.3       3 GLC5        0.0000 
     69 CA         38.1000  -13.0730   25.4250 C.3       9 GLL5        0.0000 
     70 CA         40.1863  -14.3143   24.0703 C.3       3 GLC5        0.0000 
     71 CA         38.5160  -13.4630   23.4580 C.3       9 GLL5        0.0000 
     72 CA         41.7650  -14.8110   25.3470 C.3       6 GLP5        0.0000 
     73 CA         36.8847  -12.9498   23.2452 C.3       3 GLC5        0.0000 
     74 CA         40.1746  -13.5594   24.8950 C.3       3 GLC5        0.0000 
     75 CA         36.8731  -12.1949   24.0700 C.3       3 GLC5        0.0000 
     76 CA         39.0234  -13.6065   28.9453 C.3       3 GLC5        0.0000 
     77 CA         37.1826  -16.4900   30.5890 C.3       3 GLC5        0.0000 
     78 CA         38.2330  -16.7090   32.0700 C.3       6 GLP5        0.0000 
@<TRIPOS>BOND
@<TRIPOS>SUBSTRUCTURE
     1 ALC1       42 GROUP        1 X    ALC  0     ROOT ALC X 1
     2 SEC2       39 GROUP        1 X    SEC  0     **** SEC X 2
     3 GLC5        1 GROUP        1 X    GLC  0     **** GLC X 6
     4 ALP1       44 GROUP        1 Y    ALP  0     ROOT ALP Y 8
     5 SEP2       41 GROUP        1 Y    SEP  0     **** SEP Y 9
     6 GLP5        3 GROUP        1 Y    GLP  0     **** GLP Y 13
     7 ALL1       43 GROUP        1 Z    ALL  0     ROOT ALL Z 15
     8 SEL2       40 GROUP        1 Z    SEL  0     **** SEL Z 16
     9 GLL5        2 GROUP        1 Z    GLL  0     **** GLL Z 20
@<TRIPOS>SET

