#    Name: 4hgl_0YO_1_ligand
#    Modification time : Tue Mar 25 01:01:26 2014

@<TRIPOS>MOLECULE
4hgl_0YO_1_ligand
   45    49     1     0     0
SMALL
NO_CHARGES


@<TRIPOS>ATOM
      1 C1         36.7820  -15.1190   28.3330 C.ar      1 0YO401      0.0000 
      2 C2         37.1110  -13.0370   29.2410 C.ar      1 0YO401      0.0000 
      3 C3         37.5800  -12.5030   27.9730 C.ar      1 0YO401      0.0000 
      4 C7         36.4720  -17.4800   27.5100 C.ar      1 0YO401      0.0000 
      5 C8         35.9350  -18.7630   27.7280 C.ar      1 0YO401      0.0000 
      6 C9         35.1930  -19.0000   29.0830 C.ar      1 0YO401      0.0000 
      7 C10        34.6450  -20.2200   29.3340 C.ar      1 0YO401      0.0000 
      8 C11        34.7490  -21.3670   28.3460 C.ar      1 0YO401      0.0000 
      9 C12        35.4860  -21.1510   27.0590 C.ar      1 0YO401      0.0000 
     10 C13        36.0810  -19.7990   26.7530 C.ar      1 0YO401      0.0000 
     11 C14        38.1000  -13.0730   25.4250 C.2       1 0YO401      0.0000 
     12 C15        38.5610  -11.8900   24.9850 C.2       1 0YO401      0.0000 
     13 C16        38.5160  -13.4630   23.4580 C.2       1 0YO401      0.0000 
     14 C19        39.2930  -13.2200   21.0360 C.3       1 0YO401      0.0000 
     15 C20        38.6990  -14.1720   22.1290 C.3       1 0YO401      0.0000 
     16 C21        37.6200  -10.3410   28.8580 C.3       1 0YO401      0.0000 
     17 C17        38.8380  -12.1340   23.6810 C.2       1 0YO401      0.0000 
     18 C18        39.3220  -11.3200   22.6690 C.2       1 0YO401      0.0000 
     19 O1         39.5790  -10.1260   22.8500 O.2       1 0YO401      0.0000 
     20 N5         39.4900  -11.8730   21.4920 N.am      1 0YO401      0.0000 
     21 N4         38.0440  -14.0790   24.5320 N.pl3     1 0YO401      0.0000 
     22 C4         37.6240  -13.4180   26.8400 C.ar      1 0YO401      0.0000 
     23 N2         37.1990  -14.7820   27.0450 N.ar      1 0YO401      0.0000 
     24 N1         36.7320  -14.2280   29.4580 N.ar      1 0YO401      0.0000 
     25 C5         36.3550  -16.4610   28.5310 C.ar      1 0YO401      0.0000 
     26 N3         35.1390  -17.9680   30.0350 N.ar      1 0YO401      0.0000 
     27 C6         35.6960  -16.7520   29.7840 C.ar      1 0YO401      0.0000 
     28 O2         37.9540  -11.2280   27.9380 O.3       1 0YO401      0.0000 
     29 H          37.1118  -12.2928   30.0294 H         1 0YO401      0.0000 
     30 H          36.9460  -17.2517   26.6398 H         1 0YO401      0.0000 
     31 H          34.1323  -20.4372   30.1993 H         1 0YO401      0.0000 
     32 H          34.3375  -22.2330   28.5541 H         1 0YO401      0.0000 
     33 H          35.5843  -21.8903   26.4091 H         1 0YO401      0.0000 
     34 H          36.5514  -19.6689   25.8934 H         1 0YO401      0.0000 
     35 H          38.6672  -11.0921   25.4557 H         1 0YO401      0.0000 
     36 H          38.6024  -13.2632   20.1706 H         1 0YO401      0.0000 
     37 H          40.2418  -13.6813   20.6974 H         1 0YO401      0.0000 
     38 H          37.7391  -14.5432   21.7687 H         1 0YO401      0.0000 
     39 H          39.3783  -15.0168   22.2470 H         1 0YO401      0.0000 
     40 H          39.8505  -11.2108   20.6675 H         1 0YO401      0.0000 
     41 H          37.7565  -14.9452   24.6491 H         1 0YO401      0.0000 
     42 H          35.6658  -15.9901   30.4872 H         1 0YO401      0.0000 
     43 H          37.9568  -10.6001   29.7633 H         1 0YO401      0.0000 
     44 H          37.9935   -9.4360   28.6543 H         1 0YO401      0.0000 
     45 H          36.6280  -10.2387   28.9325 H         1 0YO401      0.0000 
@<TRIPOS>BOND
     1   23    1 ar   
     2   24    1 ar   
     3   25    1 1    
     4    3    2 ar   
     5   24    2 ar   
     6   29    2 1    
     7   22    3 ar   
     8   28    3 1    
     9    5    4 ar   
    10   25    4 ar   
    11   30    4 1    
    12    6    5 ar   
    13   10    5 ar   
    14    7    6 ar   
    15   26    6 ar   
    16    8    7 ar   
    17   31    7 1    
    18    9    8 ar   
    19   32    8 1    
    20   10    9 ar   
    21   33    9 1    
    22   34   10 1    
    23   12   11 2    
    24   21   11 1    
    25   22   11 1    
    26   17   12 1    
    27   35   12 1    
    28   15   13 1    
    29   17   13 2    
    30   21   13 1    
    31   15   14 1    
    32   20   14 1    
    33   36   14 1    
    34   37   14 1    
    35   38   15 1    
    36   39   15 1    
    37   28   16 1    
    38   43   16 1    
    39   44   16 1    
    40   45   16 1    
    41   18   17 1    
    42   19   18 2    
    43   20   18 am   
    44   40   20 1    
    45   41   21 1    
    46   23   22 ar   
    47   27   25 ar   
    48   27   26 ar   
    49   42   27 1    
@<TRIPOS>SUBSTRUCTURE
     1 0YO401      1 GROUP   
@<TRIPOS>SET

