#    Name: 3ute_FAD_1_INTS_M
#    Modification time : Mon Mar 24 23:25:12 2014

@<TRIPOS>MOLECULE
3ute_FAD_1_INTS_M
  104     0     9     0     0
SMALL
NO_CHARGES


@<TRIPOS>ATOM
      1 N          74.3770   81.3185  150.2925 N.am      2 SEC2        0.0000 
      2 N          72.9750   81.3620  150.3070 N.am      8 SEL2        0.0000 
      3 N          75.7790   81.2750  150.2780 N.am      5 SEP2        0.0000 
      4 CA         72.1915   83.7895  144.5390 C.3       3 GLC5        0.0000 
      5 CA         73.0530   84.0360  146.2300 C.3       9 GLL5        0.0000 
      6 CA         71.3300   83.5430  142.8480 C.3       6 GLP5        0.0000 
      7 O          74.9935   83.0890  144.5605 O.2       1 ALC1        0.0000 
      8 O          75.2770   83.2150  145.8320 O.2       7 ALL1        0.0000 
      9 O          74.7100   82.9630  143.2890 O.2       4 ALP1        0.0000 
     10 O          76.3905   84.7770  144.2015 O.2       1 ALC1        0.0000 
     11 O          76.1520   85.6380  145.5000 O.2       7 ALL1        0.0000 
     12 O          76.6290   83.9160  142.9030 O.2       4 ALP1        0.0000 
     13 CA         72.5830   84.6210  143.8875 C.3       3 GLC5        0.0000 
     14 CA         73.8360   85.6990  144.9270 C.3       9 GLL5        0.0000 
     15 CA         71.7715   89.0735  144.6255 C.3       3 GLC5        0.0000 
     16 CA         73.6460   89.0720  143.5330 C.3       9 GLL5        0.0000 
     17 CA         69.8970   89.0750  145.7180 C.3       6 GLP5        0.0000 
     18 CA         72.7580   90.6080  140.6645 C.3       3 GLC5        0.0000 
     19 CA         73.6970   89.9010  142.4210 C.3       9 GLL5        0.0000 
     20 CA         71.8190   91.3150  138.9080 C.3       6 GLP5        0.0000 
     21 O          73.6460   92.2825  141.4365 O.2       1 ALC1        0.0000 
     22 O          73.5480   91.3220  142.5930 O.2       7 ALL1        0.0000 
     23 O          73.7440   93.2430  140.2800 O.2       4 ALP1        0.0000 
     24 N          74.0760   90.1685  139.9460 N.am      2 SEC2        0.0000 
     25 N          73.8930   89.3850  141.1920 N.am      8 SEL2        0.0000 
     26 N          74.2590   90.9520  138.7000 N.am      5 SEP2        0.0000 
     27 CA         72.0250   87.7775  141.1100 C.3       3 GLC5        0.0000 
     28 CA         74.0330   88.0460  141.0100 C.3       9 GLL5        0.0000 
     29 CA         70.0170   87.5090  141.2100 C.3       6 GLP5        0.0000 
     30 CA         74.6130   86.2705  140.6230 C.3       3 GLC5        0.0000 
     31 CA         75.1930   84.4950  140.2360 C.3       6 GLP5        0.0000 
     32 CA         76.0675   88.0935  141.2925 C.3       3 GLC5        0.0000 
     33 CA         78.1020   88.1410  141.5750 C.3       6 GLP5        0.0000 
     34 CA         75.2670   89.0485  139.7785 C.3       3 GLC5        0.0000 
     35 CA         76.5010   90.0510  138.5470 C.3       6 GLP5        0.0000 
     36 CA         72.7485   89.0475  139.5845 C.3       3 GLC5        0.0000 
     37 CA         71.4640   90.0490  138.1590 C.3       6 GLP5        0.0000 
     38 N          75.4475   86.6430  141.5145 N.am      2 SEC2        0.0000 
     39 N          73.9830   87.2050  142.0800 N.am      8 SEL2        0.0000 
     40 N          76.9120   86.0810  140.9490 N.am      5 SEP2        0.0000 
     41 CA         71.9085   87.5935  142.2715 C.3       3 GLC5        0.0000 
     42 CA         73.8000   87.6780  143.3330 C.3       9 GLL5        0.0000 
     43 N          70.0420   74.7955  155.7865 N.am      2 SEC2        0.0000 
     44 N          71.0480   74.4660  156.7610 N.am      8 SEL2        0.0000 
     45 N          69.0360   75.1250  154.8120 N.am      5 SEP2        0.0000 
     46 N          72.1395   73.7495  155.9020 N.am      2 SEC2        0.0000 
     47 N          73.2310   73.0330  155.0430 N.am      5 SEP2        0.0000 
     48 O          72.7105   74.1045  159.1125 O.2       1 ALC1        0.0000 
     49 O          72.5860   75.2350  158.4090 O.2       7 ALL1        0.0000 
     50 O          72.8350   72.9740  159.8160 O.2       4 ALP1        0.0000 
     51 N          74.1355   75.2180  161.1070 N.am      2 SEC2        0.0000 
     52 N          74.1030   76.0380  160.0630 N.am      8 SEL2        0.0000 
     53 N          74.1680   74.3980  162.1510 N.am      5 SEP2        0.0000 
     54 CA         76.3355   84.2110  160.0520 C.3       3 GLC5        0.0000 
     55 CA         75.9240   83.2760  158.4630 C.3       9 GLL5        0.0000 
     56 CA         76.7470   85.1460  161.6410 C.3       6 GLP5        0.0000 
     57 CA         77.0515   84.7405  157.8785 C.3       3 GLC5        0.0000 
     58 CA         78.1790   86.2050  157.2940 C.3       6 GLP5        0.0000 
     59 CA         74.8210   84.8645  158.8020 C.3       3 GLC5        0.0000 
     60 CA         73.7180   86.4530  159.1410 C.3       6 GLP5        0.0000 
     61 CA         74.0445   85.0405  157.6225 C.3       3 GLC5        0.0000 
     62 CA         74.3710   83.6280  156.1040 C.3       9 GLL5        0.0000 
     63 CA         74.5620   81.7540  154.4350 C.3       3 GLC5        0.0000 
     64 CA         73.5510   81.2600  156.3310 C.3       9 GLL5        0.0000 
     65 CA         75.5730   82.2480  152.5390 C.3       6 GLP5        0.0000 
     66 CA         71.0975   81.1130  155.5005 C.3       3 GLC5        0.0000 
     67 CA         71.9180   79.3270  155.3250 C.3       9 GLL5        0.0000 
     68 CA         70.2770   82.8990  155.6760 C.3       6 GLP5        0.0000 
     69 CA         73.5160   77.4520  152.8385 C.3       3 GLC5        0.0000 
     70 CA         71.9990   78.3240  154.2260 C.3       9 GLL5        0.0000 
     71 CA         75.0330   76.5800  151.4510 C.3       6 GLP5        0.0000 
     72 CA         71.8895   76.3265  153.9275 C.3       3 GLC5        0.0000 
     73 CA         71.7800   74.3290  153.6290 C.3       6 GLP5        0.0000 
     74 CA         71.2385   77.7805  151.5585 C.3       3 GLC5        0.0000 
     75 CA         70.9370   78.9550  153.3100 C.3       9 GLL5        0.0000 
     76 CA         71.5400   76.6060  149.8070 C.3       6 GLP5        0.0000 
     77 CA         71.7645   78.8325  150.6470 C.3       3 GLC5        0.0000 
     78 CA         71.5310   79.8600  152.2840 C.3       9 GLL5        0.0000 
     79 CA         71.9980   77.8050  149.0100 C.3       6 GLP5        0.0000 
     80 CA         69.4145   81.9040  153.0595 C.3       3 GLC5        0.0000 
     81 CA         70.4790   80.9140  152.0070 C.3       9 GLL5        0.0000 
     82 CA         68.3500   82.8940  154.1120 C.3       6 GLP5        0.0000 
     83 N          69.2600   79.4065  147.8205 N.am      2 SEC2        0.0000 
     84 N          70.0440   80.5820  148.1940 N.am      8 SEL2        0.0000 
     85 N          68.4760   78.2310  147.4470 N.am      5 SEP2        0.0000 
     86 N          67.6490   80.9765  149.4340 N.am      2 SEC2        0.0000 
     87 N          68.4960   82.0730  149.8780 N.am      8 SEL2        0.0000 
     88 N          66.8020   79.8800  148.9900 N.am      5 SEP2        0.0000 
     89 N          67.5375   82.4535  151.1390 N.am      2 SEC2        0.0000 
     90 N          66.5790   82.8340  152.4000 N.am      5 SEP2        0.0000 
     91 CA         74.8240   82.5573  147.1182 C.3       3 GLC5        0.0000 
     92 CA         75.8590   81.0130  147.8800 C.3       6 GLP5        0.0000 
     93 CA         75.7975   79.6303  157.3790 C.3       3 GLC5        0.0000 
     94 CA         74.2510   79.8550  158.1750 C.3       9 GLL5        0.0000 
     95 CA         76.9480   78.8750  156.3430 C.3       6 GLP5        0.0000 
     96 CA         75.8660   78.9788  159.5145 C.3       3 GLC5        0.0000 
     97 CA         77.0850   77.5720  160.6140 C.3       6 GLP5        0.0000 
     98 CA         75.8277   80.5500  156.8673 C.3       3 GLC5        0.0000 
     99 CA         75.0800   82.1360  157.9650 C.3       9 GLL5        0.0000 
    100 CA         74.7665   83.8135  154.8245 C.3       3 GLC5        0.0000 
    101 CA         74.3350   82.3140  156.8180 C.3       9 GLL5        0.0000 
    102 CA         75.1800   84.6560  153.1880 C.3       6 GLP5        0.0000 
    103 CA         75.2415   79.7657  156.5095 C.3       3 GLC5        0.0000 
    104 CA         72.1145   82.5072  156.0360 C.3       3 GLC5        0.0000 
@<TRIPOS>BOND
@<TRIPOS>SUBSTRUCTURE
     1 ALC1        7 GROUP        1 X    ALC  0     ROOT ALC X 1
     2 SEC2        1 GROUP        1 X    SEC  0     **** SEC X 2
     3 GLC5        4 GROUP        1 X    GLC  0     **** GLC X 6
     4 ALP1        9 GROUP        1 Y    ALP  0     ROOT ALP Y 8
     5 SEP2        3 GROUP        1 Y    SEP  0     **** SEP Y 9
     6 GLP5        6 GROUP        1 Y    GLP  0     **** GLP Y 13
     7 ALL1        8 GROUP        1 Z    ALL  0     ROOT ALL Z 15
     8 SEL2        2 GROUP        1 Z    SEL  0     **** SEL Z 16
     9 GLL5        5 GROUP        1 Z    GLL  0     **** GLL Z 20
@<TRIPOS>SET

