#    Name: 3ute_FAD_1_ligand
#    Modification time : Mon Mar 24 23:25:12 2014

@<TRIPOS>MOLECULE
3ute_FAD_1_ligand
   84    89     1     0     0
SMALL
NO_CHARGES


@<TRIPOS>ATOM
      1 PA         72.2660   82.5700  149.6590 P.3       1 FAD2001     0.0000 
      2 O1A        72.9750   81.3620  150.3070 O.co2     1 FAD2001     0.0000 
      3 O2A        72.6320   83.9020  150.0920 O.co2     1 FAD2001     0.0000 
      4 O5B        72.4190   82.7690  148.1970 O.3       1 FAD2001     0.0000 
      5 C5B        72.2980   84.0240  147.5630 C.3       1 FAD2001     0.0000 
      6 C4B        73.0530   84.0360  146.2300 C.3       1 FAD2001     0.0000 
      7 O4B        72.6720   85.1240  145.4330 O.3       1 FAD2001     0.0000 
      8 C3B        74.5250   84.1670  146.4830 C.3       1 FAD2001     0.0000 
      9 O3B        75.2770   83.2150  145.8320 O.3       1 FAD2001     0.0000 
     10 C2B        74.8690   85.5230  145.9850 C.3       1 FAD2001     0.0000 
     11 O2B        76.1520   85.6380  145.5000 O.3       1 FAD2001     0.0000 
     12 C1B        73.8360   85.6990  144.9270 C.3       1 FAD2001     0.0000 
     13 N9A        73.6970   87.0930  144.6260 N.pl3     1 FAD2001     0.0000 
     14 C8A        73.5140   88.1100  145.5400 C.2       1 FAD2001     0.0000 
     15 N7A        73.4740   89.2820  144.8960 N.2       1 FAD2001     0.0000 
     16 C5A        73.6460   89.0720  143.5330 C.ar      1 FAD2001     0.0000 
     17 C6A        73.6970   89.9010  142.4210 C.ar      1 FAD2001     0.0000 
     18 N6A        73.5480   91.3220  142.5930 N.pl3     1 FAD2001     0.0000 
     19 N1A        73.8930   89.3850  141.1920 N.ar      1 FAD2001     0.0000 
     20 C2A        74.0330   88.0460  141.0100 C.ar      1 FAD2001     0.0000 
     21 N3A        73.9830   87.2050  142.0800 N.ar      1 FAD2001     0.0000 
     22 C4A        73.8000   87.6780  143.3330 C.ar      1 FAD2001     0.0000 
     23 N1         71.8460   76.7410  156.6580 N.2       1 FAD2001     0.0000 
     24 C2         71.8240   75.4570  157.2840 C.2       1 FAD2001     0.0000 
     25 O2         71.0480   74.4660  156.7610 O.2       1 FAD2001     0.0000 
     26 N3         72.5860   75.2350  158.4090 N.am      1 FAD2001     0.0000 
     27 C4         73.3440   76.2530  158.9550 C.2       1 FAD2001     0.0000 
     28 O4         74.1030   76.0380  160.0630 O.2       1 FAD2001     0.0000 
     29 C4X        73.4110   77.5940  158.3230 C.2       1 FAD2001     0.0000 
     30 N5         74.1970   78.6210  158.8260 N.2       1 FAD2001     0.0000 
     31 C5X        74.2510   79.8550  158.1750 C.ar      1 FAD2001     0.0000 
     32 C6         75.0430   80.9160  158.6550 C.ar      1 FAD2001     0.0000 
     33 C7         75.0800   82.1360  157.9650 C.ar      1 FAD2001     0.0000 
     34 C7M        75.9240   83.2760  158.4630 C.3       1 FAD2001     0.0000 
     35 C8         74.3350   82.3140  156.8180 C.ar      1 FAD2001     0.0000 
     36 C8M        74.3710   83.6280  156.1040 C.3       1 FAD2001     0.0000 
     37 C9         73.5510   81.2600  156.3310 C.ar      1 FAD2001     0.0000 
     38 C9A        73.5190   80.0530  157.0210 C.ar      1 FAD2001     0.0000 
     39 N10        72.7040   79.0120  156.5100 N.pl3     1 FAD2001     0.0000 
     40 C10        72.6360   77.7710  157.1390 C.2       1 FAD2001     0.0000 
     41 C1'        71.9180   79.3270  155.3250 C.3       1 FAD2001     0.0000 
     42 C2'        71.9990   78.3240  154.2260 C.3       1 FAD2001     0.0000 
     43 O2'        73.3040   78.3510  153.7790 O.3       1 FAD2001     0.0000 
     44 C3'        70.9370   78.9550  153.3100 C.3       1 FAD2001     0.0000 
     45 O3'        70.0340   78.1180  152.7040 O.3       1 FAD2001     0.0000 
     46 C4'        71.5310   79.8600  152.2840 C.3       1 FAD2001     0.0000 
     47 O4'        72.6660   80.4260  152.7980 O.3       1 FAD2001     0.0000 
     48 C5'        70.4790   80.9140  152.0070 C.3       1 FAD2001     0.0000 
     49 O5'        69.8060   80.4380  150.8860 O.3       1 FAD2001     0.0000 
     50 P          69.8570   81.3230  149.5680 P.3       1 FAD2001     0.0000 
     51 O1P        70.0440   80.5820  148.1940 O.co2     1 FAD2001     0.0000 
     52 O2P        68.4960   82.0730  149.8780 O.co2     1 FAD2001     0.0000 
     53 O3P        70.7920   82.6220  149.8820 O.3       1 FAD2001     0.0000 
     54 H          72.7081   84.8413  148.1787 H         1 FAD2001     0.0000 
     55 H          71.2478   84.2801  147.3466 H         1 FAD2001     0.0000 
     56 H          72.8791   83.0946  145.7343 H         1 FAD2001     0.0000 
     57 H          74.6738   84.1707  147.5569 H         1 FAD2001     0.0000 
     58 H          74.6275   86.2251  146.7759 H         1 FAD2001     0.0000 
     59 H          74.1870   85.1542  144.0515 H         1 FAD2001     0.0000 
     60 H          73.4302   87.9724  146.4946 H         1 FAD2001     0.0000 
     61 H          73.6285   91.8763  141.7646 H         1 FAD2001     0.0000 
     62 H          73.3764   91.6366  143.5266 H         1 FAD2001     0.0000 
     63 H          74.1781   87.6625  140.0562 H         1 FAD2001     0.0000 
     64 H          72.5925   74.2985  158.8510 H         1 FAD2001     0.0000 
     65 H          75.5927   80.7933  159.5110 H         1 FAD2001     0.0000 
     66 H          73.0071   81.3821  155.4727 H         1 FAD2001     0.0000 
     67 H          72.2269   80.3236  154.9190 H         1 FAD2001     0.0000 
     68 H          70.8425   79.4578  155.6072 H         1 FAD2001     0.0000 
     69 H          71.6328   77.4207  154.5936 H         1 FAD2001     0.0000 
     70 H          70.3534   79.6735  154.0016 H         1 FAD2001     0.0000 
     71 H          71.6878   79.3004  151.3890 H         1 FAD2001     0.0000 
     72 H          70.9853   81.8518  151.8299 H         1 FAD2001     0.0000 
     73 H          69.8463   80.9907  152.8793 H         1 FAD2001     0.0000 
     74 H          76.8921   83.0295  158.5075 H         1 FAD2001     0.0000 
     75 H          75.8527   84.0778  157.8696 H         1 FAD2001     0.0000 
     76 H          75.6527   83.5656  159.3809 H         1 FAD2001     0.0000 
     77 H          75.2949   83.8602  155.7999 H         1 FAD2001     0.0000 
     78 H          73.7871   83.6257  155.2922 H         1 FAD2001     0.0000 
     79 H          74.0578   84.3768  156.6881 H         1 FAD2001     0.0000 
     80 H          74.6947   82.8907  145.0865 H         1 FAD2001     0.0000 
     81 H          76.1791   85.0433  144.6965 H         1 FAD2001     0.0000 
     82 H          73.3760   79.1912  153.2416 H         1 FAD2001     0.0000 
     83 H          69.6605   78.6480  151.9427 H         1 FAD2001     0.0000 
     84 H          73.0613   80.9462  152.0410 H         1 FAD2001     0.0000 
@<TRIPOS>BOND
     1    2    1 ar   
     2    3    1 ar   
     3    4    1 1    
     4   53    1 1    
     5    5    4 1    
     6    6    5 1    
     7   54    5 1    
     8   55    5 1    
     9    7    6 1    
    10    8    6 1    
    11   56    6 1    
    12   12    7 1    
    13    9    8 1    
    14   10    8 1    
    15   57    8 1    
    16   80    9 1    
    17   11   10 1    
    18   12   10 1    
    19   58   10 1    
    20   81   11 1    
    21   13   12 1    
    22   59   12 1    
    23   14   13 1    
    24   22   13 1    
    25   15   14 2    
    26   60   14 1    
    27   16   15 1    
    28   17   16 ar   
    29   22   16 ar   
    30   18   17 1    
    31   19   17 ar   
    32   61   18 1    
    33   62   18 1    
    34   20   19 ar   
    35   21   20 ar   
    36   63   20 1    
    37   22   21 ar   
    38   24   23 1    
    39   40   23 2    
    40   25   24 2    
    41   26   24 am   
    42   27   26 am   
    43   64   26 1    
    44   28   27 2    
    45   29   27 1    
    46   30   29 2    
    47   40   29 1    
    48   31   30 1    
    49   32   31 ar   
    50   38   31 ar   
    51   33   32 ar   
    52   65   32 1    
    53   34   33 1    
    54   35   33 ar   
    55   74   34 1    
    56   75   34 1    
    57   76   34 1    
    58   36   35 1    
    59   37   35 ar   
    60   77   36 1    
    61   78   36 1    
    62   79   36 1    
    63   38   37 ar   
    64   66   37 1    
    65   39   38 1    
    66   40   39 1    
    67   41   39 1    
    68   42   41 1    
    69   67   41 1    
    70   68   41 1    
    71   43   42 1    
    72   44   42 1    
    73   69   42 1    
    74   82   43 1    
    75   45   44 1    
    76   46   44 1    
    77   70   44 1    
    78   83   45 1    
    79   47   46 1    
    80   48   46 1    
    81   71   46 1    
    82   84   47 1    
    83   49   48 1    
    84   72   48 1    
    85   73   48 1    
    86   50   49 1    
    87   51   50 ar   
    88   52   50 ar   
    89   53   50 1    
@<TRIPOS>SUBSTRUCTURE
     1 FAD2001     1 GROUP   
@<TRIPOS>SET

