#    Name: 3b89_5GP_1_INTS_M
#    Modification time : Mon Mar 24 19:07:51 2014

@<TRIPOS>MOLECULE
3b89_5GP_1_INTS_M
   28     0     9     0     0
SMALL
NO_CHARGES


@<TRIPOS>ATOM
      1 N           8.4685   19.6845   29.9890 N.am      2 SEC2        0.0000 
      2 N           9.6490   19.5690   29.3410 N.am      8 SEL2        0.0000 
      3 N           7.2880   19.8000   30.6370 N.am      5 SEP2        0.0000 
      4 CA         10.3950   21.2670   24.4090 C.3       3 GLC5        0.0000 
      5 CA         10.6330   21.8110   26.2690 C.3       9 GLL5        0.0000 
      6 CA         10.1570   20.7230   22.5490 C.3       6 GLP5        0.0000 
      7 CA         13.3580   22.1320   27.5050 C.3       3 GLC5        0.0000 
      8 CA         11.5930   22.7790   26.9290 C.3       9 GLL5        0.0000 
      9 CA         15.1230   21.4850   28.0810 C.3       6 GLP5        0.0000 
     10 N          12.5425   24.8800   29.3235 N.am      2 SEC2        0.0000 
     11 N          11.2400   24.6420   28.4670 N.am      8 SEL2        0.0000 
     12 N          13.8450   25.1180   30.1800 N.am      5 SEP2        0.0000 
     13 O          13.3540   26.1660   27.1905 O.2       1 ALC1        0.0000 
     14 O          12.1590   26.3790   26.1110 O.2       7 ALL1        0.0000 
     15 O          14.5490   25.9530   28.2700 O.2       4 ALP1        0.0000 
     16 CA         14.2145   22.8775   27.0680 C.3       3 GLC5        0.0000 
     17 CA         13.3060   24.2700   26.0550 C.3       9 GLL5        0.0000 
     18 O          19.4175   25.1490   26.6805 O.2       1 ALC1        0.0000 
     19 O          18.6060   24.0670   26.6890 O.2       7 ALL1        0.0000 
     20 O          20.2290   26.2310   26.6720 O.2       4 ALP1        0.0000 
     21 CA         15.3095   22.7940   26.4520 C.3       3 GLC5        0.0000 
     22 CA         15.4960   24.1030   24.8230 C.3       9 GLL5        0.0000 
     23 CA         13.7150   26.3567   25.6025 C.3       3 GLC5        0.0000 
     24 CA         14.7910   28.0770   25.1580 C.3       6 GLP5        0.0000 
     25 CA         16.4813   25.8463   24.5057 C.3       3 GLC5        0.0000 
     26 CA         17.2320   27.6360   24.8490 C.3       6 GLP5        0.0000 
     27 CA         15.0853   22.0113   24.3897 C.3       3 GLC5        0.0000 
     28 CA         14.4400   19.9660   24.6170 C.3       6 GLP5        0.0000 
@<TRIPOS>BOND
@<TRIPOS>SUBSTRUCTURE
     1 ALC1       13 GROUP        1 X    ALC  0     ROOT ALC X 1
     2 SEC2        1 GROUP        1 X    SEC  0     **** SEC X 2
     3 GLC5        4 GROUP        1 X    GLC  0     **** GLC X 6
     4 ALP1       15 GROUP        1 Y    ALP  0     ROOT ALP Y 8
     5 SEP2        3 GROUP        1 Y    SEP  0     **** SEP Y 9
     6 GLP5        6 GROUP        1 Y    GLP  0     **** GLP Y 13
     7 ALL1       14 GROUP        1 Z    ALL  0     ROOT ALL Z 15
     8 SEL2        2 GROUP        1 Z    SEL  0     **** SEL Z 16
     9 GLL5        5 GROUP        1 Z    GLL  0     **** GLL Z 20
@<TRIPOS>SET

