#    Name: 3b89_5GP_1_ligand
#    Modification time : Mon Mar 24 19:07:51 2014

@<TRIPOS>MOLECULE
3b89_5GP_1_ligand
   36    38     1     0     0
SMALL
NO_CHARGES


@<TRIPOS>ATOM
      1 P           9.3400   20.8370   28.4560 P.3       1 5GP500      0.0000 
      2 O1P         9.6490   19.5690   29.3410 O.co2     1 5GP500      0.0000 
      3 O2P         7.9690   20.5220   27.6370 O.co2     1 5GP500      0.0000 
      4 O3P         9.2320   22.1960   29.1270 O.co2     1 5GP500      0.0000 
      5 O5'        10.5070   20.8320   27.2960 O.3       1 5GP500      0.0000 
      6 C5'        10.6330   21.8110   26.2690 C.3       1 5GP500      0.0000 
      7 C4'        11.5930   22.7790   26.9290 C.3       1 5GP500      0.0000 
      8 O4'        12.9180   22.8810   26.3130 O.3       1 5GP500      0.0000 
      9 C3'        11.1010   24.2670   27.0460 C.3       1 5GP500      0.0000 
     10 O3'        11.2400   24.6420   28.4670 O.3       1 5GP500      0.0000 
     11 C2'        11.9720   25.0030   26.0390 C.3       1 5GP500      0.0000 
     12 O2'        12.1590   26.3790   26.1110 O.3       1 5GP500      0.0000 
     13 C1'        13.3060   24.2700   26.0550 C.3       1 5GP500      0.0000 
     14 N9         14.1510   24.1670   24.7820 N.pl3     1 5GP500      0.0000 
     15 C8         13.7720   24.1100   23.4890 C.2       1 5GP500      0.0000 
     16 N7         14.8770   24.0130   22.6930 N.2       1 5GP500      0.0000 
     17 C5         15.9650   24.0100   23.5020 C.2       1 5GP500      0.0000 
     18 C6         17.3620   23.9290   23.2680 C.2       1 5GP500      0.0000 
     19 O6         17.7900   23.8410   22.0890 O.2       1 5GP500      0.0000 
     20 N1         18.2240   23.9490   24.3350 N.am      1 5GP500      0.0000 
     21 C2         17.7570   24.0460   25.6280 C.2       1 5GP500      0.0000 
     22 N2         18.6060   24.0670   26.6890 N.pl3     1 5GP500      0.0000 
     23 N3         16.4040   24.1240   25.8700 N.2       1 5GP500      0.0000 
     24 C4         15.4960   24.1030   24.8230 C.2       1 5GP500      0.0000 
     25 H           9.7192   22.3159   26.0749 H         1 5GP500      0.0000 
     26 H          11.0890   21.4231   25.3919 H         1 5GP500      0.0000 
     27 H          11.7511   22.4592   27.9921 H         1 5GP500      0.0000 
     28 H          10.0894   24.2617   26.7201 H         1 5GP500      0.0000 
     29 H          11.5445   24.7151   25.0189 H         1 5GP500      0.0000 
     30 H          13.9047   24.5968   26.8725 H         1 5GP500      0.0000 
     31 H          12.8581   24.1336   23.1649 H         1 5GP500      0.0000 
     32 H          19.2505   23.8899   24.1678 H         1 5GP500      0.0000 
     33 H          19.2736   24.8114   26.7037 H         1 5GP500      0.0000 
     34 H          18.4882   23.3362   27.3613 H         1 5GP500      0.0000 
     35 H          10.8081   23.8966   28.9747 H         1 5GP500      0.0000 
     36 H          12.8804   26.5068   26.7916 H         1 5GP500      0.0000 
@<TRIPOS>BOND
     1    2    1 ar   
     2    3    1 ar   
     3    4    1 ar   
     4    5    1 1    
     5    6    5 1    
     6    7    6 1    
     7   25    6 1    
     8   26    6 1    
     9    8    7 1    
    10    9    7 1    
    11   27    7 1    
    12   13    8 1    
    13   10    9 1    
    14   11    9 1    
    15   28    9 1    
    16   35   10 1    
    17   12   11 1    
    18   13   11 1    
    19   29   11 1    
    20   36   12 1    
    21   14   13 1    
    22   30   13 1    
    23   15   14 1    
    24   24   14 1    
    25   16   15 2    
    26   31   15 1    
    27   17   16 1    
    28   18   17 1    
    29   24   17 2    
    30   19   18 2    
    31   20   18 am   
    32   21   20 1    
    33   32   20 1    
    34   22   21 1    
    35   23   21 2    
    36   33   22 1    
    37   34   22 1    
    38   24   23 1    
@<TRIPOS>SUBSTRUCTURE
     1 5GP500      1 GROUP   
@<TRIPOS>SET

