#    Name: 2ym4_4YM_1_INTS_M
#    Modification time : Tue Mar 25 09:29:20 2014

@<TRIPOS>MOLECULE
2ym4_4YM_1_INTS_M
   58     0     9     0     0
SMALL
NO_CHARGES


@<TRIPOS>ATOM
      1 CA         21.2120    2.5140    7.0445 C.3       3 GLC5        0.0000 
      2 CA         21.2950    0.4780    7.4970 C.3       9 GLL5        0.0000 
      3 CA         21.1290    4.5500    6.5920 C.3       6 GLP5        0.0000 
      4 CA         17.6145    2.7070    8.6140 C.3       3 GLC5        0.0000 
      5 CA         17.3620    0.4930    8.6890 C.3       9 GLL5        0.0000 
      6 CA         17.8670    4.9210    8.5390 C.3       6 GLP5        0.0000 
      7 CA         14.0170    0.4260    7.9885 C.3       3 GLC5        0.0000 
      8 CA         15.1710    0.8480    9.5140 C.3       9 GLL5        0.0000 
      9 CA         12.8630    0.0040    6.4630 C.3       6 GLP5        0.0000 
     10 O          13.6670    2.6880    9.0245 O.2       1 ALC1        0.0000 
     11 O          13.9550    1.4870    9.6610 O.2       7 ALL1        0.0000 
     12 O          13.3790    3.8890    8.3880 O.2       4 ALP1        0.0000 
     13 CA         10.1705   -1.3900   14.9930 C.3       3 GLC5        0.0000 
     14 CA         10.1480   -2.3260   13.2780 C.3       9 GLL5        0.0000 
     15 CA         10.1930   -0.4540   16.7080 C.3       6 GLP5        0.0000 
     16 CA         14.8805   -3.6580    9.0210 C.3       3 GLC5        0.0000 
     17 CA         16.3890   -3.4150   10.2160 C.3       9 GLL5        0.0000 
     18 CA         13.3720   -3.9010    7.8260 C.3       6 GLP5        0.0000 
     19 CA         14.8290   -4.9625    9.7605 C.3       3 GLC5        0.0000 
     20 CA         16.4190   -4.6710   11.0150 C.3       9 GLL5        0.0000 
     21 CA         13.2390   -5.2540    8.5060 C.3       6 GLP5        0.0000 
     22 OD1        18.5910   -2.8090   14.6275 O.co2     2 ASC3        0.0000 
     23 OD1        17.0230   -2.3840   14.4490 O.co2     8 ASL3        0.0000 
     24 OD1        20.1590   -3.2340   14.8060 O.co2     5 ASP3        0.0000 
     25 O          18.5910   -2.8090   14.6275 O.2       1 ALC1        0.0000 
     26 O          17.0230   -2.3840   14.4490 O.2       7 ALL1        0.0000 
     27 O          20.1590   -3.2340   14.8060 O.2       4 ALP1        0.0000 
     28 O          17.4555   -1.7415   15.8380 O.2       1 ALC1        0.0000 
     29 O          17.8880   -1.0990   17.2270 O.2       4 ALP1        0.0000 
     30 CA         17.9270   -0.5685   12.9945 C.3       3 GLC5        0.0000 
     31 CA         17.6910   -2.3430   11.8520 C.3       9 GLL5        0.0000 
     32 CA         18.1630    1.2060   14.1370 C.3       6 GLP5        0.0000 
     33 CA         19.6920    0.5955    6.3628 C.3       3 GLC5        0.0000 
     34 CA         20.6870   -0.7620    8.0660 C.3       9 GLL5        0.0000 
     35 CA         18.3930    1.3330    4.9440 C.3       6 GLP5        0.0000 
     36 CA         21.6190    0.8825    9.5102 C.3       3 GLC5        0.0000 
     37 CA         22.2470    1.9070   11.2390 C.3       6 GLP5        0.0000 
     38 CA         16.8867   -1.0095    7.4617 C.3       3 GLC5        0.0000 
     39 CA         16.3500   -1.9290    5.8540 C.3       6 GLP5        0.0000 
     40 CA         15.0057    0.0410   12.4585 C.3       3 GLC5        0.0000 
     41 CA         13.4460   -1.2410   11.8270 C.3       9 GLL5        0.0000 
     42 CA         16.1360    1.7690   12.7810 C.3       6 GLP5        0.0000 
     43 CA         11.6252   -2.1138   15.1887 C.3       3 GLC5        0.0000 
     44 CA         12.4620   -3.1460   13.5990 C.3       9 GLL5        0.0000 
     45 CA         11.2190   -1.5260   17.0860 C.3       6 GLP5        0.0000 
     46 CA         12.3365   -3.9282   11.4625 C.3       3 GLC5        0.0000 
     47 CA         11.6010   -2.2570   12.9840 C.3       9 GLL5        0.0000 
     48 CA         12.3030   -5.1700    9.7010 C.3       6 GLP5        0.0000 
     49 CA          9.4193   -3.2898   12.2690 C.3       3 GLC5        0.0000 
     50 CA          7.9640   -4.2880   11.4070 C.3       6 GLP5        0.0000 
     51 CA         10.1599   -0.9876   11.4097 C.3       3 GLC5        0.0000 
     52 CA          8.8380   -0.1780   10.2060 C.3       6 GLP5        0.0000 
     53 CA         16.8665   -4.0150    8.7517 C.3       3 GLC5        0.0000 
     54 CA         17.3290   -3.9870    6.8880 C.3       6 GLP5        0.0000 
     55 CA         16.9600   -5.7440   10.2487 C.3       3 GLC5        0.0000 
     56 CA         17.5160   -7.4450    9.8820 C.3       6 GLP5        0.0000 
     57 CA         16.0952    0.8079   11.2848 C.3       3 GLC5        0.0000 
     58 CA         16.4150   -1.0830   10.2750 C.3       9 GLL5        0.0000 
@<TRIPOS>BOND
@<TRIPOS>SUBSTRUCTURE
     1 ALC1       10 GROUP        1 X    ALC  0     ROOT ALC X 1
     2 ASC3       22 GROUP        1 X    ASC  0     **** ASC X 3
     3 GLC5        1 GROUP        1 X    GLC  0     **** GLC X 6
     4 ALP1       12 GROUP        1 Y    ALP  0     ROOT ALP Y 8
     5 ASP3       24 GROUP        1 Y    ASP  0     **** ASP Y 10
     6 GLP5        3 GROUP        1 Y    GLP  0     **** GLP Y 13
     7 ALL1       11 GROUP        1 Z    ALL  0     ROOT ALL Z 15
     8 ASL3       23 GROUP        1 Z    ASL  0     **** ASL Z 17
     9 GLL5        2 GROUP        1 Z    GLL  0     **** GLL Z 20
@<TRIPOS>SET

