#    Name: 2ym4_4YM_1_ligand
#    Modification time : Tue Mar 25 09:29:20 2014

@<TRIPOS>MOLECULE
2ym4_4YM_1_ligand
   54    57     1     0     0
SMALL
NO_CHARGES


@<TRIPOS>ATOM
      1 C01        21.2950    0.4780    7.4970 C.3       1 4YM1271     0.0000 
      2 C02        20.6870   -0.7620    8.0660 C.3       1 4YM1271     0.0000 
      3 O03        19.9370   -0.6480    9.2140 O.3       1 4YM1271     0.0000 
      4 C04        18.7820   -1.3940    9.3220 C.2       1 4YM1271     0.0000 
      5 O05        18.8350   -2.6090    9.2660 O.2       1 4YM1271     0.0000 
      6 C06        17.4850   -0.6730    9.4500 C.ar      1 4YM1271     0.0000 
      7 C07        17.3620    0.4930    8.6890 C.ar      1 4YM1271     0.0000 
      8 N08        16.2390    1.2250    8.7260 N.pl3     1 4YM1271     0.0000 
      9 C09        15.1710    0.8480    9.5140 C.ar      1 4YM1271     0.0000 
     10 N10        13.9550    1.4870    9.6610 N.pl3     1 4YM1271     0.0000 
     11 N11        13.2000    0.7680   10.5380 N.2       1 4YM1271     0.0000 
     12 C12        13.9180   -0.2960   10.9430 C.2       1 4YM1271     0.0000 
     13 C13        13.4460   -1.2410   11.8270 C.ar      1 4YM1271     0.0000 
     14 C14        14.3050   -2.1330   12.4450 C.ar      1 4YM1271     0.0000 
     15 C15        13.8160   -3.0860   13.3290 C.ar      1 4YM1271     0.0000 
     16 C16        12.4620   -3.1460   13.5990 C.ar      1 4YM1271     0.0000 
     17 C17        11.6010   -2.2570   12.9840 C.ar      1 4YM1271     0.0000 
     18 C18        10.1480   -2.3260   13.2780 C.1       1 4YM1271     0.0000 
     19 N19         9.0410   -2.3810   13.5050 N.1       1 4YM1271     0.0000 
     20 C20        12.0890   -1.3030   12.0960 C.ar      1 4YM1271     0.0000 
     21 C21        15.2080   -0.2880   10.2960 C.ar      1 4YM1271     0.0000 
     22 C22        16.4150   -1.0830   10.2750 C.ar      1 4YM1271     0.0000 
     23 N23        16.5280   -2.2990   11.0620 N.3       1 4YM1271     0.0000 
     24 C24        16.3890   -3.4150   10.2160 C.3       1 4YM1271     0.0000 
     25 C25        16.4190   -4.6710   11.0150 C.3       1 4YM1271     0.0000 
     26 O26        17.5970   -4.7630   11.7670 O.3       1 4YM1271     0.0000 
     27 C27        17.8520   -3.6440   12.5810 C.3       1 4YM1271     0.0000 
     28 C28        16.9660   -3.6660   13.7940 C.3       1 4YM1271     0.0000 
     29 N29        17.0230   -2.3840   14.4490 N.4       1 4YM1271     0.0000 
     30 C30        17.6910   -2.3430   11.8520 C.3       1 4YM1271     0.0000 
     31 H          21.5386   -1.5106    8.2020 H         1 4YM1271     0.0000 
     32 H          20.0840   -1.2456    7.2253 H         1 4YM1271     0.0000 
     33 H          18.1682    0.7763    8.0926 H         1 4YM1271     0.0000 
     34 H          16.1547    2.0969    8.1557 H         1 4YM1271     0.0000 
     35 H          13.6983    2.2941    9.2187 H         1 4YM1271     0.0000 
     36 H          15.3186   -2.0913   12.2485 H         1 4YM1271     0.0000 
     37 H          14.4642   -3.7459   13.7813 H         1 4YM1271     0.0000 
     38 H          12.0965   -3.8495   14.2551 H         1 4YM1271     0.0000 
     39 H          11.4405   -0.6467   11.6420 H         1 4YM1271     0.0000 
     40 H          17.1991   -3.4609    9.4670 H         1 4YM1271     0.0000 
     41 H          15.4387   -3.3837    9.6544 H         1 4YM1271     0.0000 
     42 H          16.3117   -5.5261   10.3166 H         1 4YM1271     0.0000 
     43 H          15.5182   -4.6892   11.6620 H         1 4YM1271     0.0000 
     44 H          18.8964   -3.6785   12.9567 H         1 4YM1271     0.0000 
     45 H          17.3060   -4.4654   14.4611 H         1 4YM1271     0.0000 
     46 H          15.9445   -3.9019   13.4769 H         1 4YM1271     0.0000 
     47 H          17.6995   -1.5260   12.6103 H         1 4YM1271     0.0000 
     48 H          18.6072   -2.1829   11.2375 H         1 4YM1271     0.0000 
     49 H          21.9180    0.9170    8.1444 H         1 4YM1271     0.0000 
     50 H          21.8205    0.2872    6.6679 H         1 4YM1271     0.0000 
     51 H          20.6000    1.1548    7.2542 H         1 4YM1271     0.0000 
     52 H          17.1954   -1.6429   13.8002 H         1 4YM1271     0.0000 
     53 H          16.1671   -2.1688   14.9192 H         1 4YM1271     0.0000 
     54 H          17.7506   -2.3490   15.1341 H         1 4YM1271     0.0000 
@<TRIPOS>BOND
     1    2    1 1    
     2   49    1 1    
     3   50    1 1    
     4   51    1 1    
     5    3    2 1    
     6   31    2 1    
     7   32    2 1    
     8    4    3 1    
     9    5    4 2    
    10    6    4 1    
    11    7    6 ar   
    12   22    6 ar   
    13    8    7 ar   
    14   33    7 1    
    15    9    8 ar   
    16   34    8 1    
    17   10    9 1    
    18   21    9 ar   
    19   11   10 1    
    20   35   10 1    
    21   12   11 2    
    22   13   12 1    
    23   21   12 1    
    24   14   13 ar   
    25   20   13 ar   
    26   15   14 ar   
    27   36   14 1    
    28   16   15 ar   
    29   37   15 1    
    30   17   16 ar   
    31   38   16 1    
    32   18   17 1    
    33   20   17 ar   
    34   19   18 3    
    35   39   20 1    
    36   22   21 ar   
    37   23   22 1    
    38   24   23 1    
    39   30   23 1    
    40   25   24 1    
    41   40   24 1    
    42   41   24 1    
    43   26   25 1    
    44   42   25 1    
    45   43   25 1    
    46   27   26 1    
    47   28   27 1    
    48   30   27 1    
    49   44   27 1    
    50   29   28 1    
    51   45   28 1    
    52   46   28 1    
    53   52   29 1    
    54   53   29 1    
    55   54   29 1    
    56   47   30 1    
    57   48   30 1    
@<TRIPOS>SUBSTRUCTURE
     1 4YM1271     1 GROUP   
@<TRIPOS>SET

