#    Name: 2vyn_NAD_4_INTS_M
#    Modification time : Tue Mar 25 03:16:56 2014

@<TRIPOS>MOLECULE
2vyn_NAD_4_INTS_M
   76     0     9     0     0
SMALL
NO_CHARGES


@<TRIPOS>ATOM
      1 N          30.2395   69.4760   20.6155 N.am      2 SEC2        0.0000 
      2 N          28.7470   69.6330   20.4810 N.am      8 SEL2        0.0000 
      3 N          31.7320   69.3190   20.7500 N.am      5 SEP2        0.0000 
      4 CA         30.4615   75.6735   20.8430 C.3       3 GLC5        0.0000 
      5 CA         28.9220   74.3460   20.9660 C.3       9 GLL5        0.0000 
      6 CA         32.0010   77.0010   20.7200 C.3       6 GLP5        0.0000 
      7 O          29.9995   75.0425   23.7150 O.2       1 ALC1        0.0000 
      8 O          29.3540   73.8120   23.2660 O.2       7 ALL1        0.0000 
      9 O          30.6450   76.2730   24.1640 O.2       4 ALP1        0.0000 
     10 CA         26.7175   77.0535   23.8115 C.3       3 GLC5        0.0000 
     11 CA         27.6390   75.4280   22.6870 C.3       9 GLL5        0.0000 
     12 CA         25.7960   78.6790   24.9360 C.3       6 GLP5        0.0000 
     13 O          29.1885   76.0030   24.1115 O.2       1 ALC1        0.0000 
     14 O          27.7320   75.7330   24.0590 O.2       7 ALL1        0.0000 
     15 CA         30.2100   76.7085   21.2710 C.3       3 GLC5        0.0000 
     16 CA         28.4190   76.4160   21.8220 C.3       9 GLL5        0.0000 
     17 CA         29.0475   77.6830   20.1400 C.3       3 GLC5        0.0000 
     18 CA         29.6760   78.9500   18.4580 C.3       6 GLP5        0.0000 
     19 O          26.9355   83.5220   20.8355 O.2       1 ALC1        0.0000 
     20 O          26.6940   82.0880   21.0280 O.2       7 ALL1        0.0000 
     21 O          27.1770   84.9560   20.6430 O.2       4 ALP1        0.0000 
     22 CA         30.9665   78.8145   21.1540 C.3       3 GLC5        0.0000 
     23 CA         29.9320   80.6280   21.5880 C.3       9 GLL5        0.0000 
     24 CA         30.6870   80.1655   23.2435 C.3       3 GLC5        0.0000 
     25 CA         31.4420   79.7030   24.8990 C.3       6 GLP5        0.0000 
     26 CA         29.4655   80.9490   23.0545 C.3       3 GLC5        0.0000 
     27 CA         28.9990   81.2700   24.5210 C.3       6 GLP5        0.0000 
     28 CA         29.8040   79.7890   20.0230 C.3       3 GLC5        0.0000 
     29 CA         30.1490   77.9490   21.0995 C.3       3 GLC5        0.0000 
     30 CA         28.2970   78.8970   21.4790 C.3       9 GLL5        0.0000 
     31 N          31.9895   69.9870   18.2580 N.am      2 SEC2        0.0000 
     32 N          30.6640   70.5030   18.1400 N.am      8 SEL2        0.0000 
     33 N          33.3150   69.4710   18.3760 N.am      5 SEP2        0.0000 
     34 CA         31.6715   71.3885   16.0435 C.3       3 GLC5        0.0000 
     35 CA         29.6460   72.2740   15.9370 C.3       9 GLL5        0.0000 
     36 CA         33.6970   70.5030   16.1500 C.3       6 GLP5        0.0000 
     37 N          31.6620   72.8595   13.5160 N.am      2 SEC2        0.0000 
     38 N          30.6030   71.8040   13.7710 N.am      8 SEL2        0.0000 
     39 N          32.7210   73.9150   13.2610 N.am      5 SEP2        0.0000 
     40 O          29.1755   74.6080   12.8460 O.2       1 ALC1        0.0000 
     41 O          28.2600   73.4540   12.7670 O.2       7 ALL1        0.0000 
     42 O          30.0910   75.7620   12.9250 O.2       4 ALP1        0.0000 
     43 CA         31.4440   70.2055   14.0885 C.3       3 GLC5        0.0000 
     44 CA         29.9040   71.0410   12.7920 C.3       9 GLL5        0.0000 
     45 CA         32.9840   69.3700   15.3850 C.3       6 GLP5        0.0000 
     46 N          30.5980   63.6010   13.8815 N.am      2 SEC2        0.0000 
     47 N          30.4780   64.9680   13.8990 N.am      8 SEL2        0.0000 
     48 N          30.7180   62.2340   13.8640 N.am      5 SEP2        0.0000 
     49 CA         33.8765   67.3945   11.2905 C.3       3 GLC5        0.0000 
     50 CA         31.9080   68.1700   11.5200 C.3       9 GLL5        0.0000 
     51 CA         35.8450   66.6190   11.0610 C.3       6 GLP5        0.0000 
     52 CA         32.1700   69.4040   13.5355 C.3       3 GLC5        0.0000 
     53 CA         31.3560   69.4380   11.6860 C.3       9 GLL5        0.0000 
     54 CA         28.8268   75.3390   18.8708 C.3       3 GLC5        0.0000 
     55 CA         29.0380   76.7960   17.2940 C.3       6 GLP5        0.0000 
     56 CA         29.9934   72.7338   21.6174 C.3       3 GLC5        0.0000 
     57 CA         28.3090   73.4180   19.9290 C.3       9 GLL5        0.0000 
     58 CA         31.5200   71.4710   21.8370 C.3       6 GLP5        0.0000 
     59 CA         28.4449   80.4828   22.8999 C.3       3 GLC5        0.0000 
     60 CA         27.3130   79.8210   21.1300 C.3       9 GLL5        0.0000 
     61 CA         28.7834   79.3228   19.8684 C.3       3 GLC5        0.0000 
     62 CA         31.0555   74.1333   15.5303 C.3       3 GLC5        0.0000 
     63 CA         32.4310   75.7910   15.8610 C.3       6 GLP5        0.0000 
     64 CA         27.9847   74.2067   14.1958 C.3       3 GLC5        0.0000 
     65 CA         29.7140   72.6770   14.4620 C.3       9 GLL5        0.0000 
     66 CA         26.9310   75.8290   14.2630 C.3       6 GLP5        0.0000 
     67 CA         29.2544   72.5512   11.3966 C.3       3 GLC5        0.0000 
     68 CA         28.3630   72.4920   13.7950 C.3       9 GLL5        0.0000 
     69 CA         29.3570   73.6830    9.6500 C.3       6 GLP5        0.0000 
     70 CA         31.6558   68.6958   14.4247 C.3       3 GLC5        0.0000 
     71 CA         30.0560   68.6620   13.5400 C.3       9 GLL5        0.0000 
     72 CA         32.8128   67.9300   13.4650 C.3       3 GLC5        0.0000 
     73 CA         31.5270   67.1440   12.3800 C.3       9 GLL5        0.0000 
     74 CA         33.9080   68.2030   14.9800 C.3       6 GLP5        0.0000 
     75 CA         32.0622   66.3475   10.5335 C.3       3 GLC5        0.0000 
     76 CA         32.4070   65.0380    9.1170 C.3       6 GLP5        0.0000 
@<TRIPOS>BOND
@<TRIPOS>SUBSTRUCTURE
     1 ALC1        7 GROUP        1 X    ALC  0     ROOT ALC X 1
     2 SEC2        1 GROUP        1 X    SEC  0     **** SEC X 2
     3 GLC5        4 GROUP        1 X    GLC  0     **** GLC X 6
     4 ALP1        9 GROUP        1 Y    ALP  0     ROOT ALP Y 8
     5 SEP2        3 GROUP        1 Y    SEP  0     **** SEP Y 9
     6 GLP5        6 GROUP        1 Y    GLP  0     **** GLP Y 13
     7 ALL1        8 GROUP        1 Z    ALL  0     ROOT ALL Z 15
     8 SEL2        2 GROUP        1 Z    SEL  0     **** SEL Z 16
     9 GLL5        5 GROUP        1 Z    GLL  0     **** GLL Z 20
@<TRIPOS>SET

