#    Name: 2vyn_NAD_4_ligand
#    Modification time : Tue Mar 25 03:16:56 2014

@<TRIPOS>MOLECULE
2vyn_NAD_4_ligand
   70    74     1     0     0
SMALL
NO_CHARGES


@<TRIPOS>ATOM
      1 PA         28.0580   70.7730   19.8520 P.3       1 NAD1341     0.0000 
      2 O1A        26.6260   70.8870   20.1990 O.co2     1 NAD1341     0.0000 
      3 O2A        28.7470   69.6330   20.4810 O.co2     1 NAD1341     0.0000 
      4 O5B        28.8460   72.1340   20.1850 O.3       1 NAD1341     0.0000 
      5 C5B        28.3090   73.4180   19.9290 C.3       1 NAD1341     0.0000 
      6 C4B        28.9220   74.3460   20.9660 C.3       1 NAD1341     0.0000 
      7 O4B        28.7080   75.7070   20.6380 O.3       1 NAD1341     0.0000 
      8 C3B        28.3180   74.1110   22.3480 C.3       1 NAD1341     0.0000 
      9 O3B        29.3540   73.8120   23.2660 O.3       1 NAD1341     0.0000 
     10 C2B        27.6390   75.4280   22.6870 C.3       1 NAD1341     0.0000 
     11 O2B        27.7320   75.7330   24.0590 O.3       1 NAD1341     0.0000 
     12 C1B        28.4190   76.4160   21.8220 C.3       1 NAD1341     0.0000 
     13 N9A        27.7020   77.6590   21.5050 N.pl3     1 NAD1341     0.0000 
     14 C8A        26.3670   77.8280   21.1860 C.2       1 NAD1341     0.0000 
     15 N7A        26.1460   79.1490   20.9620 N.2       1 NAD1341     0.0000 
     16 C5A        27.3130   79.8210   21.1300 C.ar      1 NAD1341     0.0000 
     17 C6A        27.6560   81.1670   21.0270 C.ar      1 NAD1341     0.0000 
     18 N6A        26.6940   82.0880   21.0280 N.pl3     1 NAD1341     0.0000 
     19 N1A        28.9700   81.5570   21.2580 N.ar      1 NAD1341     0.0000 
     20 C2A        29.9320   80.6280   21.5880 C.ar      1 NAD1341     0.0000 
     21 N3A        29.5760   79.2950   21.7040 N.ar      1 NAD1341     0.0000 
     22 C4A        28.2970   78.8970   21.4790 C.ar      1 NAD1341     0.0000 
     23 O3         28.1230   70.6940   18.2400 O.3       1 NAD1341     0.0000 
     24 PN         29.4020   70.1170   17.4440 P.3       1 NAD1341     0.0000 
     25 O1N        30.6640   70.5030   18.1400 O.co2     1 NAD1341     0.0000 
     26 O2N        29.1260   68.6800   17.2150 O.co2     1 NAD1341     0.0000 
     27 O5D        29.2560   70.9070   16.0530 O.3       1 NAD1341     0.0000 
     28 C5D        29.6460   72.2740   15.9370 C.3       1 NAD1341     0.0000 
     29 C4D        29.7140   72.6770   14.4620 C.3       1 NAD1341     0.0000 
     30 O4D        30.6030   71.8040   13.7710 O.3       1 NAD1341     0.0000 
     31 C3D        28.3630   72.4920   13.7950 C.3       1 NAD1341     0.0000 
     32 O3D        28.2600   73.4540   12.7670 O.3       1 NAD1341     0.0000 
     33 C2D        28.4360   71.1040   13.1940 C.3       1 NAD1341     0.0000 
     34 O2D        27.5630   70.9460   12.1040 O.3       1 NAD1341     0.0000 
     35 C1D        29.9040   71.0410   12.7920 C.3       1 NAD1341     0.0000 
     36 N1N        30.4490   69.6760   12.6870 N.pl3     1 NAD1341     0.0000 
     37 C2N        30.0560   68.6620   13.5400 C.ar      1 NAD1341     0.0000 
     38 C3N        30.5990   67.3810   13.3890 C.ar      1 NAD1341     0.0000 
     39 C7N        30.3020   66.2760   14.3520 C.2       1 NAD1341     0.0000 
     40 O7N        30.4780   64.9680   13.8990 O.2       1 NAD1341     0.0000 
     41 N7N        29.8880   66.5290   15.5920 N.am      1 NAD1341     0.0000 
     42 C4N        31.5270   67.1440   12.3800 C.ar      1 NAD1341     0.0000 
     43 C5N        31.9080   68.1700   11.5200 C.ar      1 NAD1341     0.0000 
     44 C6N        31.3560   69.4380   11.6860 C.ar      1 NAD1341     0.0000 
     45 H          27.2320   73.4460   20.0481 H         1 NAD1341     0.0000 
     46 H          28.5769   73.7887   18.9463 H         1 NAD1341     0.0000 
     47 H          29.9844   74.1296   21.0376 H         1 NAD1341     0.0000 
     48 H          27.5836   73.3568   22.2642 H         1 NAD1341     0.0000 
     49 H          26.6435   75.3864   22.3086 H         1 NAD1341     0.0000 
     50 H          29.3464   76.6378   22.3473 H         1 NAD1341     0.0000 
     51 H          25.7205   77.1244   21.1355 H         1 NAD1341     0.0000 
     52 H          25.7556   81.7441   21.0614 H         1 NAD1341     0.0000 
     53 H          26.9967   83.0405   20.9953 H         1 NAD1341     0.0000 
     54 H          30.9041   80.9178   21.7470 H         1 NAD1341     0.0000 
     55 H          30.6349   72.4549   16.3769 H         1 NAD1341     0.0000 
     56 H          28.9330   72.9452   16.4324 H         1 NAD1341     0.0000 
     57 H          30.0078   73.6893   14.3788 H         1 NAD1341     0.0000 
     58 H          27.6141   72.5335   14.5121 H         1 NAD1341     0.0000 
     59 H          28.2927   70.4030   13.9869 H         1 NAD1341     0.0000 
     60 H          29.9868   71.5480   11.8222 H         1 NAD1341     0.0000 
     61 H          29.3706   68.8394   14.2822 H         1 NAD1341     0.0000 
     62 H          29.7229   65.7314   16.1721 H         1 NAD1341     0.0000 
     63 H          29.7795   67.4938   15.8314 H         1 NAD1341     0.0000 
     64 H          31.9345   66.2043   12.2685 H         1 NAD1341     0.0000 
     65 H          32.5856   67.9952   10.7744 H         1 NAD1341     0.0000 
     66 H          31.6381   70.1992   11.0450 H         1 NAD1341     0.0000 
     67 H          29.7639   74.6961   23.4905 H         1 NAD1341     0.0000 
     68 H          28.6901   75.5716   24.2955 H         1 NAD1341     0.0000 
     69 H          29.0294   74.0751   12.9159 H         1 NAD1341     0.0000 
     70 H          27.2561   71.8716   11.8821 H         1 NAD1341     0.0000 
@<TRIPOS>BOND
     1    2    1 ar   
     2    3    1 ar   
     3    4    1 1    
     4   23    1 1    
     5    5    4 1    
     6    6    5 1    
     7   45    5 1    
     8   46    5 1    
     9    7    6 1    
    10    8    6 1    
    11   47    6 1    
    12   12    7 1    
    13    9    8 1    
    14   10    8 1    
    15   48    8 1    
    16   67    9 1    
    17   11   10 1    
    18   12   10 1    
    19   49   10 1    
    20   68   11 1    
    21   13   12 1    
    22   50   12 1    
    23   14   13 1    
    24   22   13 1    
    25   15   14 2    
    26   51   14 1    
    27   16   15 1    
    28   17   16 ar   
    29   22   16 ar   
    30   18   17 1    
    31   19   17 ar   
    32   52   18 1    
    33   53   18 1    
    34   20   19 ar   
    35   21   20 ar   
    36   54   20 1    
    37   22   21 ar   
    38   24   23 1    
    39   25   24 ar   
    40   26   24 ar   
    41   27   24 1    
    42   28   27 1    
    43   29   28 1    
    44   55   28 1    
    45   56   28 1    
    46   30   29 1    
    47   31   29 1    
    48   57   29 1    
    49   35   30 1    
    50   32   31 1    
    51   33   31 1    
    52   58   31 1    
    53   69   32 1    
    54   34   33 1    
    55   35   33 1    
    56   59   33 1    
    57   70   34 1    
    58   36   35 1    
    59   60   35 1    
    60   37   36 ar   
    61   44   36 ar   
    62   38   37 ar   
    63   61   37 1    
    64   39   38 1    
    65   42   38 ar   
    66   40   39 2    
    67   41   39 am   
    68   62   41 1    
    69   63   41 1    
    70   43   42 ar   
    71   64   42 1    
    72   44   43 ar   
    73   65   43 1    
    74   66   44 1    
@<TRIPOS>SUBSTRUCTURE
     1 NAD1341     1 GROUP   
@<TRIPOS>SET

