#    Name: 3iuc_ADP_1_INTS_M
#    Modification time : Tue Mar 25 17:27:37 2014

@<TRIPOS>MOLECULE
3iuc_ADP_1_INTS_M
   67     0     9     0     0
SMALL
NO_CHARGES


@<TRIPOS>ATOM
      1 N           0.6375    1.7975    1.1240 N.am      2 SEC2        0.0000 
      2 N           0.8090    0.7890    0.2070 N.am      8 SEL2        0.0000 
      3 N           0.4660    2.8060    2.0410 N.am      5 SEP2        0.0000 
      4 N           1.9305    1.4660    0.7010 N.am      2 SEC2        0.0000 
      5 N           3.0520    2.1430    1.1950 N.am      5 SEP2        0.0000 
      6 N           0.5325   -0.3065    2.4220 N.am      2 SEC2        0.0000 
      7 N          -0.2960   -0.8440    1.7470 N.am      8 SEL2        0.0000 
      8 N           1.3610    0.2310    3.0970 N.am      5 SEP2        0.0000 
      9 N          -0.7655   -1.9250    2.3770 N.am      2 SEC2        0.0000 
     10 N          -1.2350   -3.0060    3.0070 N.am      5 SEP2        0.0000 
     11 N           1.4435   -4.9730   -1.0820 N.am      2 SEC2        0.0000 
     12 N           1.2740   -3.2630   -1.2530 N.am      8 SEL2        0.0000 
     13 N           1.6130   -6.6830   -0.9110 N.am      5 SEP2        0.0000 
     14 N           1.5830   -5.3205    0.1300 N.am      2 SEC2        0.0000 
     15 N           1.5530   -3.9580    1.1710 N.am      8 SEL2        0.0000 
     16 CA          3.3190   -2.2370    2.4630 C.3       3 GLC5        0.0000 
     17 CA          1.9850   -3.6760    2.5140 C.3       9 GLL5        0.0000 
     18 CA          4.6530   -0.7980    2.4120 C.3       6 GLP5        0.0000 
     19 CA          2.0275   -6.1260    1.7320 C.3       3 GLC5        0.0000 
     20 CA          1.6010   -4.8250    3.4360 C.3       9 GLL5        0.0000 
     21 CA          2.4540   -7.4270    0.0280 C.3       6 GLP5        0.0000 
     22 N           1.1800   -6.1410    6.9705 N.am      2 SEC2        0.0000 
     23 N           1.0790   -4.9070    5.8160 N.am      8 SEL2        0.0000 
     24 N           1.2810   -7.3750    8.1250 N.am      5 SEP2        0.0000 
     25 CA          2.6725   -7.1670    6.6590 C.3       3 GLC5        0.0000 
     26 CA          3.1000   -5.8280    5.0240 C.3       9 GLL5        0.0000 
     27 CA          2.2450   -8.5060    8.2940 C.3       6 GLP5        0.0000 
     28 N           2.2345   -6.8790    7.2260 N.am      2 SEC2        0.0000 
     29 N           3.1880   -6.3830    6.3270 N.am      8 SEL2        0.0000 
     30 N           2.3380   -5.5265    7.2290 N.am      2 SEC2        0.0000 
     31 N           1.4880   -4.6700    8.1310 N.am      5 SEP2        0.0000 
     32 O           4.3265   -6.0400    7.0960 O.2       1 ALC1        0.0000 
     33 O           3.1880   -6.3830    6.3270 O.2       7 ALL1        0.0000 
     34 O           5.4650   -5.6970    7.8650 O.2       4 ALP1        0.0000 
     35 CA          2.5105   -7.1225    2.0220 C.3       3 GLC5        0.0000 
     36 CA          2.5670   -6.8180    4.0160 C.3       9 GLL5        0.0000 
     37 CA          1.1990   -8.0230    3.0640 C.3       3 GLC5        0.0000 
     38 CA         -0.1690   -9.2280    2.1120 C.3       6 GLP5        0.0000 
     39 CA          5.8310  -11.3135    5.4705 C.3       3 GLC5        0.0000 
     40 CA          5.1080  -10.9550    3.7550 C.3       9 GLL5        0.0000 
     41 CA          6.5540  -11.6720    7.1860 C.3       6 GLP5        0.0000 
     42 CA          4.9600  -13.0560    3.9290 C.3       3 GLC5        0.0000 
     43 CA          4.8120  -15.1570    4.1030 C.3       6 GLP5        0.0000 
     44 N           3.8870  -13.0455    4.3885 N.am      2 SEC2        0.0000 
     45 N           4.1190  -11.6740    4.3680 N.am      8 SEL2        0.0000 
     46 N           3.6550  -14.4170    4.4090 N.am      5 SEP2        0.0000 
     47 CA          2.7290  -11.0735    6.7955 C.3       3 GLC5        0.0000 
     48 CA          2.9750  -11.1190    4.7900 C.3       9 GLL5        0.0000 
     49 CA          2.4830  -11.0280    8.8010 C.3       6 GLP5        0.0000 
     50 CA          4.7645  -11.3955    5.9880 C.3       3 GLC5        0.0000 
     51 CA          3.8935  -13.1380    4.4465 C.3       3 GLC5        0.0000 
     52 CA          3.2585  -11.9430    2.7655 C.3       3 GLC5        0.0000 
     53 CA          3.5420  -12.7670    0.7410 C.3       6 GLP5        0.0000 
     54 CA          1.3800  -12.1365    4.7560 C.3       3 GLC5        0.0000 
     55 CA         -0.2150  -13.1540    4.7220 C.3       6 GLP5        0.0000 
     56 CA          3.0435   -8.2170    2.0100 C.3       3 GLC5        0.0000 
     57 CA          3.6330   -9.0070    3.9920 C.3       9 GLL5        0.0000 
     58 CA          1.7320   -9.1175    3.0520 C.3       3 GLC5        0.0000 
     59 CA          0.0360   -4.1958    1.9640 C.3       3 GLC5        0.0000 
     60 CA         -1.7210   -4.1410    0.9530 C.3       6 GLP5        0.0000 
     61 CA          0.4478   -3.6354    4.1820 C.3       3 GLC5        0.0000 
     62 CA         -1.0590   -2.7980    4.4410 C.3       6 GLP5        0.0000 
     63 CA          5.6113   -9.1913    5.3128 C.3       3 GLC5        0.0000 
     64 CA          6.9460   -9.1100    6.8630 C.3       6 GLP5        0.0000 
     65 CA          5.2285  -10.7432    1.9390 C.3       3 GLC5        0.0000 
     66 CA          4.9200   -9.5380    3.5330 C.3       9 GLL5        0.0000 
     67 CA          5.4430  -11.2400    0.2340 C.3       6 GLP5        0.0000 
@<TRIPOS>BOND
@<TRIPOS>SUBSTRUCTURE
     1 ALC1       32 GROUP        1 X    ALC  0     ROOT ALC X 1
     2 SEC2        1 GROUP        1 X    SEC  0     **** SEC X 2
     3 GLC5       16 GROUP        1 X    GLC  0     **** GLC X 6
     4 ALP1       34 GROUP        1 Y    ALP  0     ROOT ALP Y 8
     5 SEP2        3 GROUP        1 Y    SEP  0     **** SEP Y 9
     6 GLP5       18 GROUP        1 Y    GLP  0     **** GLP Y 13
     7 ALL1       33 GROUP        1 Z    ALL  0     ROOT ALL Z 15
     8 SEL2        2 GROUP        1 Z    SEL  0     **** SEL Z 16
     9 GLL5       17 GROUP        1 Z    GLL  0     **** GLL Z 20
@<TRIPOS>SET

