#    Name: 3iuc_ADP_1_ligand
#    Modification time : Tue Mar 25 17:27:37 2014

@<TRIPOS>MOLECULE
3iuc_ADP_1_ligand
   39    41     1     0     0
SMALL
NO_CHARGES


@<TRIPOS>ATOM
      1 PB          0.3330   -0.6570    0.3950 P.3       1 ADP1        0.0000 
      2 O1B        -0.4280   -1.2750   -0.7550 O.co2     1 ADP1        0.0000 
      3 O2B         0.8090    0.7890    0.2070 O.co2     1 ADP1        0.0000 
      4 O3B        -0.2960   -0.8440    1.7470 O.co2     1 ADP1        0.0000 
      5 PA          2.0540   -2.9890    0.0210 P.3       1 ADP1        0.0000 
      6 O1A         1.2740   -3.2630   -1.2530 O.co2     1 ADP1        0.0000 
      7 O2A         3.5610   -3.1660   -0.0350 O.co2     1 ADP1        0.0000 
      8 O3A         1.7320   -1.4920    0.4510 O.3       1 ADP1        0.0000 
      9 O5'         1.5530   -3.9580    1.1710 O.3       1 ADP1        0.0000 
     10 C5'         1.9850   -3.6760    2.5140 C.3       1 ADP1        0.0000 
     11 C4'         1.6010   -4.8250    3.4360 C.3       1 ADP1        0.0000 
     12 O4'         2.1800   -6.0140    2.9240 O.3       1 ADP1        0.0000 
     13 C3'         2.1160   -4.6950    4.8710 C.3       1 ADP1        0.0000 
     14 O3'         1.0790   -4.9070    5.8160 O.3       1 ADP1        0.0000 
     15 C2'         3.1000   -5.8280    5.0240 C.3       1 ADP1        0.0000 
     16 O2'         3.1880   -6.3830    6.3270 O.3       1 ADP1        0.0000 
     17 C1'         2.5670   -6.8180    4.0160 C.3       1 ADP1        0.0000 
     18 N9          3.6600   -7.7210    3.6910 N.pl3     1 ADP1        0.0000 
     19 C8          4.8430   -7.4100    3.0940 C.2       1 ADP1        0.0000 
     20 N7          5.6360   -8.5220    2.9870 N.2       1 ADP1        0.0000 
     21 C5          4.9200   -9.5380    3.5330 C.ar      1 ADP1        0.0000 
     22 C6          5.1080  -10.9550    3.7550 C.ar      1 ADP1        0.0000 
     23 N6          6.2770  -11.5080    3.3790 N.pl3     1 ADP1        0.0000 
     24 N1          4.1190  -11.6740    4.3680 N.ar      1 ADP1        0.0000 
     25 C2          2.9750  -11.1190    4.7900 C.ar      1 ADP1        0.0000 
     26 N3          2.7320   -9.8050    4.6000 N.ar      1 ADP1        0.0000 
     27 C4          3.6330   -9.0070    3.9920 C.ar      1 ADP1        0.0000 
     28 H           1.5203   -2.7612    2.9001 H         1 ADP1        0.0000 
     29 H           3.0725   -3.5480    2.5660 H         1 ADP1        0.0000 
     30 H           0.5289   -4.9160    3.4651 H         1 ADP1        0.0000 
     31 H           2.6206   -3.7846    4.9810 H         1 ADP1        0.0000 
     32 H           4.0515   -5.4808    4.6393 H         1 ADP1        0.0000 
     33 H           1.7529   -7.3243    4.4592 H         1 ADP1        0.0000 
     34 H           5.0953   -6.5221    2.7843 H         1 ADP1        0.0000 
     35 H           6.9629  -10.8799    3.0115 H         1 ADP1        0.0000 
     36 H           6.3550  -12.4975    3.5008 H         1 ADP1        0.0000 
     37 H           2.2559  -11.7096    5.2749 H         1 ADP1        0.0000 
     38 H           1.3865   -5.6821    6.3679 H         1 ADP1        0.0000 
     39 H           4.0363   -6.0153    6.7081 H         1 ADP1        0.0000 
@<TRIPOS>BOND
     1    2    1 ar   
     2    3    1 ar   
     3    4    1 ar   
     4    8    1 1    
     5    6    5 ar   
     6    7    5 ar   
     7    8    5 1    
     8    9    5 1    
     9   10    9 1    
    10   11   10 1    
    11   28   10 1    
    12   29   10 1    
    13   12   11 1    
    14   13   11 1    
    15   30   11 1    
    16   17   12 1    
    17   14   13 1    
    18   15   13 1    
    19   31   13 1    
    20   38   14 1    
    21   16   15 1    
    22   17   15 1    
    23   32   15 1    
    24   39   16 1    
    25   18   17 1    
    26   33   17 1    
    27   19   18 1    
    28   27   18 1    
    29   20   19 2    
    30   34   19 1    
    31   21   20 1    
    32   22   21 ar   
    33   27   21 ar   
    34   23   22 1    
    35   24   22 ar   
    36   35   23 1    
    37   36   23 1    
    38   25   24 ar   
    39   26   25 ar   
    40   37   25 1    
    41   27   26 ar   
@<TRIPOS>SUBSTRUCTURE
     1 ADP1        1 GROUP   
@<TRIPOS>SET

