#    Name: 2o4p_TPV_1_INTS_M
#    Modification time : Tue Mar 25 21:59:48 2014

@<TRIPOS>MOLECULE
2o4p_TPV_1_INTS_M
   88     0     9     0     0
SMALL
NO_CHARGES


@<TRIPOS>ATOM
      1 N          10.3925   22.6625   17.0065 N.am      2 SEC2        0.0000 
      2 N          11.4360   21.8930   16.4140 N.am      8 SEL2        0.0000 
      3 N           9.3490   23.4320   17.5990 N.am      5 SEP2        0.0000 
      4 N          11.5695   22.6260   15.0885 N.am      2 SEC2        0.0000 
      5 N          11.7030   23.3590   13.7630 N.am      5 SEP2        0.0000 
      6 O          14.5700   17.6390   17.5965 O.2       1 ALC1        0.0000 
      7 O          13.8160   18.3200   18.3550 O.2       7 ALL1        0.0000 
      8 O          15.3240   16.9580   16.8380 O.2       4 ALP1        0.0000 
      9 CA         15.0110   25.0050   22.0255 C.3       3 GLC5        0.0000 
     10 CA         15.1790   24.0350   20.3650 C.3       9 GLL5        0.0000 
     11 CA         14.8430   25.9750   23.6860 C.3       6 GLP5        0.0000 
     12 CA         15.0195   26.2060   20.6345 C.3       3 GLC5        0.0000 
     13 CA         14.8600   28.3770   20.9040 C.3       6 GLP5        0.0000 
     14 CA         13.6695   23.1435   21.5840 C.3       3 GLC5        0.0000 
     15 CA         12.1600   22.2520   22.8030 C.3       6 GLP5        0.0000 
     16 CA         15.4275   20.0005   13.8215 C.3       3 GLC5        0.0000 
     17 CA         16.0850   21.7480   14.9010 C.3       9 GLL5        0.0000 
     18 CA         14.7700   18.2530   12.7420 C.3       6 GLP5        0.0000 
     19 CA         14.5335   23.3490   14.9910 C.3       3 GLC5        0.0000 
     20 CA         12.9820   24.9500   15.0810 C.3       6 GLP5        0.0000 
     21 CA         14.9510   24.2805   14.2290 C.3       3 GLC5        0.0000 
     22 CA         16.9200   23.6110   13.3770 C.3       9 GLL5        0.0000 
     23 CA         21.7030   22.2765   14.2495 C.3       3 GLC5        0.0000 
     24 CA         19.6000   22.7600   13.6920 C.3       9 GLL5        0.0000 
     25 CA         23.8060   21.7930   14.8070 C.3       6 GLP5        0.0000 
     26 CA         11.1990   18.1290   21.7940 C.3       3 GLC5        0.0000 
     27 CA         11.0610   19.6620   20.2900 C.3       9 GLL5        0.0000 
     28 CA         11.3370   16.5960   23.2980 C.3       6 GLP5        0.0000 
     29 CA         11.6105   20.9570   21.5465 C.3       3 GLC5        0.0000 
     30 CA         11.4375   16.7330   12.5875 C.3       3 GLC5        0.0000 
     31 CA         11.2710   16.9740   14.7660 C.3       9 GLL5        0.0000 
     32 CA         11.6040   16.4920   10.4090 C.3       6 GLP5        0.0000 
     33 CA          8.6555   16.8515   12.8875 C.3       3 GLC5        0.0000 
     34 CA          9.9140   16.6820   14.6130 C.3       9 GLL5        0.0000 
     35 CA          7.3970   17.0210   11.1620 C.3       6 GLP5        0.0000 
     36 N           8.6185   13.1105   15.3185 N.am      2 SEC2        0.0000 
     37 N           7.8350   14.5030   15.4400 N.am      8 SEL2        0.0000 
     38 N           9.4020   11.7180   15.1970 N.am      5 SEP2        0.0000 
     39 CA          7.3595   13.8385   17.5395 C.3       3 GLC5        0.0000 
     40 CA          7.1150   15.8600   17.4940 C.3       9 GLL5        0.0000 
     41 CA          7.6040   11.8170   17.5850 C.3       6 GLP5        0.0000 
     42 N           9.0320   14.1130   17.9280 N.am      2 SEC2        0.0000 
     43 N           8.1990   15.4390   18.2020 N.am      8 SEL2        0.0000 
     44 N           9.8650   12.7870   17.6540 N.am      5 SEP2        0.0000 
     45 CA         10.0965   14.9275   18.5400 C.3       3 GLC5        0.0000 
     46 CA          8.3130   15.7160   19.5290 C.3       9 GLL5        0.0000 
     47 CA         11.8800   14.1390   17.5510 C.3       6 GLP5        0.0000 
     48 CA          7.9585   13.7665   18.5570 C.3       3 GLC5        0.0000 
     49 CA          6.4740   18.0345   23.7610 C.3       3 GLC5        0.0000 
     50 CA          6.3480   17.2330   22.1870 C.3       9 GLL5        0.0000 
     51 CA          6.6000   18.8360   25.3350 C.3       6 GLP5        0.0000 
     52 CA          7.7865   19.9360   21.5460 C.3       3 GLC5        0.0000 
     53 CA          8.3380   17.8100   21.7340 C.3       9 GLL5        0.0000 
     54 CA          7.2350   22.0620   21.3580 C.3       6 GLP5        0.0000 
     55 CA         14.2302   23.4497   15.9503 C.3       3 GLC5        0.0000 
     56 CA         14.9040   21.6890   17.2540 C.3       9 GLL5        0.0000 
     57 CA         13.2845   23.9600   19.6362 C.3       3 GLC5        0.0000 
     58 CA         14.8370   22.2820   18.6830 C.3       9 GLL5        0.0000 
     59 CA         11.4680   24.3980   19.7000 C.3       6 GLP5        0.0000 
     60 CA         16.4100   22.3775   20.5127 C.3       3 GLC5        0.0000 
     61 CA         17.7190   21.2330   21.4530 C.3       6 GLP5        0.0000 
     62 CA         16.1062   23.9213   11.6402 C.3       3 GLC5        0.0000 
     63 CA         14.7660   23.9000   10.2280 C.3       6 GLP5        0.0000 
     64 CA         17.5408   22.1472   12.0858 C.3       3 GLC5        0.0000 
     65 CA         17.6350   20.3520   11.1190 C.3       6 GLP5        0.0000 
     66 CA         18.5442   21.8308   12.2063 C.3       3 GLC5        0.0000 
     67 CA         19.3070   23.8590   12.8950 C.3       9 GLL5        0.0000 
     68 CA         19.2263   20.4823   14.2538 C.3       3 GLC5        0.0000 
     69 CA         19.3780   18.5450   14.5130 C.3       6 GLP5        0.0000 
     70 CA         17.6167   21.2270   12.7680 C.3       3 GLC5        0.0000 
     71 CA         18.5490   22.0790   14.2970 C.3       9 GLL5        0.0000 
     72 CA         13.1230   17.8338   14.0063 C.3       3 GLC5        0.0000 
     73 CA         11.5085   18.9860   14.1639 C.3       3 GLC5        0.0000 
     74 CA         11.7740   20.4110   12.8450 C.3       6 GLP5        0.0000 
     75 CA         11.6460   15.6741   15.5524 C.3       3 GLC5        0.0000 
     76 CA         11.6810   17.8550   15.7750 C.3       9 GLL5        0.0000 
     77 CA         12.5970   14.3000   16.1630 C.3       6 GLP5        0.0000 
     78 CA          9.0563   20.0636   16.8360 C.3       3 GLC5        0.0000 
     79 CA          9.3950   18.1330   16.4430 C.3       9 GLL5        0.0000 
     80 CA          7.9530   21.6020   16.8660 C.3       6 GLP5        0.0000 
     81 CA          8.9319   18.8567   14.4974 C.3       3 GLC5        0.0000 
     82 CA          8.4470   20.1630   13.2560 C.3       6 GLP5        0.0000 
     83 CA          7.4038   14.5345   22.8727 C.3       3 GLC5        0.0000 
     84 CA          7.4870   16.7890   21.7000 C.3       9 GLL5        0.0000 
     85 CA          7.0810   12.7630   23.6520 C.3       6 GLP5        0.0000 
     86 CA          9.6846   16.8270   22.6059 C.3       3 GLC5        0.0000 
     87 CA          8.4746   18.2050   23.2484 C.3       3 GLC5        0.0000 
     88 CA          8.9170   19.3520   24.5830 C.3       6 GLP5        0.0000 
@<TRIPOS>BOND
@<TRIPOS>SUBSTRUCTURE
     1 ALC1        6 GROUP        1 X    ALC  0     ROOT ALC X 1
     2 SEC2        1 GROUP        1 X    SEC  0     **** SEC X 2
     3 GLC5        9 GROUP        1 X    GLC  0     **** GLC X 6
     4 ALP1        8 GROUP        1 Y    ALP  0     ROOT ALP Y 8
     5 SEP2        3 GROUP        1 Y    SEP  0     **** SEP Y 9
     6 GLP5       11 GROUP        1 Y    GLP  0     **** GLP Y 13
     7 ALL1        7 GROUP        1 Z    ALL  0     ROOT ALL Z 15
     8 SEL2        2 GROUP        1 Z    SEL  0     **** SEL Z 16
     9 GLL5       10 GROUP        1 Z    GLL  0     **** GLL Z 20
@<TRIPOS>SET

