#    Name: 2o4p_TPV_1_ligand
#    Modification time : Tue Mar 25 21:59:48 2014

@<TRIPOS>MOLECULE
2o4p_TPV_1_ligand
   75    78     1     0     0
SMALL
NO_CHARGES


@<TRIPOS>ATOM
      1 O1         13.6940   22.0290   16.5860 O.3       1 TPV300      0.0000 
      2 C2         12.4450   21.3450   16.8100 C.2       1 TPV300      0.0000 
      3 C3         12.4600   20.0390   17.4770 C.2       1 TPV300      0.0000 
      4 C4         13.6860   19.5000   17.7840 C.2       1 TPV300      0.0000 
      5 C5         15.0150   20.1740   17.4840 C.3       1 TPV300      0.0000 
      6 C6         14.9040   21.6890   17.2540 C.3       1 TPV300      0.0000 
      7 O7         11.4360   21.8930   16.4140 O.2       1 TPV300      0.0000 
      8 O8         13.8160   18.3200   18.3550 O.3       1 TPV300      0.0000 
      9 C9         14.8370   22.2820   18.6830 C.3       1 TPV300      0.0000 
     10 C10        15.2090   23.7360   18.8770 C.3       1 TPV300      0.0000 
     11 C11        15.1790   24.0350   20.3650 C.3       1 TPV300      0.0000 
     12 C12        16.0530   22.2100   16.3850 C.3       1 TPV300      0.0000 
     13 C13        16.0850   21.7480   14.9010 C.3       1 TPV300      0.0000 
     14 C14        17.2110   22.5020   14.1730 C.ar      1 TPV300      0.0000 
     15 C15        16.9200   23.6110   13.3770 C.ar      1 TPV300      0.0000 
     16 C16        17.9730   24.2740   12.7280 C.ar      1 TPV300      0.0000 
     17 C17        19.3070   23.8590   12.8950 C.ar      1 TPV300      0.0000 
     18 C18        19.6000   22.7600   13.6920 C.ar      1 TPV300      0.0000 
     19 C19        18.5490   22.0790   14.2970 C.ar      1 TPV300      0.0000 
     20 C20        11.0990   19.3940   17.7140 C.3       1 TPV300      0.0000 
     21 C21        10.8720   18.7230   19.0910 C.3       1 TPV300      0.0000 
     22 C22        11.0610   19.6620   20.2900 C.3       1 TPV300      0.0000 
     23 C23        10.7490   18.4410   16.6240 C.ar      1 TPV300      0.0000 
     24 C24        11.6810   17.8550   15.7750 C.ar      1 TPV300      0.0000 
     25 C25        11.2710   16.9740   14.7660 C.ar      1 TPV300      0.0000 
     26 C26         9.9140   16.6820   14.6130 C.ar      1 TPV300      0.0000 
     27 C27         8.9630   17.2540   15.4560 C.ar      1 TPV300      0.0000 
     28 N28         7.6170   16.9830   15.3240 N.pl3     1 TPV300      0.0000 
     29 C29         9.3950   18.1330   16.4430 C.ar      1 TPV300      0.0000 
     30 S30         7.0060   15.6130   15.8950 S.o2      1 TPV300      0.0000 
     31 O31         7.8350   14.5030   15.4400 O.2       1 TPV300      0.0000 
     32 O32         5.6300   15.4630   15.4740 O.2       1 TPV300      0.0000 
     33 C33         7.1150   15.8600   17.4940 C.ar      1 TPV300      0.0000 
     34 N34         8.1990   15.4390   18.2020 N.ar      1 TPV300      0.0000 
     35 C35         8.3130   15.7160   19.5290 C.ar      1 TPV300      0.0000 
     36 C36         7.3350   16.4380   20.2360 C.ar      1 TPV300      0.0000 
     37 C37         6.2270   16.9090   19.5160 C.ar      1 TPV300      0.0000 
     38 C38         6.1380   16.6190   18.1520 C.ar      1 TPV300      0.0000 
     39 C39         7.4870   16.7890   21.7000 C.3       1 TPV300      0.0000 
     40 F40         7.9660   15.8230   22.4870 F         1 TPV300      0.0000 
     41 F41         6.3480   17.2330   22.1870 F         1 TPV300      0.0000 
     42 F42         8.3380   17.8100   21.7340 F         1 TPV300      0.0000 
     43 H          15.4615   19.7142   16.5881 H         1 TPV300      0.0000 
     44 H          15.7099   19.9953   18.3199 H         1 TPV300      0.0000 
     45 H          15.4845   21.6481   19.3447 H         1 TPV300      0.0000 
     46 H          13.7975   22.1162   19.0713 H         1 TPV300      0.0000 
     47 H          14.4947   24.3659   18.3678 H         1 TPV300      0.0000 
     48 H          16.2030   23.9121   18.4934 H         1 TPV300      0.0000 
     49 H          17.0198   21.9210   16.8557 H         1 TPV300      0.0000 
     50 H          16.0378   23.3233   16.3980 H         1 TPV300      0.0000 
     51 H          15.1398   21.9794   14.4422 H         1 TPV300      0.0000 
     52 H          16.2784   20.6902   14.8681 H         1 TPV300      0.0000 
     53 H          15.9623   23.9358   13.2669 H         1 TPV300      0.0000 
     54 H          17.7670   25.0797   12.1177 H         1 TPV300      0.0000 
     55 H          20.0591   24.3747   12.4236 H         1 TPV300      0.0000 
     56 H          20.5627   22.4587   13.8309 H         1 TPV300      0.0000 
     57 H          18.7498   21.2281   14.8614 H         1 TPV300      0.0000 
     58 H          10.3317   20.2257   17.6527 H         1 TPV300      0.0000 
     59 H          11.5677   17.8750   19.1855 H         1 TPV300      0.0000 
     60 H           9.8515   18.3106   19.1148 H         1 TPV300      0.0000 
     61 H          12.6835   18.0676   15.8851 H         1 TPV300      0.0000 
     62 H          11.9637   16.5477   14.1453 H         1 TPV300      0.0000 
     63 H           9.6133   16.0354   13.8671 H         1 TPV300      0.0000 
     64 H           6.9396   17.5782   14.8874 H         1 TPV300      0.0000 
     65 H           8.6926   18.5786   17.0696 H         1 TPV300      0.0000 
     66 H           9.1538   15.3875   20.0616 H         1 TPV300      0.0000 
     67 H           5.5033   17.4513   19.9804 H         1 TPV300      0.0000 
     68 H           5.3273   16.9745   17.6103 H         1 TPV300      0.0000 
     69 H          15.8245   23.4636   20.8717 H         1 TPV300      0.0000 
     70 H          15.4168   24.9871   20.5574 H         1 TPV300      0.0000 
     71 H          14.2737   23.8738   20.7580 H         1 TPV300      0.0000 
     72 H          11.9872   20.0373   20.3254 H         1 TPV300      0.0000 
     73 H          10.4313   20.4381   20.2568 H         1 TPV300      0.0000 
     74 H          10.9017   19.1923   21.1583 H         1 TPV300      0.0000 
     75 H          14.1091   17.7080   17.6204 H         1 TPV300      0.0000 
@<TRIPOS>BOND
     1    2    1 1    
     2    6    1 1    
     3    3    2 1    
     4    7    2 2    
     5    4    3 2    
     6   20    3 1    
     7    5    4 1    
     8    8    4 1    
     9    6    5 1    
    10   43    5 1    
    11   44    5 1    
    12    9    6 1    
    13   12    6 1    
    14   75    8 1    
    15   10    9 1    
    16   45    9 1    
    17   46    9 1    
    18   11   10 1    
    19   47   10 1    
    20   48   10 1    
    21   69   11 1    
    22   70   11 1    
    23   71   11 1    
    24   13   12 1    
    25   49   12 1    
    26   50   12 1    
    27   14   13 1    
    28   51   13 1    
    29   52   13 1    
    30   15   14 ar   
    31   19   14 ar   
    32   16   15 ar   
    33   53   15 1    
    34   17   16 ar   
    35   54   16 1    
    36   18   17 ar   
    37   55   17 1    
    38   19   18 ar   
    39   56   18 1    
    40   57   19 1    
    41   21   20 1    
    42   23   20 1    
    43   58   20 1    
    44   22   21 1    
    45   59   21 1    
    46   60   21 1    
    47   72   22 1    
    48   73   22 1    
    49   74   22 1    
    50   24   23 ar   
    51   29   23 ar   
    52   25   24 ar   
    53   61   24 1    
    54   26   25 ar   
    55   62   25 1    
    56   27   26 ar   
    57   63   26 1    
    58   28   27 1    
    59   29   27 ar   
    60   30   28 1    
    61   64   28 1    
    62   65   29 1    
    63   31   30 2    
    64   32   30 2    
    65   33   30 1    
    66   34   33 ar   
    67   38   33 ar   
    68   35   34 ar   
    69   36   35 ar   
    70   66   35 1    
    71   37   36 ar   
    72   39   36 1    
    73   38   37 ar   
    74   67   37 1    
    75   68   38 1    
    76   40   39 1    
    77   41   39 1    
    78   42   39 1    
@<TRIPOS>SUBSTRUCTURE
     1 TPV300      1 GROUP   
@<TRIPOS>SET

