#    Name: 3qow_SAM_1_INTS_M
#    Modification time : Tue Mar 25 09:59:21 2014

@<TRIPOS>MOLECULE
3qow_SAM_1_INTS_M
   86     0    12     0     0
SMALL
NO_CHARGES


@<TRIPOS>ATOM
      1 OD1        22.3520   61.4130   -2.5685 O.co2     3 ASC3        0.0000 
      2 OD1        23.5640   62.1640   -3.2720 O.co2    11 ASL3        0.0000 
      3 OD1        21.1400   60.6620   -1.8650 O.co2     7 ASP3        0.0000 
      4 OD1        23.3625   60.9990   -2.4625 O.co2     3 ASC3        0.0000 
      5 OD1        23.1610   59.8340   -1.6530 O.co2     7 ASP3        0.0000 
      6 O          23.3625   60.9990   -2.4625 O.2       1 ALC1        0.0000 
      7 O          23.5640   62.1640   -3.2720 O.2       9 ALL1        0.0000 
      8 O          23.1610   59.8340   -1.6530 O.2       5 ALP1        0.0000 
      9 O          22.7720   61.8610   -4.3495 O.2       1 ALC1        0.0000 
     10 O          21.9800   61.5580   -5.4270 O.2       5 ALP1        0.0000 
     11 O          22.2050   62.6810   -3.0560 O.2       1 ALC1        0.0000 
     12 O          20.8460   63.1980   -2.8400 O.2       5 ALP1        0.0000 
     13 CA         23.9310   60.7705   -4.2950 C.3       4 GLC5        0.0000 
     14 CA         24.9460   62.5820   -3.6710 C.3      12 GLL5        0.0000 
     15 CA         22.9160   58.9590   -4.9190 C.3       8 GLP5        0.0000 
     16 CA         25.4695   61.8425   -1.7295 C.3       4 GLC5        0.0000 
     17 CA         25.9930   61.1030    0.2120 C.3       8 GLP5        0.0000 
     18 N          25.1045   65.0315   -0.8920 N.am      2 SEC2        0.0000 
     19 N          24.7940   64.2340   -1.9170 N.am     10 SEL2        0.0000 
     20 N          25.4150   65.8290    0.1330 N.am      6 SEP2        0.0000 
     21 N          24.5070   65.8210   -2.2870 N.am      2 SEC2        0.0000 
     22 N          24.2200   67.4080   -2.6570 N.am      6 SEP2        0.0000 
     23 N          27.3340   64.7135   -1.8055 N.am      2 SEC2        0.0000 
     24 N          26.7650   63.5700   -2.4140 N.am     10 SEL2        0.0000 
     25 N          27.9030   65.8570   -1.1970 N.am      6 SEP2        0.0000 
     26 N          27.9610   62.7275   -2.0820 N.am      2 SEC2        0.0000 
     27 N          29.1570   61.8850   -1.7500 N.am      6 SEP2        0.0000 
     28 CA         25.2665   61.6310   -6.2455 C.3       4 GLC5        0.0000 
     29 CA         24.9130   63.2620   -5.0470 C.3      12 GLL5        0.0000 
     30 CA         25.6200   60.0000   -7.4440 C.3       8 GLP5        0.0000 
     31 CA         22.9840   65.3845   -3.8230 C.3       4 GLC5        0.0000 
     32 CA         23.9190   64.4390   -5.1540 C.3      12 GLL5        0.0000 
     33 CA         22.0490   66.3300   -2.4920 C.3       8 GLP5        0.0000 
     34 CA         25.7535   67.4835   -6.3705 C.3       4 GLC5        0.0000 
     35 CA         23.8720   67.0340   -6.3800 C.3      12 GLL5        0.0000 
     36 CA         27.6350   67.9330   -6.3610 C.3       8 GLP5        0.0000 
     37 CA         22.9605   66.6820   -4.4360 C.3       4 GLC5        0.0000 
     38 CA         20.9745   62.2605   -7.2480 C.3       4 GLC5        0.0000 
     39 CA         21.9950   63.7410   -8.0770 C.3      12 GLL5        0.0000 
     40 CA         19.9540   60.7800   -6.4190 C.3       8 GLP5        0.0000 
     41 O          23.2085   61.6835   -9.4230 O.2       1 ALC1        0.0000 
     42 O          23.6250   63.0120   -9.7450 O.2       9 ALL1        0.0000 
     43 O          22.7920   60.3550   -9.1010 O.2       5 ALP1        0.0000 
     44 O          22.9190   61.6980  -10.4855 O.2       1 ALC1        0.0000 
     45 O          22.2130   60.3840  -11.2260 O.2       5 ALP1        0.0000 
     46 CA         21.2725   65.0900  -11.8775 C.3       4 GLC5        0.0000 
     47 CA         21.3570   63.6720  -10.4080 C.3      12 GLL5        0.0000 
     48 CA         21.1880   66.5080  -13.3470 C.3       8 GLP5        0.0000 
     49 O          21.9390   61.6040  -11.3555 O.2       1 ALC1        0.0000 
     50 O          21.6650   62.8240  -11.4850 O.2       9 ALL1        0.0000 
     51 CA         20.1760   61.8660   -7.9495 C.3       4 GLC5        0.0000 
     52 CA         20.3980   62.9520   -9.4800 C.3      12 GLL5        0.0000 
     53 CA         19.3765   64.6015   -8.4695 C.3       4 GLC5        0.0000 
     54 CA         18.3550   66.2510   -7.4590 C.3       8 GLP5        0.0000 
     55 CA         15.1815   59.3115  -11.1430 C.3       4 GLC5        0.0000 
     56 CA         15.9290   61.3330  -10.6340 C.3      12 GLL5        0.0000 
     57 CA         14.4340   57.2900  -11.6520 C.3       8 GLP5        0.0000 
     58 O          13.7915   60.6580  -11.5380 O.2       1 ALC1        0.0000 
     59 O          14.7310   61.6640  -11.1230 O.2       9 ALL1        0.0000 
     60 O          12.8520   59.6520  -11.9530 O.2       5 ALP1        0.0000 
     61 N          15.0775   59.0635   -9.8205 N.am      2 SEC2        0.0000 
     62 N          16.1690   60.0270  -10.2720 N.am     10 SEL2        0.0000 
     63 N          13.9860   58.1000   -9.3690 N.am      6 SEP2        0.0000 
     64 CA         18.6740   60.2020   -8.0920 C.3       4 GLC5        0.0000 
     65 CA         17.3940   59.6240   -9.7650 C.3      12 GLL5        0.0000 
     66 CA         19.1490   58.5185   -9.6055 C.3       4 GLC5        0.0000 
     67 CA         20.9040   57.4130   -9.4460 C.3       8 GLP5        0.0000 
     68 CA         17.9425   59.4925  -11.4140 C.3       4 GLC5        0.0000 
     69 CA         18.4910   59.3610  -13.0630 C.3       8 GLP5        0.0000 
     70 CA         15.9140   58.4570  -10.7085 C.3       4 GLC5        0.0000 
     71 CA         15.7070   59.1695   -8.3605 C.3       4 GLC5        0.0000 
     72 CA         14.0200   58.7150   -6.9560 C.3       8 GLP5        0.0000 
     73 N          19.1935   59.4180  -10.5700 N.am      2 SEC2        0.0000 
     74 N          18.3940   60.5670   -9.6360 N.am     10 SEL2        0.0000 
     75 N          19.9930   58.2690  -11.5040 N.am      6 SEP2        0.0000 
     76 CA         19.0700   61.3200   -8.2030 C.3       4 GLC5        0.0000 
     77 CA         18.1860   61.8600   -9.9870 C.3      12 GLL5        0.0000 
     78 CA         18.3385   60.6105  -11.5250 C.3       4 GLC5        0.0000 
     79 CA         25.0377   66.5655   -8.1647 C.3       4 GLC5        0.0000 
     80 CA         23.9050   65.2620   -6.7670 C.3      12 GLL5        0.0000 
     81 CA         26.1870   66.9830   -9.7560 C.3       8 GLP5        0.0000 
     82 CA         20.2240   65.3178   -7.5720 C.3       4 GLC5        0.0000 
     83 CA         22.1910   65.0280   -7.2930 C.3      12 GLL5        0.0000 
     84 CA         16.3822   60.9675  -12.2888 C.3       4 GLC5        0.0000 
     85 CA         16.9520   62.2690  -10.4970 C.3      12 GLL5        0.0000 
     86 CA         16.3240   60.1340  -14.0120 C.3       8 GLP5        0.0000 
@<TRIPOS>BOND
@<TRIPOS>SUBSTRUCTURE
     1 ALC1        6 GROUP        1 X    ALC  0     ROOT ALC X 1
     2 SEC2       18 GROUP        1 X    SEC  0     **** SEC X 2
     3 ASC3        1 GROUP        1 X    ASC  0     **** ASC X 3
     4 GLC5       13 GROUP        1 X    GLC  0     **** GLC X 6
     5 ALP1        8 GROUP        1 Y    ALP  0     ROOT ALP Y 8
     6 SEP2       20 GROUP        1 Y    SEP  0     **** SEP Y 9
     7 ASP3        3 GROUP        1 Y    ASP  0     **** ASP Y 10
     8 GLP5       15 GROUP        1 Y    GLP  0     **** GLP Y 13
     9 ALL1        7 GROUP        1 Z    ALL  0     ROOT ALL Z 15
    10 SEL2       19 GROUP        1 Z    SEL  0     **** SEL Z 16
    11 ASL3        2 GROUP        1 Z    ASL  0     **** ASL Z 17
    12 GLL5       14 GROUP        1 Z    GLL  0     **** GLL Z 20
@<TRIPOS>SET

