#    Name: 3qow_SAM_1_ligand
#    Modification time : Tue Mar 25 09:59:21 2014

@<TRIPOS>MOLECULE
3qow_SAM_1_ligand
   50    52     1     0     0
SMALL
NO_CHARGES


@<TRIPOS>ATOM
      1 N          23.5640   62.1640   -3.2720 N.4       1 SAM417      0.0000 
      2 CA         24.9460   62.5820   -3.6710 C.3       1 SAM417      0.0000 
      3 C          25.5400   63.5130   -2.6050 C.2       1 SAM417      0.0000 
      4 O          24.7940   64.2340   -1.9170 O.co2     1 SAM417      0.0000 
      5 OXT        26.7650   63.5700   -2.4140 O.co2     1 SAM417      0.0000 
      6 CB         24.9130   63.2620   -5.0470 C.3       1 SAM417      0.0000 
      7 CG         23.9190   64.4390   -5.1540 C.3       1 SAM417      0.0000 
      8 SD         23.9050   65.2620   -6.7670 S.3       1 SAM417      0.0000 
      9 CE         23.8720   67.0340   -6.3800 C.3       1 SAM417      0.0000 
     10 C5'        22.1910   65.0280   -7.2930 C.3       1 SAM417      0.0000 
     11 C4'        21.9950   63.7410   -8.0770 C.3       1 SAM417      0.0000 
     12 O4'        20.5950   63.5330   -8.2080 O.3       1 SAM417      0.0000 
     13 C3'        22.5500   63.8960   -9.4860 C.3       1 SAM417      0.0000 
     14 O3'        23.6250   63.0120   -9.7450 O.3       1 SAM417      0.0000 
     15 C2'        21.3570   63.6720  -10.4080 C.3       1 SAM417      0.0000 
     16 O2'        21.6650   62.8240  -11.4850 O.3       1 SAM417      0.0000 
     17 C1'        20.3980   62.9520   -9.4800 C.3       1 SAM417      0.0000 
     18 N9         18.9970   62.9590   -9.9500 N.pl3     1 SAM417      0.0000 
     19 C8         18.2760   64.0270  -10.4270 C.2       1 SAM417      0.0000 
     20 N7         17.0360   63.5890  -10.7560 N.2       1 SAM417      0.0000 
     21 C5         16.9520   62.2690  -10.4970 C.ar      1 SAM417      0.0000 
     22 C6         15.9290   61.3330  -10.6340 C.ar      1 SAM417      0.0000 
     23 N6         14.7310   61.6640  -11.1230 N.pl3     1 SAM417      0.0000 
     24 N1         16.1690   60.0270  -10.2720 N.ar      1 SAM417      0.0000 
     25 C2         17.3940   59.6240   -9.7650 C.ar      1 SAM417      0.0000 
     26 N3         18.3940   60.5670   -9.6360 N.ar      1 SAM417      0.0000 
     27 C4         18.1860   61.8600   -9.9870 C.ar      1 SAM417      0.0000 
     28 H          25.5751   61.7024   -3.7419 H         1 SAM417      0.0000 
     29 H          24.6529   62.5118   -5.8109 H         1 SAM417      0.0000 
     30 H          25.9227   63.6316   -5.2879 H         1 SAM417      0.0000 
     31 H          24.1512   65.2478   -4.4798 H         1 SAM417      0.0000 
     32 H          22.8916   64.1333   -5.0375 H         1 SAM417      0.0000 
     33 H          22.0042   65.9149   -7.8679 H         1 SAM417      0.0000 
     34 H          21.6598   65.0491   -6.3606 H         1 SAM417      0.0000 
     35 H          22.4761   62.9446   -7.5897 H         1 SAM417      0.0000 
     36 H          22.8388   64.9425   -9.5948 H         1 SAM417      0.0000 
     37 H          20.9413   64.5964  -10.6615 H         1 SAM417      0.0000 
     38 H          20.7581   61.8969   -9.4463 H         1 SAM417      0.0000 
     39 H          18.6035   64.9242  -10.5089 H         1 SAM417      0.0000 
     40 H          14.0657   60.9212  -11.1977 H         1 SAM417      0.0000 
     41 H          14.6070   62.6249  -11.3705 H         1 SAM417      0.0000 
     42 H          17.5508   58.6534   -9.4943 H         1 SAM417      0.0000 
     43 H          23.5614   61.6732   -2.4007 H         1 SAM417      0.0000 
     44 H          22.9540   62.9495   -3.1677 H         1 SAM417      0.0000 
     45 H          23.1487   61.5584   -3.9508 H         1 SAM417      0.0000 
     46 H          24.6705   67.3125   -5.8463 H         1 SAM417      0.0000 
     47 H          23.8626   67.5948   -7.2079 H         1 SAM417      0.0000 
     48 H          23.0626   67.2830   -5.8481 H         1 SAM417      0.0000 
     49 H          23.2736   62.1038   -9.5176 H         1 SAM417      0.0000 
     50 H          21.8547   61.9350  -11.0682 H         1 SAM417      0.0000 
@<TRIPOS>BOND
     1    2    1 1    
     2   43    1 1    
     3   44    1 1    
     4   45    1 1    
     5    3    2 1    
     6    6    2 1    
     7   28    2 1    
     8    4    3 ar   
     9    5    3 ar   
    10    7    6 1    
    11   29    6 1    
    12   30    6 1    
    13    8    7 1    
    14   31    7 1    
    15   32    7 1    
    16    9    8 1    
    17   10    8 1    
    18   46    9 1    
    19   47    9 1    
    20   48    9 1    
    21   11   10 1    
    22   33   10 1    
    23   34   10 1    
    24   12   11 1    
    25   13   11 1    
    26   35   11 1    
    27   17   12 1    
    28   14   13 1    
    29   15   13 1    
    30   36   13 1    
    31   49   14 1    
    32   16   15 1    
    33   17   15 1    
    34   37   15 1    
    35   50   16 1    
    36   18   17 1    
    37   38   17 1    
    38   19   18 1    
    39   27   18 1    
    40   20   19 2    
    41   39   19 1    
    42   21   20 1    
    43   22   21 ar   
    44   27   21 ar   
    45   23   22 1    
    46   24   22 ar   
    47   40   23 1    
    48   41   23 1    
    49   25   24 ar   
    50   26   25 ar   
    51   42   25 1    
    52   27   26 ar   
@<TRIPOS>SUBSTRUCTURE
     1 SAM417      1 GROUP   
@<TRIPOS>SET

