#    Name: 2q5p_241_1_INTS_M
#    Modification time : Mon Mar 24 20:48:38 2014

@<TRIPOS>MOLECULE
2q5p_241_1_INTS_M
  101     0     6     0     0
SMALL
NO_CHARGES


@<TRIPOS>ATOM
      1 CA         -5.4220   56.3970   75.0440 C.3       2 GLC5        0.0000 
      2 CA         -3.7760   56.8650   74.4910 C.3       6 GLL5        0.0000 
      3 CA         -7.0680   55.9290   75.5970 C.3       4 GLP5        0.0000 
      4 CA         -2.7880   58.3610   74.8570 C.3       2 GLC5        0.0000 
      5 CA         -1.8000   59.8570   75.2230 C.3       4 GLP5        0.0000 
      6 CA         -4.2995   56.0340   76.1480 C.3       2 GLC5        0.0000 
      7 CA         -4.8230   55.2030   77.8050 C.3       4 GLP5        0.0000 
      8 CA         -4.2760   54.9080   74.2375 C.3       2 GLC5        0.0000 
      9 CA         -4.7760   52.9510   73.9840 C.3       4 GLP5        0.0000 
     10 CA         -0.6280   55.9870   74.3910 C.3       2 GLC5        0.0000 
     11 CA         -2.0210   56.9200   72.9950 C.3       6 GLL5        0.0000 
     12 CA          0.7650   55.0540   75.7870 C.3       4 GLP5        0.0000 
     13 CA          0.2330   55.2435   71.2885 C.3       2 GLC5        0.0000 
     14 CA         -0.7610   56.5640   72.4990 C.3       6 GLL5        0.0000 
     15 CA          1.2270   53.9230   70.0780 C.3       4 GLP5        0.0000 
     16 CA          1.1475   55.9225   71.0985 C.3       2 GLC5        0.0000 
     17 CA         -0.1810   57.3040   71.4670 C.3       6 GLL5        0.0000 
     18 CA          2.4760   54.5410   70.7300 C.3       4 GLP5        0.0000 
     19 CA          2.3415   58.1220   66.1475 C.3       2 GLC5        0.0000 
     20 CA          1.1310   59.5640   67.0870 C.3       6 GLL5        0.0000 
     21 CA          3.5520   56.6800   65.2080 C.3       4 GLP5        0.0000 
     22 CA          0.9310   60.5855   65.1795 C.3       2 GLC5        0.0000 
     23 CA          0.7310   61.6070   63.2720 C.3       4 GLP5        0.0000 
     24 CA          4.9190   56.8500   72.4390 C.3       2 GLC5        0.0000 
     25 CA          5.0830   58.1050   74.2560 C.3       6 GLL5        0.0000 
     26 CA          4.7550   55.5950   70.6220 C.3       4 GLP5        0.0000 
     27 CA          5.5470   57.0300   71.5685 C.3       2 GLC5        0.0000 
     28 CA          6.3390   58.4650   72.5150 C.3       6 GLL5        0.0000 
     29 CA          7.3615   58.3255   70.9790 C.3       2 GLC5        0.0000 
     30 CA          8.3840   58.1860   69.4430 C.3       4 GLP5        0.0000 
     31 CA          7.7975   57.0740   73.2700 C.3       2 GLC5        0.0000 
     32 CA          9.2560   55.6830   74.0250 C.3       4 GLP5        0.0000 
     33 CA          8.0575   57.5070   74.2395 C.3       2 GLC5        0.0000 
     34 CA          6.8590   59.3310   74.4540 C.3       6 GLL5        0.0000 
     35 CA          8.5020   59.0755   75.3480 C.3       2 GLC5        0.0000 
     36 CA         10.1450   58.8200   76.2420 C.3       4 GLP5        0.0000 
     37 CA          2.0055   61.6415   70.6075 C.3       2 GLC5        0.0000 
     38 CA          3.1740   59.8860   70.1570 C.3       6 GLL5        0.0000 
     39 CA          0.8370   63.3970   71.0580 C.3       4 GLP5        0.0000 
     40 CA          4.8365   59.0440   65.9855 C.3       2 GLC5        0.0000 
     41 CA          4.2040   60.0690   67.7360 C.3       6 GLL5        0.0000 
     42 CA          5.4690   58.0190   64.2350 C.3       4 GLP5        0.0000 
     43 CA          5.8210   58.6075   68.0450 C.3       2 GLC5        0.0000 
     44 CA          7.4380   57.1460   68.3540 C.3       4 GLP5        0.0000 
     45 CA          1.9165   63.1605   68.6005 C.3       2 GLC5        0.0000 
     46 CA          3.6480   62.6020   67.4840 C.3       6 GLL5        0.0000 
     47 CA          0.1850   63.7190   69.7170 C.3       4 GLP5        0.0000 
     48 CA          5.5920   59.8640   65.4165 C.3       2 GLC5        0.0000 
     49 CA          5.7150   61.7090   66.5980 C.3       6 GLL5        0.0000 
     50 CA          7.0780   62.9470   64.4165 C.3       2 GLC5        0.0000 
     51 CA          6.0730   62.9730   66.1370 C.3       6 GLL5        0.0000 
     52 CA          8.0830   62.9210   62.6960 C.3       4 GLP5        0.0000 
     53 CA          1.1430   64.5490   68.0135 C.3       2 GLC5        0.0000 
     54 CA          2.1010   65.3790   66.3100 C.3       6 GLL5        0.0000 
     55 N          -0.4630   64.2425   65.2580 N.am      1 SEC2        0.0000 
     56 N          -0.2160   64.9530   66.7980 N.am      5 SEL2        0.0000 
     57 N          -0.7100   63.5320   63.7180 N.am      3 SEP2        0.0000 
     58 N           0.1485   63.3810   64.9555 N.am      1 SEC2        0.0000 
     59 N           1.0070   63.2300   66.1930 N.am      5 SEL2        0.0000 
     60 CA         -1.5955   58.2995   73.9850 C.3       2 GLC5        0.0000 
     61 CA         -1.9370   54.8365   72.7185 C.3       2 GLC5        0.0000 
     62 CA         -2.4830   52.9310   72.6900 C.3       4 GLP5        0.0000 
     63 CA          0.8330   56.9725   73.4800 C.3       2 GLC5        0.0000 
     64 CA          2.1370   57.0110   74.9770 C.3       4 GLP5        0.0000 
     65 CA         -0.8222   57.3137   69.1790 C.3       2 GLC5        0.0000 
     66 CA         -1.1280   56.7740   67.1640 C.3       4 GLP5        0.0000 
     67 CA         -2.0993   59.1160   73.5747 C.3       2 GLC5        0.0000 
     68 CA         -2.1050   58.7420   71.4140 C.3       6 GLL5        0.0000 
     69 CA          2.1863   57.9560   68.3960 C.3       2 GLC5        0.0000 
     70 CA          1.7180   59.6520   68.5010 C.3       6 GLL5        0.0000 
     71 CA          2.9480   56.3040   68.9980 C.3       4 GLP5        0.0000 
     72 CA          0.1483   58.1910   67.4790 C.3       2 GLC5        0.0000 
     73 CA          1.7982   61.0540   73.9718 C.3       2 GLC5        0.0000 
     74 CA          1.7190   59.6300   72.0690 C.3       6 GLL5        0.0000 
     75 CA          1.3390   62.3910   75.4460 C.3       4 GLP5        0.0000 
     76 CA          1.5696   61.5611   71.6044 C.3       2 GLC5        0.0000 
     77 CA          2.7960   59.8040   72.9260 C.3       6 GLL5        0.0000 
     78 CA          5.1985   61.6947   71.3445 C.3       2 GLC5        0.0000 
     79 CA          4.0680   60.0150   72.4060 C.3       6 GLL5        0.0000 
     80 CA          6.2360   63.3510   70.9750 C.3       4 GLP5        0.0000 
     81 CA          2.6499   58.4385   73.7144 C.3       2 GLC5        0.0000 
     82 CA          3.8025   57.7815   74.4592 C.3       2 GLC5        0.0000 
     83 CA          6.1973   57.2078   75.1814 C.3       2 GLC5        0.0000 
     84 CA          6.2310   55.4740   76.1650 C.3       4 GLP5        0.0000 
     85 CA          3.1715   58.1111   69.8594 C.3       2 GLC5        0.0000 
     86 CA          4.2540   60.0620   71.0220 C.3       6 GLL5        0.0000 
     87 CA          3.2905   58.1423   68.6248 C.3       2 GLC5        0.0000 
     88 CA          3.0620   59.8920   68.7670 C.3       6 GLL5        0.0000 
     89 CA          5.6608   61.9205   68.4385 C.3       2 GLC5        0.0000 
     90 CA          6.9660   63.0500   69.3710 C.3       4 GLP5        0.0000 
     91 CA          3.8072   61.2060   65.6030 C.3       2 GLC5        0.0000 
     92 CA          4.5070   61.5130   67.2760 C.3       6 GLL5        0.0000 
     93 CA          3.2590   61.6210   63.7000 C.3       4 GLP5        0.0000 
     94 CA          7.4135   64.3160   66.1993 C.3       2 GLC5        0.0000 
     95 CA          9.1820   65.1180   66.1540 C.3       4 GLP5        0.0000 
     96 CA          2.1925   63.9563   64.3495 C.3       2 GLC5        0.0000 
     97 CA          2.5390   65.6400   64.8500 C.3       6 GLL5        0.0000 
     98 CA          2.0650   62.4030   63.1190 C.3       4 GLP5        0.0000 
     99 CA          6.0864   63.0221   67.9771 C.3       2 GLC5        0.0000 
    100 CA          5.2170   64.0550   66.3520 C.3       6 GLL5        0.0000 
    101 CA          4.2329   62.3076   65.1416 C.3       2 GLC5        0.0000 
@<TRIPOS>BOND
@<TRIPOS>SUBSTRUCTURE
     1 SEC2       55 GROUP        1 X    SEC  0     ROOT SEC X 2
     2 GLC5        1 GROUP        1 X    GLC  0     **** GLC X 6
     3 SEP2       57 GROUP        1 Y    SEP  0     ROOT SEP Y 9
     4 GLP5        3 GROUP        1 Y    GLP  0     **** GLP Y 13
     5 SEL2       56 GROUP        1 Z    SEL  0     ROOT SEL Z 16
     6 GLL5        2 GROUP        1 Z    GLL  0     **** GLL Z 20
@<TRIPOS>SET

