#    Name: 2q5p_241_1_ligand
#    Modification time : Mon Mar 24 20:48:38 2014

@<TRIPOS>MOLECULE
2q5p_241_1_ligand
   61    64     1     0     0
SMALL
NO_CHARGES


@<TRIPOS>ATOM
      1 CAA        -3.7760   56.8650   74.4910 C.3       1 2415001     0.0000 
      2 OAV        -2.6130   56.2080   73.9950 O.3       1 2415001     0.0000 
      3 CBC        -2.0210   56.9200   72.9950 C.ar      1 2415001     0.0000 
      4 CAM        -0.7610   56.5640   72.4990 C.ar      1 2415001     0.0000 
      5 CAO        -0.1810   57.3040   71.4670 C.ar      1 2415001     0.0000 
      6 CAN        -2.6920   58.0080   72.4390 C.ar      1 2415001     0.0000 
      7 CAP        -2.1050   58.7420   71.4140 C.ar      1 2415001     0.0000 
      8 CBF        -0.8520   58.4030   70.9210 C.ar      1 2415001     0.0000 
      9 CAZ        -0.2870   59.2910   69.7910 C.2       1 2415001     0.0000 
     10 OAE        -1.0780   59.8330   69.0220 O.2       1 2415001     0.0000 
     11 NBK         1.0440   59.5190   69.6560 N.am      1 2415001     0.0000 
     12 CBB         1.7180   59.6520   68.5010 C.2       1 2415001     0.0000 
     13 CAB         1.1310   59.5640   67.0870 C.3       1 2415001     0.0000 
     14 CBI         1.8980   59.6630   70.6820 C.ar      1 2415001     0.0000 
     15 CAR         1.7190   59.6300   72.0690 C.ar      1 2415001     0.0000 
     16 CAQ         2.7960   59.8040   72.9260 C.ar      1 2415001     0.0000 
     17 CBE         4.0680   60.0150   72.4060 C.ar      1 2415001     0.0000 
     18 OAX         5.1180   60.1980   73.2580 O.3       1 2415001     0.0000 
     19 CBL         5.8530   58.9990   73.6270 C.3       1 2415001     0.0000 
     20 FAI         5.0830   58.1050   74.2560 F         1 2415001     0.0000 
     21 FAG         6.3390   58.4650   72.5150 F         1 2415001     0.0000 
     22 FAH         6.8590   59.3310   74.4540 F         1 2415001     0.0000 
     23 CAT         4.2540   60.0620   71.0220 C.ar      1 2415001     0.0000 
     24 CBH         3.1740   59.8860   70.1570 C.ar      1 2415001     0.0000 
     25 CBG         3.0620   59.8920   68.7670 C.2       1 2415001     0.0000 
     26 CAU         4.2040   60.0690   67.7360 C.3       1 2415001     0.0000 
     27 CBA         4.5070   61.5130   67.2760 C.ar      1 2415001     0.0000 
     28 CAS         3.6480   62.6020   67.4840 C.ar      1 2415001     0.0000 
     29 CAK         5.7150   61.7090   66.5980 C.ar      1 2415001     0.0000 
     30 CAJ         6.0730   62.9730   66.1370 C.ar      1 2415001     0.0000 
     31 CAL         5.2170   64.0550   66.3520 C.ar      1 2415001     0.0000 
     32 CBD         3.9970   63.8770   67.0080 C.ar      1 2415001     0.0000 
     33 OAW         3.2010   64.9770   67.2130 O.3       1 2415001     0.0000 
     34 CBJ         2.1010   65.3790   66.3100 C.3       1 2415001     0.0000 
     35 CAC         2.5390   65.6400   64.8500 C.3       1 2415001     0.0000 
     36 CAY         0.8690   64.4440   66.4360 C.2       1 2415001     0.0000 
     37 OAD        -0.2160   64.9530   66.7980 O.co2     1 2415001     0.0000 
     38 OAF         1.0070   63.2300   66.1930 O.co2     1 2415001     0.0000 
     39 H          -0.2648   55.7580   72.8956 H         1 2415001     0.0000 
     40 H           0.7452   57.0403   71.1053 H         1 2415001     0.0000 
     41 H          -3.6242   58.2676   72.7890 H         1 2415001     0.0000 
     42 H          -2.6098   59.5520   71.0137 H         1 2415001     0.0000 
     43 H           0.7739   59.4743   72.4538 H         1 2415001     0.0000 
     44 H           2.6552   59.7772   73.9440 H         1 2415001     0.0000 
     45 H           5.1953   60.2278   70.6390 H         1 2415001     0.0000 
     46 H           3.9656   59.4565   66.8407 H         1 2415001     0.0000 
     47 H           5.1320   59.6330   68.1629 H         1 2415001     0.0000 
     48 H           2.7634   62.4686   67.9842 H         1 2415001     0.0000 
     49 H           6.3442   60.9076   66.4397 H         1 2415001     0.0000 
     50 H           6.9597   63.1105   65.6423 H         1 2415001     0.0000 
     51 H           5.4878   64.9936   66.0237 H         1 2415001     0.0000 
     52 H           1.7253   66.3939   66.6914 H         1 2415001     0.0000 
     53 H          -3.5620   57.7681   74.8634 H         1 2415001     0.0000 
     54 H          -4.4612   56.9980   73.7749 H         1 2415001     0.0000 
     55 H          -4.2141   56.3426   75.2225 H         1 2415001     0.0000 
     56 H           1.8310   59.6968   66.3853 H         1 2415001     0.0000 
     57 H           0.7086   58.6741   66.9149 H         1 2415001     0.0000 
     58 H           0.4269   60.2573   66.9334 H         1 2415001     0.0000 
     59 H           3.2178   66.3719   64.7911 H         1 2415001     0.0000 
     60 H           2.9472   64.8275   64.4338 H         1 2415001     0.0000 
     61 H           1.7675   65.9086   64.2732 H         1 2415001     0.0000 
@<TRIPOS>BOND
     1    2    1 1    
     2   53    1 1    
     3   54    1 1    
     4   55    1 1    
     5    3    2 1    
     6    4    3 ar   
     7    6    3 ar   
     8    5    4 ar   
     9   39    4 1    
    10    8    5 ar   
    11   40    5 1    
    12    7    6 ar   
    13   41    6 1    
    14    8    7 ar   
    15   42    7 1    
    16    9    8 1    
    17   10    9 2    
    18   11    9 am   
    19   12   11 1    
    20   14   11 1    
    21   13   12 1    
    22   25   12 2    
    23   56   13 1    
    24   57   13 1    
    25   58   13 1    
    26   15   14 ar   
    27   24   14 ar   
    28   16   15 ar   
    29   43   15 1    
    30   17   16 ar   
    31   44   16 1    
    32   18   17 1    
    33   23   17 ar   
    34   19   18 1    
    35   20   19 1    
    36   21   19 1    
    37   22   19 1    
    38   24   23 ar   
    39   45   23 1    
    40   25   24 1    
    41   26   25 1    
    42   27   26 1    
    43   46   26 1    
    44   47   26 1    
    45   28   27 ar   
    46   29   27 ar   
    47   32   28 ar   
    48   48   28 1    
    49   30   29 ar   
    50   49   29 1    
    51   31   30 ar   
    52   50   30 1    
    53   32   31 ar   
    54   51   31 1    
    55   33   32 1    
    56   34   33 1    
    57   35   34 1    
    58   36   34 1    
    59   52   34 1    
    60   59   35 1    
    61   60   35 1    
    62   61   35 1    
    63   37   36 ar   
    64   38   36 ar   
@<TRIPOS>SUBSTRUCTURE
     1 2415001     1 GROUP   
@<TRIPOS>SET

