#    Name: 3edz_550_2_INTS_M
#    Modification time : Tue Mar 25 01:35:31 2014

@<TRIPOS>MOLECULE
3edz_550_2_INTS_M
   85     0    12     0     0
SMALL
NO_CHARGES


@<TRIPOS>ATOM
      1 Zn         52.3985   34.5600   39.8260 Zn        3 ZIC7        0.0000 
      2 Zn         51.7730   34.0070   39.2040 Zn       11 ZIL7        0.0000 
      3 Zn         53.0240   35.1130   40.4480 Zn        7 ZIP7        0.0000 
      4 Zn         52.1300   35.6255   40.3695 Zn        3 ZIC7        0.0000 
      5 Zn         51.2360   36.1380   40.2910 Zn       11 ZIL7        0.0000 
      6 O          50.4025   37.0560   41.0015 O.2       1 ALC1        0.0000 
      7 O          51.2360   36.1380   40.2910 O.2       9 ALL1        0.0000 
      8 O          49.5690   37.9740   41.7120 O.2       5 ALP1        0.0000 
      9 N          45.9780   31.9400   39.7275 N.am      2 SEC2        0.0000 
     10 N          47.3450   31.7800   39.4480 N.am     10 SEL2        0.0000 
     11 N          44.6110   32.1000   40.0070 N.am      6 SEP2        0.0000 
     12 CA         47.4570   33.3145   37.9235 C.3       4 GLC5        0.0000 
     13 CA         49.5440   33.3280   38.7330 C.3      12 GLL5        0.0000 
     14 CA         45.3700   33.3010   37.1140 C.3       8 GLP5        0.0000 
     15 O          48.5910   35.5965   39.5240 O.2       1 ALC1        0.0000 
     16 O          50.1300   35.3620   39.8570 O.2       9 ALL1        0.0000 
     17 O          47.0520   35.8310   39.1910 O.2       5 ALP1        0.0000 
     18 CA         46.0550   30.0560   39.0525 C.3       4 GLC5        0.0000 
     19 CA         47.4310   29.1240   40.2420 C.3      12 GLL5        0.0000 
     20 CA         44.6790   30.9880   37.8630 C.3       8 GLP5        0.0000 
     21 CA         45.7755   29.7445   41.3670 C.3       4 GLC5        0.0000 
     22 CA         44.1200   30.3650   42.4920 C.3       8 GLP5        0.0000 
     23 CA         48.1460   28.5095   41.8745 C.3       4 GLC5        0.0000 
     24 CA         48.8610   27.8950   43.5070 C.3       8 GLP5        0.0000 
     25 CA         52.2310   28.9770   41.6365 C.3       4 GLC5        0.0000 
     26 CA         51.5580   30.8400   42.4140 C.3      12 GLL5        0.0000 
     27 CA         52.9040   27.1140   40.8590 C.3       8 GLP5        0.0000 
     28 CA         50.8855   29.0020   42.9940 C.3       4 GLC5        0.0000 
     29 CA         50.2130   27.1640   43.5740 C.3       8 GLP5        0.0000 
     30 CA         48.3920   33.3305   45.0900 C.3       4 GLC5        0.0000 
     31 CA         49.4690   32.4890   43.3530 C.3      12 GLL5        0.0000 
     32 CA         47.3150   34.1720   46.8270 C.3       8 GLP5        0.0000 
     33 CA         51.2870   33.1580   46.1785 C.3       4 GLC5        0.0000 
     34 CA         51.0760   31.3770   46.5290 C.3      12 GLL5        0.0000 
     35 CA         51.4980   34.9390   45.8280 C.3       8 GLP5        0.0000 
     36 CA         52.1600   32.3845   47.9045 C.3       4 GLC5        0.0000 
     37 CA         53.2440   33.3920   49.2800 C.3       8 GLP5        0.0000 
     38 CA         53.7235   30.5500   47.7900 C.3       4 GLC5        0.0000 
     39 CA         52.2480   29.1810   46.8740 C.3      12 GLL5        0.0000 
     40 CA         55.1990   31.9190   48.7060 C.3       8 GLP5        0.0000 
     41 N          51.1200   25.3995   46.9090 N.am      2 SEC2        0.0000 
     42 N          51.1260   27.0790   47.1850 N.am     10 SEL2        0.0000 
     43 N          51.1140   23.7200   46.6330 N.am      6 SEP2        0.0000 
     44 CA         50.0725   27.4440   45.3300 C.3       4 GLC5        0.0000 
     45 CA         49.9320   27.7240   47.0860 C.3      12 GLL5        0.0000 
     46 CA         49.8440   25.0940   47.5945 C.3       4 GLC5        0.0000 
     47 CA         48.7560   26.9850   47.2020 C.3      12 GLL5        0.0000 
     48 CA         50.9320   23.2030   47.9870 C.3       8 GLP5        0.0000 
     49 CA         45.8635   27.3270   48.3415 C.3       4 GLC5        0.0000 
     50 CA         47.4870   27.5860   47.0920 C.3      12 GLL5        0.0000 
     51 CA         44.2400   27.0680   49.5910 C.3       8 GLP5        0.0000 
     52 CA         46.1595   29.3195   45.2185 C.3       4 GLC5        0.0000 
     53 CA         47.3930   28.9740   46.8640 C.3      12 GLL5        0.0000 
     54 CA         44.9260   29.6650   43.5730 C.3       8 GLP5        0.0000 
     55 CA         45.6695   28.7445   48.0435 C.3       4 GLC5        0.0000 
     56 CA         43.9460   28.5150   49.2230 C.3       8 GLP5        0.0000 
     57 CA         55.5895   26.4695   47.2915 C.3       4 GLC5        0.0000 
     58 CA         53.5830   27.0920   47.2490 C.3      12 GLL5        0.0000 
     59 CA         57.5960   25.8470   47.3340 C.3       8 GLP5        0.0000 
     60 CA         55.0405   27.7080   45.9295 C.3       4 GLC5        0.0000 
     61 CA         56.4980   28.3240   44.6100 C.3       8 GLP5        0.0000 
     62 CA         53.6415   25.3495   45.8650 C.3       4 GLC5        0.0000 
     63 CA         53.7000   23.6070   44.4810 C.3       8 GLP5        0.0000 
     64 CA         52.9270   25.1390   47.9900 C.3       4 GLC5        0.0000 
     65 CA         52.2710   23.1860   48.7310 C.3       8 GLP5        0.0000 
     66 CA         49.8287   29.6315   43.7700 C.3       4 GLC5        0.0000 
     67 CA         50.2810   31.7890   44.2710 C.3      12 GLL5        0.0000 
     68 CA         51.5230   32.9951   44.1059 C.3       4 GLC5        0.0000 
     69 CA         52.1880   34.6490   44.5240 C.3       8 GLP5        0.0000 
     70 CA         50.9127   33.6754   42.9156 C.3       4 GLC5        0.0000 
     71 CA         51.9880   35.1400   43.2730 C.3       8 GLP5        0.0000 
     72 CA         49.9613   30.9745   48.2970 C.3       4 GLC5        0.0000 
     73 CA         48.8740   31.3240   49.9600 C.3       8 GLP5        0.0000 
     74 CA         51.0774   27.9160   45.2631 C.3       4 GLC5        0.0000 
     75 CA         51.0210   29.8730   46.7390 C.3      12 GLL5        0.0000 
     76 CA         48.6542   28.2116   48.9580 C.3       4 GLC5        0.0000 
     77 CA         48.8930   28.9530   50.7980 C.3       8 GLP5        0.0000 
     78 CA         48.9078   26.5146   48.8485 C.3       4 GLC5        0.0000 
     79 CA         49.4000   25.5590   50.5790 C.3       8 GLP5        0.0000 
     80 CA         48.5829   30.2673   48.3956 C.3       4 GLC5        0.0000 
     81 CA         49.8260   29.1320   46.8480 C.3      12 GLL5        0.0000 
     82 CA         46.8675   30.8975   46.3328 C.3       4 GLC5        0.0000 
     83 CA         48.5550   29.7620   46.7490 C.3      12 GLL5        0.0000 
     84 CA         45.7610   32.4270   45.8590 C.3       8 GLP5        0.0000 
     85 CA         48.5338   28.0715   45.2481 C.3       4 GLC5        0.0000 
@<TRIPOS>BOND
@<TRIPOS>SUBSTRUCTURE
     1 ALC1        6 GROUP        1 X    ALC  0     ROOT ALC X 1
     2 SEC2        9 GROUP        1 X    SEC  0     **** SEC X 2
     3 ZIC7        1 GROUP        1 X    ZIC  0     **** ZIC X 5
     4 GLC5       12 GROUP        1 X    GLC  0     **** GLC X 6
     5 ALP1        8 GROUP        1 Y    ALP  0     ROOT ALP Y 8
     6 SEP2       11 GROUP        1 Y    SEP  0     **** SEP Y 9
     7 ZIP7        3 GROUP        1 Y    ZIP  0     **** ZIP Y 12
     8 GLP5       14 GROUP        1 Y    GLP  0     **** GLP Y 13
     9 ALL1        7 GROUP        1 Z    ALL  0     ROOT ALL Z 15
    10 SEL2       10 GROUP        1 Z    SEL  0     **** SEL Z 16
    11 ZIL7        2 GROUP        1 Z    ZIL  0     **** ZIL Z 19
    12 GLL5       13 GROUP        1 Z    GLL  0     **** GLL Z 20
@<TRIPOS>SET

