#    Name: 3edz_550_2_ligand
#    Modification time : Tue Mar 25 01:35:31 2014

@<TRIPOS>MOLECULE
3edz_550_2_ligand
   55    58     1     0     0
SMALL
NO_CHARGES


@<TRIPOS>ATOM
      1 O1         51.7730   34.0070   39.2040 O.2       1 5501        0.0000 
      2 O2         51.2360   36.1380   40.2910 O.3       1 5501        0.0000 
      3 O3         48.5930   29.8930   39.9140 O.3       1 5501        0.0000 
      4 O4         47.3450   31.7800   39.4480 O.2       1 5501        0.0000 
      5 O5         50.1150   31.8890   45.6410 O.3       1 5501        0.0000 
      6 C1         49.5440   33.3280   38.7330 C.3       1 5501        0.0000 
      7 C2         49.7410   31.8790   39.2000 C.3       1 5501        0.0000 
      8 C3         49.9430   32.2220   37.7470 C.3       1 5501        0.0000 
      9 C4         48.4180   31.1740   39.5460 C.2       1 5501        0.0000 
     10 C5         50.9500   31.3760   40.0300 C.3       1 5501        0.0000 
     11 C6         50.5720   34.2700   39.2440 C.2       1 5501        0.0000 
     12 N1         50.1300   35.3620   39.8570 N.am      1 5501        0.0000 
     13 C7         47.4310   29.1240   40.2420 C.3       1 5501        0.0000 
     14 C8         50.7310   31.5140   41.5310 C.ar      1 5501        0.0000 
     15 C9         51.5580   30.8400   42.4140 C.ar      1 5501        0.0000 
     16 C10        51.3120   30.9470   43.7950 C.ar      1 5501        0.0000 
     17 C11        50.2810   31.7890   44.2710 C.ar      1 5501        0.0000 
     18 C12        49.4690   32.4890   43.3530 C.ar      1 5501        0.0000 
     19 C13        49.6810   32.3510   41.9960 C.ar      1 5501        0.0000 
     20 C14        51.0760   31.3770   46.5290 C.3       1 5501        0.0000 
     21 C15        51.0210   29.8730   46.7390 C.ar      1 5501        0.0000 
     22 C16        52.2480   29.1810   46.8740 C.ar      1 5501        0.0000 
     23 C17        52.2490   27.8090   47.0980 C.ar      1 5501        0.0000 
     24 N2         51.1260   27.0790   47.1850 N.ar      1 5501        0.0000 
     25 C18        49.8260   29.1320   46.8480 C.ar      1 5501        0.0000 
     26 C19        49.9320   27.7240   47.0860 C.ar      1 5501        0.0000 
     27 C20        48.7560   26.9850   47.2020 C.ar      1 5501        0.0000 
     28 C21        47.4870   27.5860   47.0920 C.ar      1 5501        0.0000 
     29 C22        47.3930   28.9740   46.8640 C.ar      1 5501        0.0000 
     30 C23        48.5550   29.7620   46.7490 C.ar      1 5501        0.0000 
     31 C24        53.5830   27.0920   47.2490 C.3       1 5501        0.0000 
     32 H          48.6020   33.4430   38.6517 H         1 5501        0.0000 
     33 H          50.8731   32.3092   37.5876 H         1 5501        0.0000 
     34 H          49.1621   31.9744   37.2707 H         1 5501        0.0000 
     35 H          51.8354   31.9487   39.7350 H         1 5501        0.0000 
     36 H          51.1280   30.3247   39.7811 H         1 5501        0.0000 
     37 H          49.2174   35.6308   40.0088 H         1 5501        0.0000 
     38 H          52.3356   30.2726   42.0785 H         1 5501        0.0000 
     39 H          51.8796   30.4148   44.4597 H         1 5501        0.0000 
     40 H          48.7228   33.0987   43.7090 H         1 5501        0.0000 
     41 H          49.0962   32.8402   41.3150 H         1 5501        0.0000 
     42 H          50.9934   31.8522   47.5425 H         1 5501        0.0000 
     43 H          52.1183   31.6226   46.1927 H         1 5501        0.0000 
     44 H          53.1276   29.7000   46.8051 H         1 5501        0.0000 
     45 H          48.8103   25.9630   47.3742 H         1 5501        0.0000 
     46 H          46.6427   27.0222   47.1765 H         1 5501        0.0000 
     47 H          46.4695   29.4139   46.7811 H         1 5501        0.0000 
     48 H          48.4926   30.7612   46.5982 H         1 5501        0.0000 
     49 H          47.6664   28.1870   40.5000 H         1 5501        0.0000 
     50 H          46.9270   29.5213   41.0089 H         1 5501        0.0000 
     51 H          46.7952   29.0652   39.4724 H         1 5501        0.0000 
     52 H          54.1535   27.1934   46.4340 H         1 5501        0.0000 
     53 H          54.1098   27.4465   48.0215 H         1 5501        0.0000 
     54 H          53.4622   26.1112   47.4021 H         1 5501        0.0000 
     55 H          50.8525   36.7943   40.9408 H         1 5501        0.0000 
@<TRIPOS>BOND
     1   11    1 2    
     2   12    2 1    
     3   55    2 1    
     4    9    3 1    
     5   13    3 1    
     6    9    4 2    
     7   17    5 1    
     8   20    5 1    
     9    7    6 1    
    10    8    6 1    
    11   11    6 1    
    12   32    6 1    
    13    8    7 1    
    14    9    7 1    
    15   10    7 1    
    16   33    8 1    
    17   34    8 1    
    18   14   10 1    
    19   35   10 1    
    20   36   10 1    
    21   12   11 am   
    22   37   12 1    
    23   49   13 1    
    24   50   13 1    
    25   51   13 1    
    26   15   14 ar   
    27   19   14 ar   
    28   16   15 ar   
    29   38   15 1    
    30   17   16 ar   
    31   39   16 1    
    32   18   17 ar   
    33   19   18 ar   
    34   40   18 1    
    35   41   19 1    
    36   21   20 1    
    37   42   20 1    
    38   43   20 1    
    39   22   21 ar   
    40   25   21 ar   
    41   23   22 ar   
    42   44   22 1    
    43   24   23 ar   
    44   31   23 1    
    45   26   24 ar   
    46   26   25 ar   
    47   30   25 ar   
    48   27   26 ar   
    49   28   27 ar   
    50   45   27 1    
    51   29   28 ar   
    52   46   28 1    
    53   30   29 ar   
    54   47   29 1    
    55   48   30 1    
    56   52   31 1    
    57   53   31 1    
    58   54   31 1    
@<TRIPOS>SUBSTRUCTURE
     1 5501        1 GROUP   
@<TRIPOS>SET

