#    Name: 3lhg_Z81_1_INTS_M
#    Modification time : Mon Mar 24 21:40:24 2014

@<TRIPOS>MOLECULE
3lhg_Z81_1_INTS_M
   46     0    12     0     0
SMALL
NO_CHARGES


@<TRIPOS>ATOM
      1 N          15.1645  -12.9635   17.7885 N.am      2 SEC2        0.0000 
      2 N          15.6220  -11.4310   17.5630 N.am     10 SEL2        0.0000 
      3 N          14.7070  -14.4960   18.0140 N.am      6 SEP2        0.0000 
      4 O          15.0525   -7.4445   14.2250 O.2       1 ALC1        0.0000 
      5 O          14.6990   -6.9240   15.4370 O.2       9 ALL1        0.0000 
      6 O          15.4060   -7.9650   13.0130 O.2       5 ALP1        0.0000 
      7 O          16.0495   -5.5925   13.5310 O.2       1 ALC1        0.0000 
      8 O          16.1690   -5.1750   14.8820 O.2       9 ALL1        0.0000 
      9 O          15.9300   -6.0100   12.1800 O.2       5 ALP1        0.0000 
     10 O          15.7875   -6.5700   13.9475 O.2       1 ALC1        0.0000 
     11 O          16.7675   -3.8815   14.9255 O.2       1 ALC1        0.0000 
     12 O          17.3660   -2.5880   14.9690 O.2       5 ALP1        0.0000 
     13 CA         13.2890  -10.0720   14.9330 C.3       4 GLC5        0.0000 
     14 CA         15.0140   -9.7170   15.9690 C.3      12 GLL5        0.0000 
     15 CA         11.5640  -10.4270   13.8970 C.3       8 GLP5        0.0000 
     16 OD1        15.7875   -6.5700   13.9475 O.co2     3 ASC3        0.0000 
     17 OD1        15.3880   -5.8710   15.7560 O.co2    11 ASL3        0.0000 
     18 OD1        15.9300   -6.0100   12.1800 O.co2     7 ASP3        0.0000 
     19 OD1        15.0525   -7.4445   14.2250 O.co2     3 ASC3        0.0000 
     20 OD1        15.4060   -7.9650   13.0130 O.co2     7 ASP3        0.0000 
     21 OD1        16.7675   -3.8815   14.9255 O.co2     3 ASC3        0.0000 
     22 OD1        17.3660   -2.5880   14.9690 O.co2     7 ASP3        0.0000 
     23 CA         10.8313   -9.1915   15.1830 C.3       4 GLC5        0.0000 
     24 CA          9.7940   -7.3590   16.2630 C.3      12 GLL5        0.0000 
     25 CA          9.8640   -4.3513   11.9172 C.3       4 GLC5        0.0000 
     26 CA         10.3880   -2.5690   12.8550 C.3      12 GLL5        0.0000 
     27 CA          9.5620   -5.8430   10.4200 C.3       8 GLP5        0.0000 
     28 CA         11.8708   -9.2417   15.2855 C.3       4 GLC5        0.0000 
     29 CA         11.7950   -8.6260   16.8110 C.3      12 GLL5        0.0000 
     30 CA          6.9908   -2.5005   14.3515 C.3       4 GLC5        0.0000 
     31 CA          8.4890   -3.1050   15.9030 C.3      12 GLL5        0.0000 
     32 CA          5.2610   -2.1920   13.3870 C.3       8 GLP5        0.0000 
     33 CA          8.7830   -2.6556   12.4339 C.3       4 GLC5        0.0000 
     34 CA          8.9520   -2.5130   14.7290 C.3      12 GLL5        0.0000 
     35 CA          8.0070   -2.6250   10.7960 C.3       8 GLP5        0.0000 
     36 CA          7.1160   -4.7145   16.3215 C.3       4 GLC5        0.0000 
     37 CA          5.5930   -5.5750   16.2470 C.3       8 GLP5        0.0000 
     38 CA         16.7022  -10.1040   15.0128 C.3       4 GLC5        0.0000 
     39 CA         18.1470   -9.8610   13.8930 C.3       8 GLP5        0.0000 
     40 CA         11.0299   -6.8725   14.0440 C.3       4 GLC5        0.0000 
     41 CA         11.9500   -6.3090   16.1310 C.3      12 GLL5        0.0000 
     42 CA         10.9930   -7.1930   11.9580 C.3       8 GLP5        0.0000 
     43 CA         10.6197   -5.9305   13.4675 C.3       4 GLC5        0.0000 
     44 CA         10.4810   -4.3740   14.3880 C.3      12 GLL5        0.0000 
     45 CA         12.1318   -3.5364   13.2546 C.3       4 GLC5        0.0000 
     46 CA         13.9400   -3.4560   12.6080 C.3       8 GLP5        0.0000 
@<TRIPOS>BOND
@<TRIPOS>SUBSTRUCTURE
     1 ALC1        4 GROUP        1 X    ALC  0     ROOT ALC X 1
     2 SEC2        1 GROUP        1 X    SEC  0     **** SEC X 2
     3 ASC3       16 GROUP        1 X    ASC  0     **** ASC X 3
     4 GLC5       13 GROUP        1 X    GLC  0     **** GLC X 6
     5 ALP1        6 GROUP        1 Y    ALP  0     ROOT ALP Y 8
     6 SEP2        3 GROUP        1 Y    SEP  0     **** SEP Y 9
     7 ASP3       18 GROUP        1 Y    ASP  0     **** ASP Y 10
     8 GLP5       15 GROUP        1 Y    GLP  0     **** GLP Y 13
     9 ALL1        5 GROUP        1 Z    ALL  0     ROOT ALL Z 15
    10 SEL2        2 GROUP        1 Z    SEL  0     **** SEL Z 16
    11 ASL3       17 GROUP        1 Z    ASL  0     **** ASL Z 17
    12 GLL5       14 GROUP        1 Z    GLL  0     **** GLL Z 20
@<TRIPOS>SET

