#    Name: 3lhg_Z81_1_ligand
#    Modification time : Mon Mar 24 21:40:24 2014

@<TRIPOS>MOLECULE
3lhg_Z81_1_ligand
   45    48     1     0     0
SMALL
NO_CHARGES


@<TRIPOS>ATOM
      1 C1         10.4030   -8.5530   16.6750 C.ar      1 Z811        0.0000 
      2 F1         10.3880   -2.5690   12.8550 F         1 Z811        0.0000 
      3 N1         15.6220  -11.4310   17.5630 N.ar      1 Z811        0.0000 
      4 O1         14.1740   -6.3220   18.8820 O.2       1 Z811        0.0000 
      5 C2          9.7940   -7.3590   16.2630 C.ar      1 Z811        0.0000 
      6 F2          8.5570   -4.8790   17.4570 F         1 Z811        0.0000 
      7 N2         14.6990   -6.9240   15.4370 N.pl3     1 Z811        0.0000 
      8 C3         11.7950   -8.6260   16.8110 C.ar      1 Z811        0.0000 
      9 N3         15.2620   -5.4750   17.0500 N.am      1 Z811        0.0000 
     10 C4          8.9520   -2.5130   14.7290 C.ar      1 Z811        0.0000 
     11 N4         16.1690   -5.1750   14.8820 N.pl3     1 Z811        0.0000 
     12 C5          8.4890   -3.1050   15.9030 C.ar      1 Z811        0.0000 
     13 C6         14.7450   -9.2980   18.3220 C.ar      1 Z811        0.0000 
     14 C7         15.0140   -9.7170   15.9690 C.ar      1 Z811        0.0000 
     15 C8         11.9500   -6.3090   16.1310 C.ar      1 Z811        0.0000 
     16 C9         10.4810   -4.3740   14.3880 C.ar      1 Z811        0.0000 
     17 C10        15.2430  -10.5760   18.5450 C.ar      1 Z811        0.0000 
     18 C11        15.5010  -10.9770   16.2960 C.ar      1 Z811        0.0000 
     19 C12        10.5730   -6.2310   15.9950 C.ar      1 Z811        0.0000 
     20 C13        10.0120   -4.9620   15.5660 C.ar      1 Z811        0.0000 
     21 C14        12.5600   -7.4870   16.5370 C.ar      1 Z811        0.0000 
     22 C15        14.6370   -8.8710   17.0090 C.ar      1 Z811        0.0000 
     23 C16         9.9440   -3.1500   13.9740 C.ar      1 Z811        0.0000 
     24 C17         9.0210   -4.3270   16.3210 C.ar      1 Z811        0.0000 
     25 C18        14.4950   -6.3880   17.7090 C.2       1 Z811        0.0000 
     26 C19        15.3880   -5.8710   15.7560 C.cat     1 Z811        0.0000 
     27 C20        14.0850   -7.4710   16.6850 C.3       1 Z811        0.0000 
     28 C21        15.8340   -4.2940   17.6980 C.3       1 Z811        0.0000 
     29 H           9.8251   -9.3772   16.8777 H         1 Z811        0.0000 
     30 H           8.7741   -7.3163   16.1589 H         1 Z811        0.0000 
     31 H          14.5433   -7.3559   14.6058 H         1 Z811        0.0000 
     32 H          12.2411   -9.4916   17.1037 H         1 Z811        0.0000 
     33 H           8.5695   -1.6151   14.4175 H         1 Z811        0.0000 
     34 H          16.1629   -5.4957   13.9349 H         1 Z811        0.0000 
     35 H          16.6793   -4.4049   15.2649 H         1 Z811        0.0000 
     36 H           7.7601   -2.6458   16.4590 H         1 Z811        0.0000 
     37 H          14.4714   -8.7017   19.0937 H         1 Z811        0.0000 
     38 H          14.9350   -9.4212   15.0020 H         1 Z811        0.0000 
     39 H          12.5321   -5.4769   15.9269 H         1 Z811        0.0000 
     40 H          11.2067   -4.8315   13.8356 H         1 Z811        0.0000 
     41 H          15.3273  -10.8920   19.5580 H         1 Z811        0.0000 
     42 H          15.7906  -11.6076   15.4925 H         1 Z811        0.0000 
     43 H          16.4475   -4.5422   18.4477 H         1 Z811        0.0000 
     44 H          16.3641   -3.7388   17.0571 H         1 Z811        0.0000 
     45 H          15.1259   -3.7018   18.0826 H         1 Z811        0.0000 
@<TRIPOS>BOND
     1    5    1 ar   
     2    8    1 ar   
     3   29    1 1    
     4   23    2 1    
     5   17    3 ar   
     6   18    3 ar   
     7   25    4 2    
     8   19    5 ar   
     9   30    5 1    
    10   24    6 1    
    11   26    7 ar   
    12   27    7 1    
    13   31    7 1    
    14   21    8 ar   
    15   32    8 1    
    16   25    9 am   
    17   26    9 ar   
    18   28    9 1    
    19   12   10 ar   
    20   23   10 ar   
    21   33   10 1    
    22   26   11 ar   
    23   34   11 1    
    24   35   11 1    
    25   24   12 ar   
    26   36   12 1    
    27   17   13 ar   
    28   22   13 ar   
    29   37   13 1    
    30   18   14 ar   
    31   22   14 ar   
    32   38   14 1    
    33   19   15 ar   
    34   21   15 ar   
    35   39   15 1    
    36   20   16 ar   
    37   23   16 ar   
    38   40   16 1    
    39   41   17 1    
    40   42   18 1    
    41   20   19 1    
    42   24   20 ar   
    43   27   21 1    
    44   27   22 1    
    45   27   25 1    
    46   43   28 1    
    47   44   28 1    
    48   45   28 1    
@<TRIPOS>SUBSTRUCTURE
     1 Z811        1 GROUP   
@<TRIPOS>SET

