#    Name: 4hvd_933_2_INTS_M
#    Modification time : Tue Mar 25 01:49:05 2014

@<TRIPOS>MOLECULE
4hvd_933_2_INTS_M
   59     0     9     0     0
SMALL
NO_CHARGES


@<TRIPOS>ATOM
      1 N          -3.9265  -13.7270   -2.7045 N.am      2 SEC2        0.0000 
      2 N          -2.5420  -14.1910   -2.9650 N.am      8 SEL2        0.0000 
      3 N          -5.3110  -13.2630   -2.4440 N.am      5 SEP2        0.0000 
      4 CA         -4.4510  -14.6735   -3.1915 C.3       3 GLC5        0.0000 
      5 CA         -2.5830  -15.5120   -3.0440 C.3       9 GLL5        0.0000 
      6 CA         -6.3190  -13.8350   -3.3390 C.3       6 GLP5        0.0000 
      7 CA         -2.9235  -12.7355   -1.9810 C.3       3 GLC5        0.0000 
      8 CA         -1.4340  -13.5390   -3.3250 C.3       9 GLL5        0.0000 
      9 CA         -4.4130  -11.9320   -0.6370 C.3       6 GLP5        0.0000 
     10 CA         -0.1965  -15.0395   -1.7230 C.3       3 GLC5        0.0000 
     11 CA         -0.3210  -14.2810   -3.7840 C.3       9 GLL5        0.0000 
     12 CA         -0.0720  -15.7980    0.3380 C.3       6 GLP5        0.0000 
     13 CA          2.0260  -13.6315   -2.5425 C.3       3 GLC5        0.0000 
     14 CA          0.7280  -13.3020   -4.0960 C.3       9 GLL5        0.0000 
     15 CA          3.3240  -13.9610   -0.9890 C.3       6 GLP5        0.0000 
     16 CA         -0.6990  -10.5965   -4.9515 C.3       3 GLC5        0.0000 
     17 CA          0.1950  -12.0720   -3.8260 C.3       9 GLL5        0.0000 
     18 CA         -1.5930   -9.1210   -6.0770 C.3       6 GLP5        0.0000 
     19 O          -1.8850  -11.2310   -2.7150 O.2       1 ALC1        0.0000 
     20 O          -1.0800  -12.2110   -3.3600 O.2       7 ALL1        0.0000 
     21 O          -2.6900  -10.2510   -2.0700 O.2       4 ALP1        0.0000 
     22 CA         -1.1815  -17.9695   -1.5960 C.3       3 GLC5        0.0000 
     23 CA         -1.5740  -17.7450   -3.5760 C.3       9 GLL5        0.0000 
     24 CA         -0.7890  -18.1940    0.3840 C.3       6 GLP5        0.0000 
     25 CA          0.6520  -18.0590   -1.8205 C.3       3 GLC5        0.0000 
     26 CA         -0.2820  -18.5370   -3.3650 C.3       9 GLL5        0.0000 
     27 CA          1.5860  -17.5810   -0.2760 C.3       6 GLP5        0.0000 
     28 CA          2.5215  -15.4155   -9.8150 C.3       3 GLC5        0.0000 
     29 CA          2.7250  -14.7860   -7.7210 C.3       9 GLL5        0.0000 
     30 CA          2.3180  -16.0450  -11.9090 C.3       6 GLP5        0.0000 
     31 CA          0.5215  -15.0810   -7.5065 C.3       3 GLC5        0.0000 
     32 CA         -1.6820  -15.3760   -7.2920 C.3       6 GLP5        0.0000 
     33 CA          1.8135  -13.3145   -8.3795 C.3       3 GLC5        0.0000 
     34 CA          0.9020  -11.8430   -9.0380 C.3       6 GLP5        0.0000 
     35 CA          4.0255  -13.9775   -8.8850 C.3       3 GLC5        0.0000 
     36 CA          5.3260  -13.1690  -10.0490 C.3       6 GLP5        0.0000 
     37 CA          4.8935  -14.8480   -8.8120 C.3       3 GLC5        0.0000 
     38 CA          4.4610  -16.5270   -7.5750 C.3       9 GLL5        0.0000 
     39 CA          0.2180  -16.2210   -7.1140 C.3       3 GLC5        0.0000 
     40 CA          2.1180  -17.0660   -6.9360 C.3       9 GLL5        0.0000 
     41 CA          4.5975  -17.9610   -3.4595 C.3       3 GLC5        0.0000 
     42 CA          4.0060  -16.6720   -4.5550 C.3       9 GLL5        0.0000 
     43 CA          5.1890  -19.2500   -2.3640 C.3       6 GLP5        0.0000 
     44 CA         -1.0540  -15.8368   -1.4685 C.3       3 GLC5        0.0000 
     45 CA         -1.4890  -16.2390   -3.5060 C.3       9 GLL5        0.0000 
     46 CA         -1.8590  -15.6258   -5.2835 C.3       3 GLC5        0.0000 
     47 CA          1.7652  -11.3370   -3.1585 C.3       3 GLC5        0.0000 
     48 CA          3.0690   -9.9870   -2.3560 C.3       6 GLP5        0.0000 
     49 CA         -2.8788  -18.4875   -4.9635 C.3       3 GLC5        0.0000 
     50 CA         -4.5130  -18.8720   -5.7590 C.3       6 GLP5        0.0000 
     51 CA         -1.4632  -16.7395   -5.7300 C.3       3 GLC5        0.0000 
     52 CA         -0.9150  -18.4610   -4.7600 C.3       9 GLL5        0.0000 
     53 CA          4.5873  -15.0072   -3.6765 C.3       3 GLC5        0.0000 
     54 CA          3.5110  -15.5210   -5.4450 C.3       9 GLL5        0.0000 
     55 CA          5.4160  -13.9180   -2.3530 C.3       6 GLP5        0.0000 
     56 CA         -0.1210  -12.6618   -1.9489 C.3       3 GLC5        0.0000 
     57 CA         -0.0340  -12.0250   -0.1400 C.3       6 GLP5        0.0000 
     58 CA         -1.0070  -13.1062   -5.2769 C.3       3 GLC5        0.0000 
     59 CA         -1.8060  -12.9140   -6.7960 C.3       6 GLP5        0.0000 
@<TRIPOS>BOND
@<TRIPOS>SUBSTRUCTURE
     1 ALC1       19 GROUP        1 X    ALC  0     ROOT ALC X 1
     2 SEC2        1 GROUP        1 X    SEC  0     **** SEC X 2
     3 GLC5        4 GROUP        1 X    GLC  0     **** GLC X 6
     4 ALP1       21 GROUP        1 Y    ALP  0     ROOT ALP Y 8
     5 SEP2        3 GROUP        1 Y    SEP  0     **** SEP Y 9
     6 GLP5        6 GROUP        1 Y    GLP  0     **** GLP Y 13
     7 ALL1       20 GROUP        1 Z    ALL  0     ROOT ALL Z 15
     8 SEL2        2 GROUP        1 Z    SEL  0     **** SEL Z 16
     9 GLL5        5 GROUP        1 Z    GLL  0     **** GLL Z 20
@<TRIPOS>SET

