#    Name: 4hvd_933_2_ligand
#    Modification time : Tue Mar 25 01:49:05 2014

@<TRIPOS>MOLECULE
4hvd_933_2_ligand
   43    45     1     0     0
SMALL
NO_CHARGES


@<TRIPOS>ATOM
      1 N1         -2.5420  -14.1910   -2.9650 N.ar      1 9331202     0.0000 
      2 C2         -2.5830  -15.5120   -3.0440 C.ar      1 9331202     0.0000 
      3 C3         -1.4890  -16.2390   -3.5060 C.ar      1 9331202     0.0000 
      4 N4         -0.3810  -15.6060   -3.8580 N.ar      1 9331202     0.0000 
      5 C5         -1.4340  -13.5390   -3.3250 C.ar      1 9331202     0.0000 
      6 C6         -0.3210  -14.2810   -3.7840 C.ar      1 9331202     0.0000 
      7 C7          0.7280  -13.3020   -4.0960 C.2       1 9331202     0.0000 
      8 C8          0.1950  -12.0720   -3.8260 C.2       1 9331202     0.0000 
      9 N9         -1.0800  -12.2110   -3.3600 N.pl3     1 9331202     0.0000 
     10 C10        -1.5740  -17.7450   -3.5760 C.3       1 9331202     0.0000 
     11 C11        -0.9150  -18.4610   -4.7600 C.3       1 9331202     0.0000 
     12 C12        -0.2820  -18.5370   -3.3650 C.3       1 9331202     0.0000 
     13 C13         2.0510  -13.6480   -4.6290 C.2       1 9331202     0.0000 
     14 N14         2.2790  -14.9630   -4.8710 N.am      1 9331202     0.0000 
     15 O15         2.8890  -12.7890   -4.8560 O.2       1 9331202     0.0000 
     16 C16         3.5110  -15.5210   -5.4450 C.3       1 9331202     0.0000 
     17 C17         3.2050  -15.9840   -6.8900 C.3       1 9331202     0.0000 
     18 C18         2.7250  -14.7860   -7.7210 C.3       1 9331202     0.0000 
     19 C19         4.4610  -16.5270   -7.5750 C.3       1 9331202     0.0000 
     20 C20         2.1180  -17.0660   -6.9360 C.3       1 9331202     0.0000 
     21 C21         4.0060  -16.6720   -4.5550 C.3       1 9331202     0.0000 
     22 H          -3.4379  -16.0465   -2.7617 H         1 9331202     0.0000 
     23 H           0.6553  -11.2285   -3.9479 H         1 9331202     0.0000 
     24 H          -1.6588  -11.4804   -3.0904 H         1 9331202     0.0000 
     25 H          -2.2890  -18.3121   -3.2794 H         1 9331202     0.0000 
     26 H          -0.4366  -17.8124   -5.2511 H         1 9331202     0.0000 
     27 H          -1.3857  -19.2670   -4.8997 H         1 9331202     0.0000 
     28 H          -0.5185  -19.3723   -2.9935 H         1 9331202     0.0000 
     29 H           0.4306  -17.9177   -3.3449 H         1 9331202     0.0000 
     30 H           1.5339  -15.6825   -4.6423 H         1 9331202     0.0000 
     31 H           4.2713  -14.7616   -5.4876 H         1 9331202     0.0000 
     32 H           3.4138  -14.0622   -7.7615 H         1 9331202     0.0000 
     33 H           2.5184  -15.0470   -8.6640 H         1 9331202     0.0000 
     34 H           1.8944  -14.3792   -7.3408 H         1 9331202     0.0000 
     35 H           5.1813  -15.8357   -7.6320 H         1 9331202     0.0000 
     36 H           4.8436  -17.3091   -7.0831 H         1 9331202     0.0000 
     37 H           4.2726  -16.8316   -8.5087 H         1 9331202     0.0000 
     38 H           1.9268  -17.3608   -7.8722 H         1 9331202     0.0000 
     39 H           2.3830  -17.8808   -6.4204 H         1 9331202     0.0000 
     40 H           1.2548  -16.7420   -6.5487 H         1 9331202     0.0000 
     41 H           4.8457  -17.0821   -4.9110 H         1 9331202     0.0000 
     42 H           4.2022  -16.3638   -3.6241 H         1 9331202     0.0000 
     43 H           3.3290  -17.4046   -4.4846 H         1 9331202     0.0000 
@<TRIPOS>BOND
     1    2    1 ar   
     2    5    1 ar   
     3    3    2 ar   
     4   22    2 1    
     5    4    3 ar   
     6   10    3 1    
     7    6    4 ar   
     8    6    5 ar   
     9    9    5 1    
    10    7    6 1    
    11    8    7 2    
    12   13    7 1    
    13    9    8 1    
    14   23    8 1    
    15   24    9 1    
    16   11   10 1    
    17   12   10 1    
    18   25   10 1    
    19   12   11 1    
    20   26   11 1    
    21   27   11 1    
    22   28   12 1    
    23   29   12 1    
    24   14   13 am   
    25   15   13 2    
    26   16   14 1    
    27   30   14 1    
    28   17   16 1    
    29   21   16 1    
    30   31   16 1    
    31   18   17 1    
    32   19   17 1    
    33   20   17 1    
    34   32   18 1    
    35   33   18 1    
    36   34   18 1    
    37   35   19 1    
    38   36   19 1    
    39   37   19 1    
    40   38   20 1    
    41   39   20 1    
    42   40   20 1    
    43   41   21 1    
    44   42   21 1    
    45   43   21 1    
@<TRIPOS>SUBSTRUCTURE
     1 9331202     1 GROUP   
@<TRIPOS>SET

