#    Name: 4BJC_1_CAVITY_N1_6.mol2
#    Modification time : Tue Mar 11 19:56:34 2014

@<TRIPOS>MOLECULE
4BJC_1_CAVITY_N1_6.mol2
   91     0     6     0     0
SMALL
NO_CHARGES


@<TRIPOS>ATOM
      1 CA         13.1783    3.4187   24.2919 C.3       5 GLY6        0.0000 
      2 CA         14.3765    4.2403   22.7462 C.3       5 GLY6        0.0000 
      3 CA         12.9180    4.2829   23.0938 C.3       5 GLY6        0.0000 
      4 DU         11.4594    4.3254   23.4413 H         6 CUB7        0.0000 
      5 CA         14.1163    5.1045   21.5481 C.3       5 GLY6        0.0000 
      6 CA         12.6577    5.1470   21.8956 C.3       5 GLY6        0.0000 
      7 DU         11.1992    5.1896   22.2432 H         6 CUB7        0.0000 
      8 N           8.2820    5.2747   22.9382 N.2       2 ALA2        0.0000 
      9 CZ         12.3974    6.0112   20.6975 C.ar      4 PHE5        0.0000 
     10 DU         10.9389    6.0537   21.0451 H         6 CUB7        0.0000 
     11 DU          9.4803    6.0963   21.3926 H         6 CUB7        0.0000 
     12 N           8.0218    6.1388   21.7401 N.2       2 ALA2        0.0000 
     13 N           5.1046    6.2239   22.4352 N.2       2 ALA2        0.0000 
     14 CZ         12.1372    6.8753   19.4994 C.ar      4 PHE5        0.0000 
     15 DU         10.6786    6.9179   19.8469 H         6 CUB7        0.0000 
     16 CZ          9.2201    6.9604   20.1945 C.ar      4 PHE5        0.0000 
     17 CZ         10.4183    7.7820   18.6488 C.ar      4 PHE5        0.0000 
     18 OG         14.2735    9.3827   15.2100 O.2       1 SER1        0.0000 
     19 OG         12.8149    9.4252   15.5575 O.2       1 SER1        0.0000 
     20 CZ         11.0961   10.3319   14.7069 C.ar      4 PHE5        0.0000 
     21 CA         12.9440    2.1934   23.4590 C.3       5 GLY6        0.0000 
     22 N          14.1423    3.0150   21.9133 N.2       2 ALA2        0.0000 
     23 DU         12.6838    3.0575   22.2609 H         6 CUB7        0.0000 
     24 DU         11.2252    3.1001   22.6084 H         6 CUB7        0.0000 
     25 DU          9.7667    3.1426   22.9559 H         6 CUB7        0.0000 
     26 CZ         12.4235    3.9217   21.0628 C.ar      4 PHE5        0.0000 
     27 DU          8.0478    4.0493   22.1054 H         6 CUB7        0.0000 
     28 CZ         12.1632    4.7858   19.8646 C.ar      4 PHE5        0.0000 
     29 DU         10.7047    4.8284   20.2122 H         6 CUB7        0.0000 
     30 DU          9.2461    4.8709   20.5597 H         6 CUB7        0.0000 
     31 N           7.7876    4.9135   20.9072 N.2       2 ALA2        0.0000 
     32 N           6.3290    4.9560   21.2548 N.2       2 ALA2        0.0000 
     33 CZ         11.9030    5.6500   18.6665 C.ar      4 PHE5        0.0000 
     34 CZ         10.4444    5.6925   19.0140 C.ar      4 PHE5        0.0000 
     35 CZ          8.9858    5.7351   19.3616 C.ar      4 PHE5        0.0000 
     36 N           7.5273    5.7776   19.7091 N.2       2 ALA2        0.0000 
     37 CA         11.6427    6.5141   17.4684 C.3       5 GLY6        0.0000 
     38 CZ         10.1841    6.5567   17.8159 C.ar      4 PHE5        0.0000 
     39 OG         12.8410    7.3357   15.9227 O.2       1 SER1        0.0000 
     40 CZ         11.3824    7.3783   16.2702 C.ar      4 PHE5        0.0000 
     41 OG         14.0393    8.1573   14.3771 O.2       1 SER1        0.0000 
     42 NZ         12.5807    8.1999   14.7246 N.2       3 LYS4        0.0000 
     43 CZ         10.8619    9.1066   13.8740 C.ar      4 PHE5        0.0000 
     44 CA         12.4496    1.8322   21.4280 C.3       5 GLY6        0.0000 
     45 OG         10.9910    1.8747   21.7755 O.2       1 SER1        0.0000 
     46 OG          9.5324    1.9173   22.1231 O.2       1 SER1        0.0000 
     47 DU          8.0739    1.9599   22.4706 H         6 CUB7        0.0000 
     48 N          12.1893    2.6963   20.2299 N.2       2 ALA2        0.0000 
     49 N          10.7307    2.7389   20.5774 N.2       2 ALA2        0.0000 
     50 DU          9.2722    2.7815   20.9249 H         6 CUB7        0.0000 
     51 DU          7.8136    2.8240   21.2725 H         6 CUB7        0.0000 
     52 DU          6.3551    2.8666   21.6200 H         6 CUB7        0.0000 
     53 N          11.9290    3.5605   19.0317 N.2       2 ALA2        0.0000 
     54 DU         10.4705    3.6030   19.3793 H         6 CUB7        0.0000 
     55 DU          9.0119    3.6456   19.7268 H         6 CUB7        0.0000 
     56 DU          7.5533    3.6882   20.0743 H         6 CUB7        0.0000 
     57 N           6.0948    3.7307   20.4219 N.2       2 ALA2        0.0000 
     58 CZ         11.6688    4.4246   17.8336 C.ar      4 PHE5        0.0000 
     59 CA         10.2102    4.4672   18.1811 C.3       5 GLY6        0.0000 
     60 O           8.7516    4.5097   18.5287 O.2       2 ALA2        0.0000 
     61 O           7.2931    4.5523   18.8762 O.2       2 ALA2        0.0000 
     62 CZ         12.8671    5.2462   16.2879 C.ar      4 PHE5        0.0000 
     63 CA         11.4085    5.2888   16.6355 C.3       5 GLY6        0.0000 
     64 CZ         12.6068    6.1104   15.0898 C.ar      4 PHE5        0.0000 
     65 CA         13.8051    6.9320   13.5442 C.3       5 GLY6        0.0000 
     66 NZ         12.3465    6.9745   13.8917 N.2       3 LYS4        0.0000 
     67 CA         10.8880    7.0171   14.2392 C.3       5 GLY6        0.0000 
     68 CZ         10.6277    7.8812   13.0411 C.ar      4 PHE5        0.0000 
     69 OG          9.2982    0.6920   21.2902 O.2       1 SER1        0.0000 
     70 OG          7.8397    0.7345   21.6377 O.2       1 SER1        0.0000 
     71 N           9.0380    1.5561   20.0920 N.2       2 ALA2        0.0000 
     72 N           7.5794    1.5987   20.4396 N.2       2 ALA2        0.0000 
     73 CA          6.1208    1.6412   20.7871 C.3       5 GLY6        0.0000 
     74 N          10.2363    2.3777   18.5464 N.2       2 ALA2        0.0000 
     75 N           7.3191    2.4628   19.2414 N.2       2 ALA2        0.0000 
     76 CA          5.8606    2.5054   19.5890 C.3       5 GLY6        0.0000 
     77 CZ         12.8931    3.1568   16.6532 C.ar      4 PHE5        0.0000 
     78 N          11.4346    3.1993   17.0007 N.2       2 ALA2        0.0000 
     79 N           9.9760    3.2419   17.3482 N.2       2 ALA2        0.0000 
     80 CZ         12.6329    4.0209   15.4551 C.ar      4 PHE5        0.0000 
     81 N          11.1743    4.0635   15.8026 N.2       2 ALA2        0.0000 
     82 CA         13.8312    4.8425   13.9094 C.3       5 GLY6        0.0000 
     83 CZ         12.3726    4.8851   14.2569 C.ar      4 PHE5        0.0000 
     84 CA         10.9140    4.9276   14.6045 C.3       5 GLY6        0.0000 
     85 N          12.1123    5.7492   13.0588 N.2       2 ALA2        0.0000 
     86 CA         10.6538    5.7918   13.4063 C.3       5 GLY6        0.0000 
     87 O          11.2004    1.9740   16.1678 O.2       2 ALA2        0.0000 
     88 OG         12.3987    2.7956   14.6222 O.2       1 SER1        0.0000 
     89 N          10.9401    2.8381   14.9697 N.2       2 ALA2        0.0000 
     90 OG         12.1384    3.6597   13.4240 O.2       1 SER1        0.0000 
     91 N          10.6798    3.7023   13.7716 N.2       2 ALA2        0.0000 
@<TRIPOS>BOND
@<TRIPOS>SUBSTRUCTURE
     1 SER1       18 GROUP   
     2 ALA2        8 GROUP   
     3 LYS4       42 GROUP   
     4 PHE5        9 GROUP   
     5 GLY6        1 GROUP   
     6 CUB7        4 GROUP   
@<TRIPOS>SET

