#    Name: 4bjc_RPB_1_INTS_M
#    Modification time : Tue Mar 25 07:48:18 2014

@<TRIPOS>MOLECULE
4bjc_RPB_1_INTS_M
   37     0     9     0     0
SMALL
NO_CHARGES


@<TRIPOS>ATOM
      1 N          12.5425    0.6015   15.3115 N.am      2 SEC2        0.0000 
      2 N          12.5440    2.0960   14.9880 N.am      8 SEL2        0.0000 
      3 N          12.5410   -0.8930   15.6350 N.am      5 SEP2        0.0000 
      4 N          12.9835    1.4390   13.6245 N.am      2 SEC2        0.0000 
      5 N          13.4230    0.7820   12.2610 N.am      5 SEP2        0.0000 
      6 O          12.1240    1.4415   17.5430 O.2       1 ALC1        0.0000 
      7 O          11.5500    2.6250   16.9050 O.2       7 ALL1        0.0000 
      8 O          12.6980    0.2580   18.1810 O.2       4 ALP1        0.0000 
      9 CA         13.5880    4.8295   18.6080 C.3       3 GLC5        0.0000 
     10 CA         11.8180    4.6930   18.2640 C.3       9 GLL5        0.0000 
     11 CA         15.3580    4.9660   18.9520 C.3       6 GLP5        0.0000 
     12 CA         14.1880    6.5415   13.3305 C.3       3 GLC5        0.0000 
     13 CA         12.1100    6.8010   13.9890 C.3       9 GLL5        0.0000 
     14 CA         16.2660    6.2820   12.6720 C.3       6 GLP5        0.0000 
     15 CA         13.1620    7.8625   22.6965 C.3       3 GLC5        0.0000 
     16 CA         12.2420    8.1740   20.9280 C.3       9 GLL5        0.0000 
     17 CA         14.0820    7.5510   24.4650 C.3       6 GLP5        0.0000 
     18 CA         12.7095    8.8360   23.2430 C.3       3 GLC5        0.0000 
     19 CA         11.3370   10.1210   22.0210 C.3       9 GLL5        0.0000 
     20 CA         10.0540    5.0930   16.7800 C.3       3 GLC5        0.0000 
     21 CA          8.7440    6.0810   15.4830 C.3       6 GLP5        0.0000 
     22 CA         10.4240    5.2260   14.9855 C.3       3 GLC5        0.0000 
     23 CA         12.0560    4.3290   15.1860 C.3       9 GLL5        0.0000 
     24 CA         10.4432    6.1583   14.5350 C.3       3 GLC5        0.0000 
     25 CA         12.1750    5.6700   13.1850 C.3       9 GLL5        0.0000 
     26 CA         12.3343    6.9348   11.0653 C.3       3 GLC5        0.0000 
     27 CA         12.4450    8.1300    9.6280 C.3       6 GLP5        0.0000 
     28 CA         10.4169    4.3201   12.2989 C.3       3 GLC5        0.0000 
     29 CA         12.2720    5.8090   11.8200 C.3       9 GLL5        0.0000 
     30 CA          8.6160    3.2150   11.9440 C.3       6 GLP5        0.0000 
     31 CA         12.5504    4.3916   11.3869 C.3       3 GLC5        0.0000 
     32 CA         12.1520    4.4130   13.7900 C.3       9 GLL5        0.0000 
     33 CA         12.8830    3.3580   10.1200 C.3       6 GLP5        0.0000 
     34 CA         13.8959    5.4296   12.1329 C.3       3 GLC5        0.0000 
     35 CA         15.5740    5.4340   11.6120 C.3       6 GLP5        0.0000 
     36 CA         10.3316    6.3198   16.0867 C.3       3 GLC5        0.0000 
     37 CA         12.0170    6.6730   15.3130 C.3       9 GLL5        0.0000 
@<TRIPOS>BOND
@<TRIPOS>SUBSTRUCTURE
     1 ALC1        6 GROUP        1 X    ALC  0     ROOT ALC X 1
     2 SEC2        1 GROUP        1 X    SEC  0     **** SEC X 2
     3 GLC5        9 GROUP        1 X    GLC  0     **** GLC X 6
     4 ALP1        8 GROUP        1 Y    ALP  0     ROOT ALP Y 8
     5 SEP2        3 GROUP        1 Y    SEP  0     **** SEP Y 9
     6 GLP5       11 GROUP        1 Y    GLP  0     **** GLP Y 13
     7 ALL1        7 GROUP        1 Z    ALL  0     ROOT ALL Z 15
     8 SEL2        2 GROUP        1 Z    SEL  0     **** SEL Z 16
     9 GLL5       10 GROUP        1 Z    GLL  0     **** GLL Z 20
@<TRIPOS>SET

