#    Name: 4bjc_RPB_1_ligand
#    Modification time : Tue Mar 25 07:48:18 2014

@<TRIPOS>MOLECULE
4bjc_RPB_1_ligand
   41    44     1     0     0
SMALL
NO_CHARGES


@<TRIPOS>ATOM
      1 O1         12.5440    2.0960   14.9880 O.2       1 RPB2162     0.0000 
      2 C7         12.0450    3.0060   15.6590 C.2       1 RPB2162     0.0000 
      3 N1         11.5500    2.6250   16.9050 N.am      1 RPB2162     0.0000 
      4 C8         10.9100    3.5170   17.8900 C.3       1 RPB2162     0.0000 
      5 C9         11.8180    4.6930   18.2640 C.3       1 RPB2162     0.0000 
      6 C10        11.8850    5.6590   17.2370 C.2       1 RPB2162     0.0000 
      7 C5         11.9900    5.4670   15.9090 C.ar      1 RPB2162     0.0000 
      8 C4         12.0560    4.3290   15.1860 C.ar      1 RPB2162     0.0000 
      9 C3         12.1520    4.4130   13.7900 C.ar      1 RPB2162     0.0000 
     10 C2         12.1750    5.6700   13.1850 C.ar      1 RPB2162     0.0000 
     11 F1         12.2720    5.8090   11.8200 F         1 RPB2162     0.0000 
     12 C1         12.1100    6.8010   13.9890 C.ar      1 RPB2162     0.0000 
     13 C6         12.0170    6.6730   15.3130 C.ar      1 RPB2162     0.0000 
     14 N2         11.9390    7.6020   16.2530 N.pl3     1 RPB2162     0.0000 
     15 C11        11.8610    6.9990   17.4380 C.2       1 RPB2162     0.0000 
     16 C12        11.7570    7.7210   18.5810 C.ar      1 RPB2162     0.0000 
     17 C14        12.3890    7.3820   19.7840 C.ar      1 RPB2162     0.0000 
     18 C15        12.2420    8.1740   20.9280 C.ar      1 RPB2162     0.0000 
     19 C13        10.9910    8.8910   18.5640 C.ar      1 RPB2162     0.0000 
     20 C17        10.8470    9.6880   19.6980 C.ar      1 RPB2162     0.0000 
     21 C16        11.4590    9.3280   20.8980 C.ar      1 RPB2162     0.0000 
     22 C18        11.3370   10.1210   22.0210 C.3       1 RPB2162     0.0000 
     23 N3         10.1710    9.7690   22.8460 N.4       1 RPB2162     0.0000 
     24 C19         8.9080    9.9060   22.0950 C.3       1 RPB2162     0.0000 
     25 H          11.6253    1.6124   17.1994 H         1 RPB2162     0.0000 
     26 H          10.6675    2.9651   18.8079 H         1 RPB2162     0.0000 
     27 H           9.9714    3.9221   17.4890 H         1 RPB2162     0.0000 
     28 H          12.8146    4.2727   18.5027 H         1 RPB2162     0.0000 
     29 H          11.4272    5.1194   19.2086 H         1 RPB2162     0.0000 
     30 H          12.2042    3.5648   13.2267 H         1 RPB2162     0.0000 
     31 H          12.1356    7.7344   13.5350 H         1 RPB2162     0.0000 
     32 H          11.9384    8.5657   16.1073 H         1 RPB2162     0.0000 
     33 H          12.9745    6.5313   19.8269 H         1 RPB2162     0.0000 
     34 H          12.7177    7.9005   21.8005 H         1 RPB2162     0.0000 
     35 H          10.5184    9.1711   17.6829 H         1 RPB2162     0.0000 
     36 H          10.2841   10.5499   19.6497 H         1 RPB2162     0.0000 
     37 H          11.2553   11.2062   21.7526 H         1 RPB2162     0.0000 
     38 H          12.2495   10.0611   22.6692 H         1 RPB2162     0.0000 
     39 H           8.7683   10.8416   21.7708 H         1 RPB2162     0.0000 
     40 H           8.8874    9.3112   21.2914 H         1 RPB2162     0.0000 
     41 H           8.1148    9.6686   22.6558 H         1 RPB2162     0.0000 
@<TRIPOS>BOND
     1    2    1 2    
     2    3    2 am   
     3    8    2 1    
     4    4    3 1    
     5   25    3 1    
     6    5    4 1    
     7   26    4 1    
     8   27    4 1    
     9    6    5 1    
    10   28    5 1    
    11   29    5 1    
    12    7    6 1    
    13   15    6 2    
    14    8    7 ar   
    15   13    7 ar   
    16    9    8 ar   
    17   10    9 ar   
    18   30    9 1    
    19   11   10 1    
    20   12   10 ar   
    21   13   12 ar   
    22   31   12 1    
    23   14   13 1    
    24   15   14 1    
    25   32   14 1    
    26   16   15 1    
    27   17   16 ar   
    28   19   16 ar   
    29   18   17 ar   
    30   33   17 1    
    31   21   18 ar   
    32   34   18 1    
    33   20   19 ar   
    34   35   19 1    
    35   21   20 ar   
    36   36   20 1    
    37   22   21 1    
    38   23   22 1    
    39   37   22 1    
    40   38   22 1    
    41   24   23 1    
    42   39   24 1    
    43   40   24 1    
    44   41   24 1    
@<TRIPOS>SUBSTRUCTURE
     1 RPB2162     1 GROUP   
@<TRIPOS>SET

