#    Name: 3mtf_A3F_2_INTS_M
#    Modification time : Mon Mar 24 23:40:51 2014

@<TRIPOS>MOLECULE
3mtf_A3F_2_INTS_M
   73     0     9     0     0
SMALL
NO_CHARGES


@<TRIPOS>ATOM
      1 CA        -19.8465  -51.5420   -4.7170 C.3       3 GLC5        0.0000 
      2 CA        -18.9810  -51.2140   -6.6380 C.3       9 GLL5        0.0000 
      3 CA        -20.7120  -51.8700   -2.7960 C.3       6 GLP5        0.0000 
      4 CA        -18.2405  -49.8870   -5.2600 C.3       3 GLC5        0.0000 
      5 CA        -17.5000  -48.5600   -3.8820 C.3       6 GLP5        0.0000 
      6 CA        -13.5240  -47.8890  -10.6205 C.3       3 GLC5        0.0000 
      7 CA        -15.0670  -46.7530  -10.4910 C.3       9 GLL5        0.0000 
      8 CA        -11.9810  -49.0250  -10.7500 C.3       6 GLP5        0.0000 
      9 CA        -14.3820  -46.8305  -12.4730 C.3       3 GLC5        0.0000 
     10 CA        -13.6970  -46.9080  -14.4550 C.3       6 GLP5        0.0000 
     11 CA        -16.5770  -46.6245  -11.6045 C.3       3 GLC5        0.0000 
     12 CA        -18.0870  -46.4960  -12.7180 C.3       6 GLP5        0.0000 
     13 CA        -14.4275  -45.5530   -9.4030 C.3       3 GLC5        0.0000 
     14 CA        -13.7880  -44.3530   -8.3150 C.3       6 GLP5        0.0000 
     15 CA        -19.3335  -46.4675   -9.4830 C.3       3 GLC5        0.0000 
     16 CA        -18.5190  -46.4190   -7.6010 C.3       9 GLL5        0.0000 
     17 CA        -20.1480  -46.5160  -11.3650 C.3       6 GLP5        0.0000 
     18 CA        -16.7555  -46.6730   -6.6355 C.3       3 GLC5        0.0000 
     19 CA        -14.9920  -46.9270   -5.6700 C.3       6 GLP5        0.0000 
     20 CA        -18.0325  -44.7000   -8.3780 C.3       3 GLC5        0.0000 
     21 CA        -17.5460  -42.9810   -9.1550 C.3       6 GLP5        0.0000 
     22 CA        -18.0095  -47.4895   -5.7415 C.3       3 GLC5        0.0000 
     23 CA        -19.6620  -46.1100   -6.1480 C.3       3 GLC5        0.0000 
     24 CA        -20.8050  -45.8010   -4.6950 C.3       6 GLP5        0.0000 
     25 O         -11.5885  -48.9050   -7.5860 O.2       1 ALC1        0.0000 
     26 O         -12.8530  -49.5970   -7.5180 O.2       7 ALL1        0.0000 
     27 O         -10.3240  -48.2130   -7.6540 O.2       4 ALP1        0.0000 
     28 O         -16.1890  -58.4490   -8.0055 O.2       1 ALC1        0.0000 
     29 O         -16.1760  -57.3510   -8.6350 O.2       7 ALL1        0.0000 
     30 O         -16.2020  -59.5470   -7.3760 O.2       4 ALP1        0.0000 
     31 CA        -13.0310  -56.7195  -11.8330 C.3       3 GLC5        0.0000 
     32 CA        -12.8380  -56.9150  -10.0340 C.3       9 GLL5        0.0000 
     33 CA        -13.2240  -56.5240  -13.6320 C.3       6 GLP5        0.0000 
     34 CA        -10.4735  -52.9755   -7.2085 C.3       3 GLC5        0.0000 
     35 CA        -12.1900  -52.9780   -8.3660 C.3       9 GLL5        0.0000 
     36 CA         -8.7570  -52.9730   -6.0510 C.3       6 GLP5        0.0000 
     37 CA        -14.9135  -54.2695   -6.8840 C.3       3 GLC5        0.0000 
     38 CA        -14.8020  -55.4240   -8.7630 C.3       9 GLL5        0.0000 
     39 CA        -15.0250  -53.1150   -5.0050 C.3       6 GLP5        0.0000 
     40 N         -10.5615  -51.8425   -7.5140 N.am      2 SEC2        0.0000 
     41 N         -12.0290  -51.7170   -7.9740 N.am      8 SEL2        0.0000 
     42 N          -9.0940  -51.9680   -7.0540 N.am      5 SEP2        0.0000 
     43 CA        -17.2355  -47.3170  -10.9225 C.3       3 GLC5        0.0000 
     44 CA        -16.3840  -48.1380   -9.1270 C.3       9 GLL5        0.0000 
     45 CA        -18.8565  -47.4715   -9.9200 C.3       3 GLC5        0.0000 
     46 CA        -17.5650  -48.4270   -8.4750 C.3       9 GLL5        0.0000 
     47 CA        -13.1515  -57.2050   -8.0207 C.3       3 GLC5        0.0000 
     48 CA        -12.8720  -57.1820   -6.1780 C.3       6 GLP5        0.0000 
     49 CA        -14.6333  -56.7105  -11.3182 C.3       3 GLC5        0.0000 
     50 CA        -14.0240  -57.5410   -9.6930 C.3       9 GLL5        0.0000 
     51 CA        -14.7540  -56.2630  -13.2670 C.3       6 GLP5        0.0000 
     52 CA        -13.0027  -56.1775   -7.8018 C.3       3 GLC5        0.0000 
     53 CA        -13.6320  -54.7880   -9.1210 C.3       9 GLL5        0.0000 
     54 CA        -14.4749  -55.0397  -10.9711 C.3       3 GLC5        0.0000 
     55 CA        -14.9820  -54.7810  -12.8480 C.3       6 GLP5        0.0000 
     56 CA        -13.8867  -56.6407   -7.5412 C.3       3 GLC5        0.0000 
     57 CA        -15.0983  -50.6073   -6.3600 C.3       3 GLC5        0.0000 
     58 CA        -15.4270  -50.2970   -8.3640 C.3       9 GLL5        0.0000 
     59 CA        -14.1660  -50.7800   -4.6690 C.3       6 GLP5        0.0000 
     60 CA        -17.3315  -49.3368   -5.8293 C.3       3 GLC5        0.0000 
     61 CA        -16.6340  -50.5720   -7.7380 C.3       9 GLL5        0.0000 
     62 CA        -13.6758  -49.3543   -9.7303 C.3       3 GLC5        0.0000 
     63 CA        -15.3140  -49.0700   -9.0570 C.3       9 GLL5        0.0000 
     64 CA        -15.1725  -51.5262  -10.4035 C.3       3 GLC5        0.0000 
     65 CA        -14.3400  -51.2350   -8.3310 C.3       9 GLL5        0.0000 
     66 CA        -15.9180  -51.1620  -12.2620 C.3       6 GLP5        0.0000 
     67 CA        -14.3454  -52.9956   -6.8332 C.3       3 GLC5        0.0000 
     68 CA        -14.5140  -52.5460   -8.7590 C.3       9 GLL5        0.0000 
     69 CA        -12.8412  -50.0330   -9.4408 C.3       3 GLC5        0.0000 
     70 CA        -13.9337  -50.9105   -6.4002 C.3       3 GLC5        0.0000 
     71 CA        -13.0630  -50.8470   -7.9320 C.3       9 GLL5        0.0000 
     72 CA        -15.8976  -50.0364  -10.5904 C.3       3 GLC5        0.0000 
     73 CA        -15.8724  -47.9514   -7.1009 C.3       3 GLC5        0.0000 
@<TRIPOS>BOND
@<TRIPOS>SUBSTRUCTURE
     1 ALC1       25 GROUP        1 X    ALC  0     ROOT ALC X 1
     2 SEC2       40 GROUP        1 X    SEC  0     **** SEC X 2
     3 GLC5        1 GROUP        1 X    GLC  0     **** GLC X 6
     4 ALP1       27 GROUP        1 Y    ALP  0     ROOT ALP Y 8
     5 SEP2       42 GROUP        1 Y    SEP  0     **** SEP Y 9
     6 GLP5        3 GROUP        1 Y    GLP  0     **** GLP Y 13
     7 ALL1       26 GROUP        1 Z    ALL  0     ROOT ALL Z 15
     8 SEL2       41 GROUP        1 Z    SEL  0     **** SEL Z 16
     9 GLL5        2 GROUP        1 Z    GLL  0     **** GLL Z 20
@<TRIPOS>SET

