#    Name: 3mtf_A3F_2_ligand
#    Modification time : Mon Mar 24 23:40:51 2014

@<TRIPOS>MOLECULE
3mtf_A3F_2_ligand
   46    48     1     0     0
SMALL
NO_CHARGES


@<TRIPOS>ATOM
      1 CAA       -18.9810  -51.2140   -6.6380 C.3       1 A3F501      0.0000 
      2 CAB       -15.0670  -46.7530  -10.4910 C.3       1 A3F501      0.0000 
      3 CAC       -18.5190  -46.4190   -7.6010 C.3       1 A3F501      0.0000 
      4 NAD       -12.8530  -49.5970   -7.5180 N.pl3     1 A3F501      0.0000 
      5 OAE       -16.1760  -57.3510   -8.6350 O.3       1 A3F501      0.0000 
      6 CAF       -12.8380  -56.9150  -10.0340 C.ar      1 A3F501      0.0000 
      7 CAG       -14.0240  -57.5410   -9.6930 C.ar      1 A3F501      0.0000 
      8 CAH       -12.6350  -55.5580   -9.7300 C.ar      1 A3F501      0.0000 
      9 CAI       -12.1900  -52.9780   -8.3660 C.ar      1 A3F501      0.0000 
     10 CAJ       -14.8020  -55.4240   -8.7630 C.ar      1 A3F501      0.0000 
     11 CAK       -16.6340  -50.5720   -7.7380 C.ar      1 A3F501      0.0000 
     12 CAL       -15.3140  -49.0700   -9.0570 C.ar      1 A3F501      0.0000 
     13 CAM       -14.5140  -52.5460   -8.7590 C.ar      1 A3F501      0.0000 
     14 NAN       -12.0290  -51.7170   -7.9740 N.ar      1 A3F501      0.0000 
     15 OAO       -18.8390  -49.8730   -7.1640 O.3       1 A3F501      0.0000 
     16 OAP       -16.3070  -46.9390   -9.8260 O.3       1 A3F501      0.0000 
     17 OAQ       -18.6270  -47.5470   -8.5070 O.3       1 A3F501      0.0000 
     18 CAR       -15.0010  -56.7750   -9.0460 C.ar      1 A3F501      0.0000 
     19 CAS       -13.0630  -50.8470   -7.9320 C.ar      1 A3F501      0.0000 
     20 CAT       -13.6320  -54.7880   -9.1210 C.ar      1 A3F501      0.0000 
     21 CAU       -13.4450  -53.4350   -8.7620 C.ar      1 A3F501      0.0000 
     22 CAV       -15.4270  -50.2970   -8.3640 C.ar      1 A3F501      0.0000 
     23 CAW       -17.6920  -49.6550   -7.8150 C.ar      1 A3F501      0.0000 
     24 CAX       -16.3840  -48.1380   -9.1270 C.ar      1 A3F501      0.0000 
     25 CAY       -14.3400  -51.2350   -8.3310 C.ar      1 A3F501      0.0000 
     26 CAZ       -17.5650  -48.4270   -8.4750 C.ar      1 A3F501      0.0000 
     27 H         -13.6279  -49.1432   -7.0780 H         1 A3F501      0.0000 
     28 H         -11.9395  -49.2259   -7.6848 H         1 A3F501      0.0000 
     29 H         -12.0924  -57.4393  -10.5145 H         1 A3F501      0.0000 
     30 H         -14.1868  -58.5177   -9.9006 H         1 A3F501      0.0000 
     31 H         -11.7263  -55.1206   -9.9630 H         1 A3F501      0.0000 
     32 H         -11.3939  -53.6469   -8.3869 H         1 A3F501      0.0000 
     33 H         -15.5491  -54.8957   -8.2758 H         1 A3F501      0.0000 
     34 H         -16.7597  -51.4479   -7.2150 H         1 A3F501      0.0000 
     35 H         -14.4224  -48.8400   -9.5306 H         1 A3F501      0.0000 
     36 H         -15.4435  -52.8619   -9.0769 H         1 A3F501      0.0000 
     37 H         -18.9436  -51.9028   -7.3620 H         1 A3F501      0.0000 
     38 H         -18.2567  -51.4354   -5.9850 H         1 A3F501      0.0000 
     39 H         -19.8520  -51.3360   -6.1621 H         1 A3F501      0.0000 
     40 H         -14.2990  -46.7493   -9.8506 H         1 A3F501      0.0000 
     41 H         -14.8901  -47.4780  -11.1566 H         1 A3F501      0.0000 
     42 H         -15.0385  -45.8856  -10.9879 H         1 A3F501      0.0000 
     43 H         -18.4543  -46.7134   -6.6475 H         1 A3F501      0.0000 
     44 H         -17.7087  -45.8652   -7.7924 H         1 A3F501      0.0000 
     45 H         -19.3111  -45.8122   -7.6673 H         1 A3F501      0.0000 
     46 H         -15.9847  -58.3319   -8.5996 H         1 A3F501      0.0000 
@<TRIPOS>BOND
     1   15    1 1    
     2   37    1 1    
     3   38    1 1    
     4   39    1 1    
     5   16    2 1    
     6   40    2 1    
     7   41    2 1    
     8   42    2 1    
     9   17    3 1    
    10   43    3 1    
    11   44    3 1    
    12   45    3 1    
    13   19    4 1    
    14   27    4 1    
    15   28    4 1    
    16   18    5 1    
    17   46    5 1    
    18    7    6 ar   
    19    8    6 ar   
    20   29    6 1    
    21   18    7 ar   
    22   30    7 1    
    23   20    8 ar   
    24   31    8 1    
    25   14    9 ar   
    26   21    9 ar   
    27   32    9 1    
    28   18   10 ar   
    29   20   10 ar   
    30   33   10 1    
    31   22   11 ar   
    32   23   11 ar   
    33   34   11 1    
    34   22   12 ar   
    35   24   12 ar   
    36   35   12 1    
    37   21   13 ar   
    38   25   13 ar   
    39   36   13 1    
    40   19   14 ar   
    41   23   15 1    
    42   24   16 1    
    43   26   17 1    
    44   25   19 ar   
    45   21   20 1    
    46   25   22 1    
    47   26   23 ar   
    48   26   24 ar   
@<TRIPOS>SUBSTRUCTURE
     1 A3F501      1 GROUP   
@<TRIPOS>SET

