#    Name: 3LAW_2_CAVITY_N1_6.mol2
#    Modification time : Tue Mar 11 11:06:16 2014

@<TRIPOS>MOLECULE
3LAW_2_CAVITY_N1_6.mol2
  101     0     7     0     0
SMALL
NO_CHARGES


@<TRIPOS>ATOM
      1 N          21.4819   -0.4349    0.4728 N.2       2 ALA2        0.0000 
      2 OG         22.0506   -1.6978    1.0487 O.2       1 SER1        0.0000 
      3 O          20.2092    0.0291   -1.1597 O.2       2 ALA2        0.0000 
      4 CZ         20.7779   -1.2338   -0.5837 C.ar      5 PHE5        0.0000 
      5 OG         21.3466   -2.4967   -0.0078 O.2       1 SER1        0.0000 
      6 O          21.9152   -3.7596    0.5682 O.2       2 ALA2        0.0000 
      7 CA         24.3077   -3.4991   -1.2230 C.3       6 GLY6        0.0000 
      8 CZ         23.0351   -3.0350   -2.8555 C.ar      5 PHE5        0.0000 
      9 N          23.6037   -4.2979   -2.2795 N.2       2 ALA2        0.0000 
     10 CZ         21.7624   -2.5710   -4.4879 C.ar      5 PHE5        0.0000 
     11 CZ         22.3310   -3.8339   -3.9120 C.ar      5 PHE5        0.0000 
     12 N          22.8997   -5.0968   -3.3360 N.2       2 ALA2        0.0000 
     13 N          21.0584   -3.3698   -5.5444 N.2       2 ALA2        0.0000 
     14 DU         21.6270   -4.6327   -4.9685 H         7 CUB7        0.0000 
     15 CA         22.1957   -5.8956   -4.3926 C.3       6 GLY6        0.0000 
     16 N          19.7857   -2.9057   -7.1769 N.2       2 ALA2        0.0000 
     17 CA         20.3544   -4.1686   -6.6010 C.3       6 GLY6        0.0000 
     18 DU         20.9230   -5.4315   -6.0250 H         7 CUB7        0.0000 
     19 CA         21.4917   -6.6944   -5.4491 C.3       6 GLY6        0.0000 
     20 OG         19.0817   -3.7046   -8.2334 O.2       1 SER1        0.0000 
     21 N          19.6504   -4.9675   -7.6575 N.2       2 ALA2        0.0000 
     22 DU         20.2190   -6.2304   -7.0816 H         7 CUB7        0.0000 
     23 CA         20.7877   -7.4933   -6.5056 C.3       6 GLY6        0.0000 
     24 N          18.9464   -5.7663   -8.7140 N.2       2 ALA2        0.0000 
     25 CZ         19.5150   -7.0292   -8.1381 C.ar      5 PHE5        0.0000 
     26 N          19.5052   -0.7697   -2.2162 N.2       2 ALA2        0.0000 
     27 OG         20.0739   -2.0326   -1.6403 O.2       1 SER1        0.0000 
     28 N          18.8012   -1.5685   -3.2727 N.2       2 ALA2        0.0000 
     29 OG         19.3699   -2.8314   -2.6968 O.2       1 SER1        0.0000 
     30 N          18.6659   -3.6303   -3.7533 N.2       2 ALA2        0.0000 
     31 OG         19.2346   -4.8932   -3.1774 O.2       1 SER1        0.0000 
     32 OG         19.8032   -6.1561   -2.6014 O.2       1 SER1        0.0000 
     33 CZ         18.5305   -5.6920   -4.2339 C.ar      5 PHE5        0.0000 
     34 CZ         19.0992   -6.9549   -3.6579 C.ar      5 PHE5        0.0000 
     35 N          19.6679   -8.2178   -3.0820 N.2       2 ALA2        0.0000 
     36 CZ         18.3952   -7.7537   -4.7145 C.ar      5 PHE5        0.0000 
     37 CA         18.9639   -9.0166   -4.1385 C.3       6 GLY6        0.0000 
     38 CA         17.6912   -8.5526   -5.7710 C.3       6 GLY6        0.0000 
     39 NZ         18.2599   -9.8155   -5.1951 N.2       4 LYS4        0.0000 
     40 CA         16.9872   -9.3514   -6.8275 C.3       6 GLY6        0.0000 
     41 CZ         23.2468   -1.5676    0.1532 C.ar      5 PHE5        0.0000 
     42 OD1        23.8155   -2.8305    0.7291 O.3       3 ASP3        0.0000 
     43 OD1        24.3842   -4.0934    1.3050 O.3       3 ASP3        0.0000 
     44 CZ         22.5428   -2.3664   -0.9034 C.ar      5 PHE5        0.0000 
     45 CZ         23.1115   -3.6293   -0.3274 C.ar      5 PHE5        0.0000 
     46 CZ         21.2701   -1.9024   -2.5358 C.ar      5 PHE5        0.0000 
     47 CZ         21.8388   -3.1653   -1.9599 C.ar      5 PHE5        0.0000 
     48 CA         22.4075   -4.4282   -1.3839 C.3       6 GLY6        0.0000 
     49 N          19.9975   -1.4383   -4.1683 N.2       2 ALA2        0.0000 
     50 N          20.5661   -2.7012   -3.5924 N.2       2 ALA2        0.0000 
     51 OG         21.1348   -3.9641   -3.0164 O.2       1 SER1        0.0000 
     52 OG         21.7035   -5.2270   -2.4405 O.2       1 SER1        0.0000 
     53 N          19.8621   -3.5000   -4.6489 N.2       2 ALA2        0.0000 
     54 OG         20.4308   -4.7629   -4.0729 O.2       1 SER1        0.0000 
     55 CA         20.9995   -6.0258   -3.4970 C.3       6 GLY6        0.0000 
     56 CA         21.5681   -7.2887   -2.9211 C.3       6 GLY6        0.0000 
     57 CZ         19.1581   -4.2989   -5.7054 C.ar      5 PHE5        0.0000 
     58 CZ         19.7268   -5.5618   -5.1295 C.ar      5 PHE5        0.0000 
     59 CA         20.2955   -6.8247   -4.5535 C.3       6 GLY6        0.0000 
     60 CZ         18.4541   -5.0977   -6.7619 C.ar      5 PHE5        0.0000 
     61 CZ         19.0228   -6.3606   -6.1860 C.ar      5 PHE5        0.0000 
     62 CA         19.5914   -7.6235   -5.6100 C.3       6 GLY6        0.0000 
     63 CA         20.1601   -8.8864   -5.0341 C.3       6 GLY6        0.0000 
     64 N          17.7501   -5.8965   -7.8185 N.2       2 ALA2        0.0000 
     65 CZ         18.3188   -7.1594   -7.2425 C.ar      5 PHE5        0.0000 
     66 CZ         18.8874   -8.4223   -6.6666 C.ar      5 PHE5        0.0000 
     67 CA         19.4561   -9.6852   -6.0906 C.3       6 GLY6        0.0000 
     68 CA         17.6148   -7.9583   -8.2990 C.3       6 GLY6        0.0000 
     69 NZ         18.1834   -9.2212   -7.7231 N.2       4 LYS4        0.0000 
     70 CA         20.1426   -5.6361   -9.6096 C.3       6 GLY6        0.0000 
     71 CZ         20.7113   -6.8990   -9.0336 C.ar      5 PHE5        0.0000 
     72 O          23.8842   -6.4340   -7.2402 O.2       2 ALA2        0.0000 
     73 CA         19.1483    1.9606    0.2165 C.3       6 GLY6        0.0000 
     74 N          19.7170    0.6977    0.7924 N.2       2 ALA2        0.0000 
     75 CA         20.2857   -0.5652    1.3684 C.3       6 GLY6        0.0000 
     76 N          18.4443    1.1618   -0.8400 N.2       2 ALA2        0.0000 
     77 N          19.0130   -0.1011   -0.2641 N.2       2 ALA2        0.0000 
     78 OG         19.5817   -1.3640    0.3118 O.2       1 SER1        0.0000 
     79 CA         20.1503   -2.6269    0.8878 C.3       6 GLY6        0.0000 
     80 N          18.3090   -0.8999   -1.3206 N.2       2 ALA2        0.0000 
     81 OG         18.8777   -2.1628   -0.7447 O.2       1 SER1        0.0000 
     82 O          17.7676   -9.1468   -3.2430 O.2       2 ALA2        0.0000 
     83 CA         19.2248    1.3663    2.7445 C.3       6 GLY6        0.0000 
     84 CZ         23.5273   -3.7036   -4.8076 C.ar      5 PHE5        0.0000 
     85 CZ         22.2546   -3.2396   -6.4400 C.ar      5 PHE5        0.0000 
     86 O          22.8233   -4.5025   -5.8641 O.2       2 ALA2        0.0000 
     87 CA         21.5506   -4.0384   -7.4965 C.3       6 GLY6        0.0000 
     88 O          22.1193   -5.3013   -6.9206 O.2       2 ALA2        0.0000 
     89 CA         20.8466   -4.8372   -8.5531 C.3       6 GLY6        0.0000 
     90 DU         21.4153   -6.1001   -7.9771 H         7 CUB7        0.0000 
     91 CA         21.9839   -7.3630   -7.4012 C.3       6 GLY6        0.0000 
     92 CA         18.5208    0.5675    1.6880 C.3       6 GLY6        0.0000 
     93 DU         17.8168   -0.2313    0.6315 H         7 CUB7        0.0000 
     94 CA         18.3854   -1.4942    1.2074 C.3       6 GLY6        0.0000 
     95 N          17.1128   -1.0302   -0.4251 N.2       2 ALA2        0.0000 
     96 OG         17.6814   -2.2931    0.1509 O.2       1 SER1        0.0000 
     97 OG         16.9774   -3.0919   -0.9056 O.2       1 SER1        0.0000 
     98 CA         16.4852   -2.4233    1.0465 C.3       6 GLY6        0.0000 
     99 O          15.2125   -1.9592   -0.5860 O.2       2 ALA2        0.0000 
    100 CA         22.6115   -5.9699   -8.8727 C.3       6 GLY6        0.0000 
    101 CA         23.1802   -7.2328   -8.2968 C.3       6 GLY6        0.0000 
@<TRIPOS>BOND
@<TRIPOS>SUBSTRUCTURE
     1 SER1        2 GROUP   
     2 ALA2        1 GROUP   
     3 ASP3       42 GROUP   
     4 LYS4       39 GROUP   
     5 PHE5        4 GROUP   
     6 GLY6        7 GROUP   
     7 CUB7       14 GROUP   
@<TRIPOS>SET

