#    Name: 3law_GNP_2_INTS_M
#    Modification time : Mon Mar 24 21:17:41 2014

@<TRIPOS>MOLECULE
3law_GNP_2_INTS_M
   87     0    15     0     0
SMALL
NO_CHARGES


@<TRIPOS>ATOM
      1 N          28.3310   -1.5465    0.0260 N.am      2 SEC2        0.0000 
      2 N          27.1930   -1.0100    0.9920 N.am     12 SEL2        0.0000 
      3 N          29.4690   -2.0830   -0.9400 N.am      7 SEP2        0.0000 
      4 N          27.0205   -0.5890   -0.1685 N.am      2 SEC2        0.0000 
      5 N          26.8480   -0.1680   -1.3290 N.am      7 SEP2        0.0000 
      6 Zn         24.5255   -1.5615    3.1025 Zn        4 ZIC7        0.0000 
      7 Zn         25.0480   -1.1750    2.4300 Zn       14 ZIL7        0.0000 
      8 Zn         24.0030   -1.9480    3.7750 Zn        9 ZIP7        0.0000 
      9 N          25.2235    0.5360    2.5865 N.am      2 SEC2        0.0000 
     10 N          25.0480   -1.1750    2.4300 N.am     12 SEL2        0.0000 
     11 N          25.3990    2.2470    2.7430 N.am      7 SEP2        0.0000 
     12 N          24.5490   -0.4090    3.4385 N.am      2 SEC2        0.0000 
     13 N          24.0500    0.3570    4.4470 N.am      7 SEP2        0.0000 
     14 NZ         27.1235   -4.1155    3.0950 N.4       3 LYC4        0.0000 
     15 NZ         27.1530   -2.6950    2.7180 N.4      13 LYL4        0.0000 
     16 NZ         27.0940   -5.5360    3.4720 N.4       8 LYP4        0.0000 
     17 N          27.1235   -4.1155    3.0950 N.am      2 SEC2        0.0000 
     18 N          27.1530   -2.6950    2.7180 N.am     12 SEL2        0.0000 
     19 N          27.0940   -5.5360    3.4720 N.am      7 SEP2        0.0000 
     20 N          28.2270   -2.3235    3.6095 N.am      2 SEC2        0.0000 
     21 N          29.3010   -1.9520    4.5010 N.am      7 SEP2        0.0000 
     22 NZ         26.0795   -5.3995    2.4735 N.4       3 LYC4        0.0000 
     23 NZ         25.0650   -5.2630    1.4750 N.4      13 LYL4        0.0000 
     24 N          26.2080   -4.9115    0.2240 N.am      2 SEC2        0.0000 
     25 N          25.0650   -5.2630    1.4750 N.am     12 SEL2        0.0000 
     26 N          27.3510   -4.5600   -1.0270 N.am      7 SEP2        0.0000 
     27 N          24.4250   -6.3400    0.6965 N.am      2 SEC2        0.0000 
     28 N          23.7850   -7.4170   -0.0820 N.am      7 SEP2        0.0000 
     29 N          23.9640   -6.1525    1.9400 N.am      2 SEC2        0.0000 
     30 N          22.8630   -7.0420    2.4050 N.am      7 SEP2        0.0000 
     31 N          26.0795   -5.3995    2.4735 N.am      2 SEC2        0.0000 
     32 Zn         23.7570   -2.6745    2.9365 Zn        4 ZIC7        0.0000 
     33 Zn         23.5110   -3.4010    2.0980 Zn       14 ZIL7        0.0000 
     34 N          22.5010   -4.0855    2.8580 N.am      2 SEC2        0.0000 
     35 N          23.5110   -3.4010    2.0980 N.am     12 SEL2        0.0000 
     36 N          21.4910   -4.7700    3.6180 N.am      7 SEP2        0.0000 
     37 N          20.2515   -4.5850    1.2285 N.am      2 SEC2        0.0000 
     38 N          21.3400   -4.3670    0.3250 N.am     12 SEL2        0.0000 
     39 N          19.1630   -4.8030    2.1320 N.am      7 SEP2        0.0000 
     40 N          20.1855   -4.5270   -0.1680 N.am      2 SEC2        0.0000 
     41 N          19.0310   -4.6870   -0.6610 N.am      7 SEP2        0.0000 
     42 N          20.5170   -4.3800   -1.3335 N.am      2 SEC2        0.0000 
     43 N          22.0030   -4.0730   -2.0060 N.am     12 SEL2        0.0000 
     44 CA         24.7800   -4.2985   -2.6275 C.3       5 GLC5        0.0000 
     45 CA         22.9730   -3.7690   -3.0010 C.3      15 GLL5        0.0000 
     46 CA         26.5870   -4.8280   -2.2540 C.3      10 GLP5        0.0000 
     47 CA         22.7380   -2.2715   -5.7615 C.3       5 GLC5        0.0000 
     48 CA         21.1100   -3.1460   -4.6040 C.3      15 GLL5        0.0000 
     49 CA         24.3660   -1.3970   -6.9190 C.3      10 GLP5        0.0000 
     50 O          19.8635   -1.7380   -6.1330 O.2       1 ALC1        0.0000 
     51 O          20.9780   -2.8300   -5.9730 O.2      11 ALL1        0.0000 
     52 O          18.7490   -0.6460   -6.2930 O.2       6 ALP1        0.0000 
     53 CA         18.0760   -5.0765   -3.9735 C.3       5 GLC5        0.0000 
     54 CA         20.0550   -4.1600   -4.2270 C.3      15 GLL5        0.0000 
     55 CA         16.0970   -5.9930   -3.7200 C.3      10 GLP5        0.0000 
     56 O          17.5020   -2.9520   -4.3535 O.2       1 ALC1        0.0000 
     57 O          18.8150   -3.9030   -4.8240 O.2      11 ALL1        0.0000 
     58 O          16.1890   -2.0010   -3.8830 O.2       6 ALP1        0.0000 
     59 CA         21.8335   -7.0400   -4.6865 C.3       5 GLC5        0.0000 
     60 CA         20.6420   -5.4230   -4.8260 C.3      15 GLL5        0.0000 
     61 CA         23.0250   -8.6570   -4.5470 C.3      10 GLP5        0.0000 
     62 N          20.3145   -9.2950   -1.8245 N.am      2 SEC2        0.0000 
     63 N          19.6370   -8.1280   -2.6370 N.am     12 SEL2        0.0000 
     64 N          20.9920  -10.4620   -1.0120 N.am      7 SEP2        0.0000 
     65 CA         20.5035   -9.7450   -4.1975 C.3       5 GLC5        0.0000 
     66 CA         19.1890   -8.5700   -3.8730 C.3      15 GLL5        0.0000 
     67 CA         21.8180  -10.9200   -4.5220 C.3      10 GLP5        0.0000 
     68 CA         18.0760   -8.8350   -2.1245 C.3       5 GLC5        0.0000 
     69 CA         16.9630   -9.1000   -0.3760 C.3      10 GLP5        0.0000 
     70 N          17.2985  -10.9690   -2.4510 N.am      2 SEC2        0.0000 
     71 N          18.1670  -10.6870   -3.5050 N.am     12 SEL2        0.0000 
     72 N          16.4300  -11.2510   -1.3970 N.am      7 SEP2        0.0000 
     73 N          16.5380  -10.1630   -3.2155 N.am      2 SEC2        0.0000 
     74 N          14.9090   -9.6390   -2.9260 N.am      7 SEP2        0.0000 
     75 O          17.6695  -11.0375   -5.8335 O.2       1 ALC1        0.0000 
     76 O          18.2270   -9.8090   -5.5900 O.2      11 ALL1        0.0000 
     77 O          17.1120  -12.2660   -6.0770 O.2       6 ALP1        0.0000 
     78 O          17.5960  -10.4905   -8.0010 O.2       1 ALC1        0.0000 
     79 O          18.2150   -9.0780   -7.7440 O.2      11 ALL1        0.0000 
     80 O          16.9770  -11.9030   -8.2580 O.2       6 ALP1        0.0000 
     81 CA         21.2490   -8.1585   -4.6980 C.3       5 GLC5        0.0000 
     82 CA         19.4730   -7.6600   -4.8490 C.3      15 GLL5        0.0000 
     83 CA         23.9832   -2.7332   -4.7900 C.3       5 GLC5        0.0000 
     84 CA         25.2870   -1.6140   -5.8880 C.3      10 GLP5        0.0000 
     85 CA         22.7069   -1.9151   -3.4825 C.3       5 GLC5        0.0000 
     86 CA         22.3860   -3.9360   -4.3830 C.3      15 GLL5        0.0000 
     87 CA         23.5190   -0.3310   -2.8170 C.3      10 GLP5        0.0000 
@<TRIPOS>BOND
@<TRIPOS>SUBSTRUCTURE
     1 ALC1       50 GROUP        1 X    ALC  0     ROOT ALC X 1
     2 SEC2        1 GROUP        1 X    SEC  0     **** SEC X 2
     3 LYC4       14 GROUP        1 X    LYC  0     **** LYC X 4
     4 ZIC7        6 GROUP        1 X    ZIC  0     **** ZIC X 5
     5 GLC5       44 GROUP        1 X    GLC  0     **** GLC X 6
     6 ALP1       52 GROUP        1 Y    ALP  0     ROOT ALP Y 8
     7 SEP2        3 GROUP        1 Y    SEP  0     **** SEP Y 9
     8 LYP4       16 GROUP        1 Y    LYP  0     **** LYP Y 11
     9 ZIP7        8 GROUP        1 Y    ZIP  0     **** ZIP Y 12
    10 GLP5       46 GROUP        1 Y    GLP  0     **** GLP Y 13
    11 ALL1       51 GROUP        1 Z    ALL  0     ROOT ALL Z 15
    12 SEL2        2 GROUP        1 Z    SEL  0     **** SEL Z 16
    13 LYL4       15 GROUP        1 Z    LYL  0     **** LYL Z 18
    14 ZIL7        7 GROUP        1 Z    ZIL  0     **** ZIL Z 19
    15 GLL5       45 GROUP        1 Z    GLL  0     **** GLL Z 20
@<TRIPOS>SET

