#    Name: 3law_GNP_2_ligand
#    Modification time : Mon Mar 24 21:17:41 2014

@<TRIPOS>MOLECULE
3law_GNP_2_ligand
   44    46     1     0     0
SMALL
NO_CHARGES


@<TRIPOS>ATOM
      1 PG         26.2390   -1.8900    1.7830 P.3       1 GNP1400     0.0000 
      2 O1G        27.1930   -1.0100    0.9920 O.co2     1 GNP1400     0.0000 
      3 O2G        25.0480   -1.1750    2.4300 O.co2     1 GNP1400     0.0000 
      4 O3G        27.1530   -2.6950    2.7180 O.co2     1 GNP1400     0.0000 
      5 N3B        25.6060   -2.9430    0.7540 N.4       1 GNP1400     0.0000 
      6 PB         24.4500   -3.9770    1.1040 P.3       1 GNP1400     0.0000 
      7 O1B        25.0650   -5.2630    1.4750 O.co2     1 GNP1400     0.0000 
      8 O2B        23.5110   -3.4010    2.0980 O.co2     1 GNP1400     0.0000 
      9 O3A        23.7240   -4.2190   -0.2160 O.3       1 GNP1400     0.0000 
     10 PA         22.3290   -3.6660   -0.5290 P.3       1 GNP1400     0.0000 
     11 O1A        21.3400   -4.3670    0.3250 O.co2     1 GNP1400     0.0000 
     12 O2A        22.3580   -2.1870   -0.4450 O.co2     1 GNP1400     0.0000 
     13 O5'        22.0030   -4.0730   -2.0060 O.3       1 GNP1400     0.0000 
     14 C5'        22.9730   -3.7690   -3.0010 C.3       1 GNP1400     0.0000 
     15 C4'        22.3860   -3.9360   -4.3830 C.3       1 GNP1400     0.0000 
     16 O4'        22.0220   -5.3420   -4.5550 O.3       1 GNP1400     0.0000 
     17 C3'        21.1100   -3.1460   -4.6040 C.3       1 GNP1400     0.0000 
     18 O3'        20.9780   -2.8300   -5.9730 O.3       1 GNP1400     0.0000 
     19 C2'        20.0550   -4.1600   -4.2270 C.3       1 GNP1400     0.0000 
     20 O2'        18.8150   -3.9030   -4.8240 O.3       1 GNP1400     0.0000 
     21 C1'        20.6420   -5.4230   -4.8260 C.3       1 GNP1400     0.0000 
     22 N9         20.1310   -6.6370   -4.2110 N.pl3     1 GNP1400     0.0000 
     23 C8         20.1970   -6.9780   -2.8840 C.2       1 GNP1400     0.0000 
     24 N7         19.6370   -8.1280   -2.6370 N.2       1 GNP1400     0.0000 
     25 C5         19.1890   -8.5700   -3.8730 C.2       1 GNP1400     0.0000 
     26 C6         18.5140   -9.7540   -4.2350 C.2       1 GNP1400     0.0000 
     27 O6         18.1670  -10.6870   -3.5050 O.2       1 GNP1400     0.0000 
     28 N1         18.2270   -9.8090   -5.5900 N.am      1 GNP1400     0.0000 
     29 C2         18.5670   -8.8490   -6.4860 C.2       1 GNP1400     0.0000 
     30 N2         18.2150   -9.0780   -7.7440 N.pl3     1 GNP1400     0.0000 
     31 N3         19.1940   -7.7390   -6.1710 N.2       1 GNP1400     0.0000 
     32 C4         19.4730   -7.6600   -4.8490 C.2       1 GNP1400     0.0000 
     33 H          23.8528   -4.4279   -2.9231 H         1 GNP1400     0.0000 
     34 H          23.3364   -2.7329   -2.9086 H         1 GNP1400     0.0000 
     35 H          23.1052   -3.6604   -5.1239 H         1 GNP1400     0.0000 
     36 H          21.0765   -2.3465   -3.9502 H         1 GNP1400     0.0000 
     37 H          20.0422   -4.2713   -3.1828 H         1 GNP1400     0.0000 
     38 H          20.4635   -5.4130   -5.8794 H         1 GNP1400     0.0000 
     39 H          20.6335   -6.3856   -2.2115 H         1 GNP1400     0.0000 
     40 H          17.7032  -10.6689   -5.9399 H         1 GNP1400     0.0000 
     41 H          17.6831   -9.9088   -7.9078 H         1 GNP1400     0.0000 
     42 H          18.5133   -8.3991   -8.4149 H         1 GNP1400     0.0000 
     43 H          20.2753   -2.1194   -6.0079 H         1 GNP1400     0.0000 
     44 H          18.3389   -3.3012   -4.1827 H         1 GNP1400     0.0000 
@<TRIPOS>BOND
     1    2    1 ar   
     2    3    1 ar   
     3    4    1 ar   
     4    5    1 1    
     5    6    5 1    
     6    7    6 ar   
     7    8    6 ar   
     8    9    6 1    
     9   10    9 1    
    10   11   10 ar   
    11   12   10 ar   
    12   13   10 1    
    13   14   13 1    
    14   15   14 1    
    15   33   14 1    
    16   34   14 1    
    17   16   15 1    
    18   17   15 1    
    19   35   15 1    
    20   21   16 1    
    21   18   17 1    
    22   19   17 1    
    23   36   17 1    
    24   43   18 1    
    25   20   19 1    
    26   21   19 1    
    27   37   19 1    
    28   44   20 1    
    29   22   21 1    
    30   38   21 1    
    31   23   22 1    
    32   32   22 1    
    33   24   23 2    
    34   39   23 1    
    35   25   24 1    
    36   26   25 1    
    37   32   25 2    
    38   27   26 2    
    39   28   26 am   
    40   29   28 1    
    41   40   28 1    
    42   30   29 1    
    43   31   29 2    
    44   41   30 1    
    45   42   30 1    
    46   32   31 1    
@<TRIPOS>SUBSTRUCTURE
     1 GNP1400     1 GROUP   
@<TRIPOS>SET

