#    Name: 2jc0_699_1_INTS_M
#    Modification time : Tue Mar 25 19:56:10 2014

@<TRIPOS>MOLECULE
2jc0_699_1_INTS_M
   42     0     6     0     0
SMALL
NO_CHARGES


@<TRIPOS>ATOM
      1 CA          5.9000   39.9115   52.7785 C.3       2 GLC5        0.0000 
      2 CA          5.4410   41.3790   51.9340 C.3       6 GLL5        0.0000 
      3 CA          6.3590   38.4440   53.6230 C.3       4 GLP5        0.0000 
      4 CA          5.3390   45.2810   51.7755 C.3       2 GLC5        0.0000 
      5 CA          4.6250   43.3570   52.5940 C.3       6 GLL5        0.0000 
      6 CA          6.0530   47.2050   50.9570 C.3       4 GLP5        0.0000 
      7 CA          5.2475   42.0615   49.0395 C.3       2 GLC5        0.0000 
      8 CA          4.6610   42.9470   50.4290 C.3       6 GLL5        0.0000 
      9 CA          5.8340   41.1760   47.6500 C.3       4 GLP5        0.0000 
     10 CA          6.0030   42.4620   53.9065 C.3       2 GLC5        0.0000 
     11 CA          7.3670   43.6370   52.7200 C.3       6 GLL5        0.0000 
     12 CA          4.6390   41.2870   55.0930 C.3       4 GLP5        0.0000 
     13 N          10.0310   48.2030   50.9400 N.am      1 SEC2        0.0000 
     14 N          10.2210   46.9170   51.5540 N.am      5 SEL2        0.0000 
     15 N           9.8410   49.4890   50.3260 N.am      3 SEP2        0.0000 
     16 N          11.6195   48.3205   48.5280 N.am      1 SEC2        0.0000 
     17 N          11.8250   46.7660   49.0050 N.am      5 SEL2        0.0000 
     18 N          11.4140   49.8750   48.0510 N.am      3 SEP2        0.0000 
     19 N          12.4865   48.8705   48.8990 N.am      1 SEC2        0.0000 
     20 N          13.5590   47.8660   49.7470 N.am      5 SEL2        0.0000 
     21 CA         13.9110   47.4655   56.0685 C.3       2 GLC5        0.0000 
     22 CA         13.8440   46.2240   54.7440 C.3       6 GLL5        0.0000 
     23 CA         13.9780   48.7070   57.3930 C.3       4 GLP5        0.0000 
     24 CA         13.5850   45.7315   56.7645 C.3       2 GLC5        0.0000 
     25 CA         13.3260   45.2390   58.7850 C.3       4 GLP5        0.0000 
     26 CA         10.5515   46.0925   55.0020 C.3       2 GLC5        0.0000 
     27 CA         11.9260   44.8470   54.0630 C.3       6 GLL5        0.0000 
     28 CA          9.1770   47.3380   55.9410 C.3       4 GLP5        0.0000 
     29 CA         11.0740   43.4850   55.2245 C.3       2 GLC5        0.0000 
     30 CA         10.2220   42.1230   56.3860 C.3       4 GLP5        0.0000 
     31 CA          6.0183   41.2097   50.4375 C.3       2 GLC5        0.0000 
     32 CA          5.2640   42.6940   51.6080 C.3       6 GLL5        0.0000 
     33 CA          6.6840   40.3830   49.1040 C.3       4 GLP5        0.0000 
     34 CA          4.8139   41.9919   53.6378 C.3       2 GLC5        0.0000 
     35 CA          3.2709   42.4679   51.5909 C.3       2 GLC5        0.0000 
     36 CA          1.7170   42.1140   51.8760 C.3       4 GLP5        0.0000 
     37 CA          6.7523   42.0320   50.0097 C.3       2 GLC5        0.0000 
     38 CA          6.5990   43.4150   51.5370 C.3       6 GLL5        0.0000 
     39 CA          7.7799   45.8250   53.1372 C.3       2 GLC5        0.0000 
     40 CA          7.0590   47.2300   54.2110 C.3       4 GLP5        0.0000 
     41 CA          8.4653   41.2645   48.5530 C.3       2 GLC5        0.0000 
     42 CA         10.2300   41.9930   48.8400 C.3       6 GLL5        0.0000 
@<TRIPOS>BOND
@<TRIPOS>SUBSTRUCTURE
     1 SEC2       13 GROUP        1 X    SEC  0     ROOT SEC X 2
     2 GLC5        1 GROUP        1 X    GLC  0     **** GLC X 6
     3 SEP2       15 GROUP        1 Y    SEP  0     ROOT SEP Y 9
     4 GLP5        3 GROUP        1 Y    GLP  0     **** GLP Y 13
     5 SEL2       14 GROUP        1 Z    SEL  0     ROOT SEL Z 16
     6 GLL5        2 GROUP        1 Z    GLL  0     **** GLL Z 20
@<TRIPOS>SET

