#    Name: 2jc0_699_1_ligand
#    Modification time : Tue Mar 25 19:56:10 2014

@<TRIPOS>MOLECULE
2jc0_699_1_ligand
   52    54     1     0     0
SMALL
NO_CHARGES


@<TRIPOS>ATOM
      1 F54         5.4410   41.3790   51.9340 F         1 6991563     0.0000 
      2 C51         5.2640   42.6940   51.6080 C.3       1 6991563     0.0000 
      3 F52         4.6250   43.3570   52.5940 F         1 6991563     0.0000 
      4 F53         4.6610   42.9470   50.4290 F         1 6991563     0.0000 
      5 C2          6.5990   43.4150   51.5370 C.ar      1 6991563     0.0000 
      6 C1          7.3670   43.6370   52.7200 C.ar      1 6991563     0.0000 
      7 C6          8.5800   44.3530   52.6760 C.ar      1 6991563     0.0000 
      8 C3          7.0420   43.9470   50.2940 C.ar      1 6991563     0.0000 
      9 C4          8.2380   44.6590   50.2560 C.ar      1 6991563     0.0000 
     10 C5          9.0280   44.8450   51.4290 C.ar      1 6991563     0.0000 
     11 C11        10.2970   45.6700   51.3370 C.2       1 6991563     0.0000 
     12 O13        10.2210   46.9170   51.5540 O.2       1 6991563     0.0000 
     13 N12        11.4900   45.1010   50.9700 N.am      1 6991563     0.0000 
     14 C17        12.8050   45.8570   50.9670 C.3       1 6991563     0.0000 
     15 C34        12.7410   46.9920   49.9010 C.2       1 6991563     0.0000 
     16 O36        11.8250   46.7660   49.0050 O.co2     1 6991563     0.0000 
     17 O35        13.5590   47.8660   49.7470 O.co2     1 6991563     0.0000 
     18 C33        13.0380   46.4530   52.4050 C.3       1 6991563     0.0000 
     19 C37        13.2470   45.4710   53.5850 C.3       1 6991563     0.0000 
     20 C44        13.8440   46.2240   54.7440 C.3       1 6991563     0.0000 
     21 C40        11.9260   44.8470   54.0630 C.3       1 6991563     0.0000 
     22 C16        13.7660   44.7240   50.4660 C.3       1 6991563     0.0000 
     23 C15        13.1010   43.4210   50.8420 C.3       1 6991563     0.0000 
     24 C22        13.6050   42.1550   50.1660 C.2       1 6991563     0.0000 
     25 O25        12.8820   41.0770   50.5300 O.co2     1 6991563     0.0000 
     26 O24        14.6870   42.1320   49.6220 O.co2     1 6991563     0.0000 
     27 C14        11.6360   43.6760   50.5750 C.3       1 6991563     0.0000 
     28 C20        11.2190   43.3480   49.1640 C.2       1 6991563     0.0000 
     29 S29        10.2300   41.9930   48.8400 S.3       1 6991563     0.0000 
     30 C26        11.6100   44.0430   47.9950 C.2       1 6991563     0.0000 
     31 C27        11.0150   43.3860   46.8770 C.2       1 6991563     0.0000 
     32 C28        10.2630   42.2990   47.1640 C.2       1 6991563     0.0000 
     33 H           7.0231   43.2657   53.6133 H         1 6991563     0.0000 
     34 H           9.1189   44.5122   53.5162 H         1 6991563     0.0000 
     35 H           6.4862   43.8025   49.4576 H         1 6991563     0.0000 
     36 H           8.5721   45.0659   49.3689 H         1 6991563     0.0000 
     37 H          12.1712   47.1143   52.6417 H         1 6991563     0.0000 
     38 H          13.9188   47.1354   52.3497 H         1 6991563     0.0000 
     39 H          13.9152   44.6965   53.2842 H         1 6991563     0.0000 
     40 H          14.7009   44.8293   50.9678 H         1 6991563     0.0000 
     41 H          13.8615   44.8073   49.4073 H         1 6991563     0.0000 
     42 H          13.1944   43.3115   51.9373 H         1 6991563     0.0000 
     43 H          11.0772   43.0702   51.2881 H         1 6991563     0.0000 
     44 H          12.1590   44.7973   47.9553 H         1 6991563     0.0000 
     45 H          11.1666   43.7360   45.9523 H         1 6991563     0.0000 
     46 H           9.7680   41.6908   46.6619 H         1 6991563     0.0000 
     47 H          13.9998   45.6292   55.5326 H         1 6991563     0.0000 
     48 H          14.7251   46.6331   54.5068 H         1 6991563     0.0000 
     49 H          13.2489   46.9670   55.0503 H         1 6991563     0.0000 
     50 H          12.0681   44.2146   54.8245 H         1 6991563     0.0000 
     51 H          11.2788   45.5421   54.3761 H         1 6991563     0.0000 
     52 H          11.4736   44.3320   53.3349 H         1 6991563     0.0000 
@<TRIPOS>BOND
     1    2    1 1    
     2    3    2 1    
     3    4    2 1    
     4    5    2 1    
     5    6    5 ar   
     6    8    5 ar   
     7    7    6 ar   
     8   33    6 1    
     9   10    7 ar   
    10   34    7 1    
    11    9    8 ar   
    12   35    8 1    
    13   10    9 ar   
    14   36    9 1    
    15   11   10 1    
    16   12   11 2    
    17   13   11 am   
    18   14   13 1    
    19   27   13 1    
    20   15   14 1    
    21   18   14 1    
    22   22   14 1    
    23   16   15 ar   
    24   17   15 ar   
    25   19   18 1    
    26   37   18 1    
    27   38   18 1    
    28   20   19 1    
    29   21   19 1    
    30   39   19 1    
    31   47   20 1    
    32   48   20 1    
    33   49   20 1    
    34   50   21 1    
    35   51   21 1    
    36   52   21 1    
    37   23   22 1    
    38   40   22 1    
    39   41   22 1    
    40   24   23 1    
    41   27   23 1    
    42   42   23 1    
    43   25   24 ar   
    44   26   24 ar   
    45   28   27 1    
    46   43   27 1    
    47   29   28 1    
    48   30   28 2    
    49   32   29 1    
    50   31   30 1    
    51   44   30 1    
    52   32   31 2    
    53   45   31 1    
    54   46   32 1    
@<TRIPOS>SUBSTRUCTURE
     1 6991563     1 GROUP   
@<TRIPOS>SET

