#    Name: 4a9m_P9M_3_INTS_M
#    Modification time : Tue Mar 25 05:19:25 2014

@<TRIPOS>MOLECULE
4a9m_P9M_3_INTS_M
   59     0     6     0     0
SMALL
NO_CHARGES


@<TRIPOS>ATOM
      1 CA          8.1585    6.6110   24.2340 C.3       2 GLC5        0.0000 
      2 CA          7.0920    6.6270   22.2850 C.3       6 GLL5        0.0000 
      3 CA          9.2250    6.5950   26.1830 C.3       4 GLP5        0.0000 
      4 CA          5.8945    9.5720   21.0480 C.3       2 GLC5        0.0000 
      5 CA          6.5180    7.8610   21.6150 C.3       6 GLL5        0.0000 
      6 CA          5.2710   11.2830   20.4810 C.3       4 GLP5        0.0000 
      7 CA          4.6305    9.1460   20.3890 C.3       2 GLC5        0.0000 
      8 CA          5.4160    7.3790   20.6800 C.3       6 GLL5        0.0000 
      9 CA          3.8450   10.9130   20.0980 C.3       4 GLP5        0.0000 
     10 CA          4.7905    8.0700   17.5640 C.3       2 GLC5        0.0000 
     11 CA          2.8780    7.0110   17.8830 C.3       6 GLL5        0.0000 
     12 CA          6.7030    9.1290   17.2450 C.3       4 GLP5        0.0000 
     13 CA          1.7960    5.8345   17.0705 C.3       2 GLC5        0.0000 
     14 CA          0.7140    4.6580   16.2580 C.3       4 GLP5        0.0000 
     15 CA          1.8650    8.7800   22.3065 C.3       2 GLC5        0.0000 
     16 CA          0.2340    7.8120   21.2280 C.3       6 GLL5        0.0000 
     17 CA          3.4960    9.7480   23.3850 C.3       4 GLP5        0.0000 
     18 CA          1.1960    8.5965   23.5180 C.3       2 GLC5        0.0000 
     19 CA         -0.6410    8.0800   22.3870 C.3       6 GLL5        0.0000 
     20 CA          3.0330    9.1130   24.6490 C.3       4 GLP5        0.0000 
     21 CA          0.4490   11.9690   23.5480 C.3       2 GLC5        0.0000 
     22 CA         -0.2470   10.6480   22.8380 C.3       6 GLL5        0.0000 
     23 CA          1.1450   13.2900   24.2580 C.3       4 GLP5        0.0000 
     24 CA         -1.9645   10.0825   21.6235 C.3       2 GLC5        0.0000 
     25 CA         -3.6820    9.5170   20.4090 C.3       4 GLP5        0.0000 
     26 CA          0.1950   10.5225   24.9545 C.3       2 GLC5        0.0000 
     27 CA          0.6370   10.3970   27.0710 C.3       4 GLP5        0.0000 
     28 CA          1.6245   10.1980   23.1115 C.3       2 GLC5        0.0000 
     29 CA         -2.3035    4.5460   21.6405 C.3       2 GLC5        0.0000 
     30 CA         -1.6660    5.6880   22.8510 C.3       6 GLL5        0.0000 
     31 CA         -2.9410    3.4040   20.4300 C.3       4 GLP5        0.0000 
     32 CA         -3.5175    6.3235   23.0695 C.3       2 GLC5        0.0000 
     33 CA         -5.3690    6.9590   23.2880 C.3       4 GLP5        0.0000 
     34 CA         -2.6370    5.0060   24.2170 C.3       2 GLC5        0.0000 
     35 CA         -3.6080    4.3240   25.5830 C.3       4 GLP5        0.0000 
     36 N          -1.3510    7.3935   25.3010 N.am      1 SEC2        0.0000 
     37 N          -2.0390    7.7380   24.0620 N.am      5 SEL2        0.0000 
     38 N          -0.6630    7.0490   26.5400 N.am      3 SEP2        0.0000 
     39 N          -1.1640    8.0845   25.3130 N.am      1 SEC2        0.0000 
     40 N          -1.6650    9.1200   24.0860 N.am      5 SEL2        0.0000 
     41 CA          8.0035    4.8308   21.3608 C.3       2 GLC5        0.0000 
     42 CA          6.2960    5.4380   21.7540 C.3       6 GLL5        0.0000 
     43 CA          9.3130    3.6290   20.7020 C.3       4 GLP5        0.0000 
     44 CA          7.4100    8.9045   22.8655 C.3       2 GLC5        0.0000 
     45 CA          8.0150   10.5650   23.7810 C.3       4 GLP5        0.0000 
     46 CA          6.8060    8.1105   19.6482 C.3       2 GLC5        0.0000 
     47 CA          7.6450    8.6010   18.1490 C.3       4 GLP5        0.0000 
     48 CA          4.7315    8.6840   22.2662 C.3       2 GLC5        0.0000 
     49 CA          0.4328    6.2700   18.6627 C.3       2 GLC5        0.0000 
     50 CA          1.8600    6.3710   20.1690 C.3       6 GLL5        0.0000 
     51 CA         -1.0520    5.7340   17.7050 C.3       4 GLP5        0.0000 
     52 CA         -0.1477    7.1445   18.6665 C.3       2 GLC5        0.0000 
     53 CA          1.1870    8.4070   19.0980 C.3       6 GLL5        0.0000 
     54 CA          2.3993    9.5883   19.8597 C.3       2 GLC5        0.0000 
     55 CA          1.9750    7.2410   19.0720 C.3       6 GLL5        0.0000 
     56 CA         -1.7010    8.8872   20.5510 C.3       2 GLC5        0.0000 
     57 CA          0.3260    8.7030   20.1580 C.3       6 GLL5        0.0000 
     58 CA         -0.2150    6.4860   19.4645 C.3       2 GLC5        0.0000 
     59 CA         -2.3498    8.5675   21.5598 C.3       2 GLC5        0.0000 
@<TRIPOS>BOND
@<TRIPOS>SUBSTRUCTURE
     1 SEC2       36 GROUP        1 X    SEC  0     ROOT SEC X 2
     2 GLC5        1 GROUP        1 X    GLC  0     **** GLC X 6
     3 SEP2       38 GROUP        1 Y    SEP  0     ROOT SEP Y 9
     4 GLP5        3 GROUP        1 Y    GLP  0     **** GLP Y 13
     5 SEL2       37 GROUP        1 Z    SEL  0     ROOT SEL Z 16
     6 GLL5        2 GROUP        1 Z    GLL  0     **** GLL Z 20
@<TRIPOS>SET

