#    Name: 4a9m_P9M_3_ligand
#    Modification time : Tue Mar 25 05:19:25 2014

@<TRIPOS>MOLECULE
4a9m_P9M_3_ligand
   45    47     1     0     0
SMALL
NO_CHARGES


@<TRIPOS>ATOM
      1 O3          2.5000    4.3020   21.5930 O.2       1 P9M1183     0.0000 
      2 S           2.7720    4.8540   20.3010 S.o2      1 P9M1183     0.0000 
      3 O2          2.4570    4.0890   19.1300 O.2       1 P9M1183     0.0000 
      4 N2          4.3440    5.1940   20.2430 N.pl3     1 P9M1183     0.0000 
      5 C13         4.9730    6.0460   21.2750 C.3       1 P9M1183     0.0000 
      6 C17         6.2960    5.4380   21.7540 C.3       1 P9M1183     0.0000 
      7 C16         7.0920    6.6270   22.2850 C.3       1 P9M1183     0.0000 
      8 C15         6.5180    7.8610   21.6150 C.3       1 P9M1183     0.0000 
      9 C14         5.4160    7.3790   20.6800 C.3       1 P9M1183     0.0000 
     10 C11         1.8600    6.3710   20.1690 C.ar      1 P9M1183     0.0000 
     11 C9          1.9750    7.2410   19.0720 C.ar      1 P9M1183     0.0000 
     12 C10         2.8780    7.0110   17.8830 C.3       1 P9M1183     0.0000 
     13 C8          1.1870    8.4070   19.0980 C.ar      1 P9M1183     0.0000 
     14 C7          0.3260    8.7030   20.1580 C.ar      1 P9M1183     0.0000 
     15 C12         1.0100    6.6640   21.2200 C.ar      1 P9M1183     0.0000 
     16 C6          0.2340    7.8120   21.2280 C.ar      1 P9M1183     0.0000 
     17 C5         -0.6410    8.0800   22.3870 C.2       1 P9M1183     0.0000 
     18 C2         -0.8300    9.2860   23.0900 C.2       1 P9M1183     0.0000 
     19 C1         -0.2470   10.6480   22.8380 C.3       1 P9M1183     0.0000 
     20 C3         -1.3940    7.1560   23.0340 C.2       1 P9M1183     0.0000 
     21 C4         -1.6660    5.6880   22.8510 C.3       1 P9M1183     0.0000 
     22 O1         -2.0390    7.7380   24.0620 O.3       1 P9M1183     0.0000 
     23 N1         -1.6650    9.1200   24.0860 N.2       1 P9M1183     0.0000 
     24 H           4.8450    4.8040   19.4900 H         1 P9M1183     0.0000 
     25 H           4.3578    6.2228   22.1013 H         1 P9M1183     0.0000 
     26 H           6.8060    5.0000   20.9312 H         1 P9M1183     0.0000 
     27 H           6.1079    4.7487   22.5404 H         1 P9M1183     0.0000 
     28 H           8.1243    6.5144   22.0189 H         1 P9M1183     0.0000 
     29 H           6.9658    6.6967   23.3472 H         1 P9M1183     0.0000 
     30 H           7.2822    8.3547   21.0454 H         1 P9M1183     0.0000 
     31 H           6.1000    8.5161   22.3555 H         1 P9M1183     0.0000 
     32 H           4.6050    8.0661   20.6933 H         1 P9M1183     0.0000 
     33 H           5.8114    7.2242   19.7055 H         1 P9M1183     0.0000 
     34 H           1.2509    9.0692   18.2977 H         1 P9M1183     0.0000 
     35 H          -0.2280    9.5598   20.1490 H         1 P9M1183     0.0000 
     36 H           0.9509    6.0065   22.0256 H         1 P9M1183     0.0000 
     37 H           3.8391    6.9507   18.1527 H         1 P9M1183     0.0000 
     38 H           2.6538    6.1616   17.4052 H         1 P9M1183     0.0000 
     39 H           2.8071    7.7510   17.2142 H         1 P9M1183     0.0000 
     40 H           0.7517   10.6394   22.8875 H         1 P9M1183     0.0000 
     41 H          -0.4926   10.9955   21.9331 H         1 P9M1183     0.0000 
     42 H          -0.5679   11.3188   23.5066 H         1 P9M1183     0.0000 
     43 H          -0.8288    5.1446   22.9131 H         1 P9M1183     0.0000 
     44 H          -2.2951    5.3375   23.5449 H         1 P9M1183     0.0000 
     45 H          -2.0756    5.4945   21.9595 H         1 P9M1183     0.0000 
@<TRIPOS>BOND
     1    2    1 2    
     2    3    2 2    
     3    4    2 1    
     4   10    2 1    
     5    5    4 1    
     6   24    4 1    
     7    6    5 1    
     8    9    5 1    
     9   25    5 1    
    10    7    6 1    
    11   26    6 1    
    12   27    6 1    
    13    8    7 1    
    14   28    7 1    
    15   29    7 1    
    16    9    8 1    
    17   30    8 1    
    18   31    8 1    
    19   32    9 1    
    20   33    9 1    
    21   11   10 ar   
    22   15   10 ar   
    23   12   11 1    
    24   13   11 ar   
    25   37   12 1    
    26   38   12 1    
    27   39   12 1    
    28   14   13 ar   
    29   34   13 1    
    30   16   14 ar   
    31   35   14 1    
    32   16   15 ar   
    33   36   15 1    
    34   17   16 1    
    35   18   17 1    
    36   20   17 2    
    37   19   18 1    
    38   23   18 2    
    39   40   19 1    
    40   41   19 1    
    41   42   19 1    
    42   21   20 1    
    43   22   20 1    
    44   43   21 1    
    45   44   21 1    
    46   45   21 1    
    47   23   22 1    
@<TRIPOS>SUBSTRUCTURE
     1 P9M1183     1 GROUP   
@<TRIPOS>SET

