#    Name: 3ubd_SL0_1_INTS_M
#    Modification time : Mon Mar 24 22:07:31 2014

@<TRIPOS>MOLECULE
3ubd_SL0_1_INTS_M
   66     0     6     0     0
SMALL
NO_CHARGES


@<TRIPOS>ATOM
      1 CA         27.5365    9.0690    7.8820 C.3       2 GLC5        0.0000 
      2 CA         28.2800    7.5390    7.1910 C.3       6 GLL5        0.0000 
      3 CA         26.7930   10.5990    8.5730 C.3       4 GLP5        0.0000 
      4 CA         28.8370    7.5300    9.2075 C.3       2 GLC5        0.0000 
      5 CA         29.3940    7.5210   11.2240 C.3       4 GLP5        0.0000 
      6 CA         32.1455    9.3935    9.8430 C.3       2 GLC5        0.0000 
      7 CA         32.9880    7.7000    8.9650 C.3       6 GLL5        0.0000 
      8 CA         31.3030   11.0870   10.7210 C.3       4 GLP5        0.0000 
      9 CA         33.3370    9.4190    7.7745 C.3       2 GLC5        0.0000 
     10 CA         33.6860   11.1380    6.5840 C.3       4 GLP5        0.0000 
     11 CA         34.2715    9.0290    9.4135 C.3       2 GLC5        0.0000 
     12 CA         35.5550   10.3580    9.8620 C.3       4 GLP5        0.0000 
     13 CA         31.1910    7.6105   10.0945 C.3       2 GLC5        0.0000 
     14 CA         34.3150    1.8815    8.3765 C.3       2 GLC5        0.0000 
     15 CA         34.5220    3.5580    8.9340 C.3       6 GLL5        0.0000 
     16 CA         34.1080    0.2050    7.8190 C.3       4 GLP5        0.0000 
     17 CA         33.7775    1.6210    9.5705 C.3       2 GLC5        0.0000 
     18 CA         33.8470    3.5330   10.0910 C.3       6 GLL5        0.0000 
     19 CA         33.7080   -0.2910    9.0500 C.3       4 GLP5        0.0000 
     20 CA         33.6055    2.2790   11.7475 C.3       2 GLC5        0.0000 
     21 CA         33.3640    1.0250   13.4040 C.3       4 GLP5        0.0000 
     22 CA         32.5830    2.5120   12.4445 C.3       2 GLC5        0.0000 
     23 CA         31.8020    3.9990   11.4850 C.3       6 GLL5        0.0000 
     24 O          27.9110    3.5785   12.1025 O.2       1 ALC1        0.0000 
     25 O          28.2170    3.5160   10.8230 O.2       5 ALL1        0.0000 
     26 O          27.6050    3.6410   13.3820 O.2       3 ALP1        0.0000 
     27 CA         36.0645    2.8265   14.6345 C.3       2 GLC5        0.0000 
     28 CA         36.5040    3.1330   12.6960 C.3       6 GLL5        0.0000 
     29 CA         35.6250    2.5200   16.5730 C.3       4 GLP5        0.0000 
     30 CA         36.9740    5.1965   13.0960 C.3       2 GLC5        0.0000 
     31 CA         37.4440    7.2600   13.4960 C.3       4 GLP5        0.0000 
     32 CA         36.5210    0.9580   13.0535 C.3       2 GLC5        0.0000 
     33 CA         36.5380   -1.2170   13.4110 C.3       4 GLP5        0.0000 
     34 CA         37.4565    2.6500   14.9395 C.3       2 GLC5        0.0000 
     35 CA         37.8590    2.9950   12.8100 C.3       6 GLL5        0.0000 
     36 CA         37.0540    2.3050   17.0690 C.3       4 GLP5        0.0000 
     37 O          39.6395    2.7790   13.9180 O.2       1 ALC1        0.0000 
     38 O          38.3520    2.8840   14.0760 O.2       5 ALL1        0.0000 
     39 O          40.9270    2.6740   13.7600 O.2       3 ALP1        0.0000 
     40 CA         40.4890    3.4360   10.9700 C.3       2 GLC5        0.0000 
     41 CA         38.6870    3.0070   11.6940 C.3       6 GLL5        0.0000 
     42 CA         42.2910    3.8650   10.2460 C.3       4 GLP5        0.0000 
     43 CA         34.2545    3.0008    5.7812 C.3       2 GLC5        0.0000 
     44 CA         34.2300    4.8250    6.9730 C.3       6 GLL5        0.0000 
     45 CA         34.7490    1.1260    5.1920 C.3       4 GLP5        0.0000 
     46 CA         35.3040    5.6798    5.5697 C.3       2 GLC5        0.0000 
     47 CA         33.2900    4.9260    5.7680 C.3       6 GLL5        0.0000 
     48 CA         36.8480    6.4840    4.7690 C.3       4 GLP5        0.0000 
     49 CA         31.5690    4.0382   13.5963 C.3       2 GLC5        0.0000 
     50 CA         32.0240    4.0790   15.6110 C.3       4 GLP5        0.0000 
     51 CA         29.8755    5.6419   11.1694 C.3       2 GLC5        0.0000 
     52 CA         29.6000    3.5280   10.6480 C.3       6 GLL5        0.0000 
     53 CA         30.4138    1.1760    8.9178 C.3       2 GLC5        0.0000 
     54 CA         30.1300    3.0750    9.4420 C.3       6 GLL5        0.0000 
     55 CA         30.0030   -0.7240    8.4890 C.3       4 GLP5        0.0000 
     56 CA         37.2785    5.0585   10.9947 C.3       2 GLC5        0.0000 
     57 CA         35.9840    3.2440   11.4380 C.3       6 GLL5        0.0000 
     58 CA         38.1850    6.8590   11.1150 C.3       4 GLP5        0.0000 
     59 CA         34.8040    2.1067   12.7355 C.3       2 GLC5        0.0000 
     60 CA         38.9760    4.6110   12.6430 C.3       2 GLC5        0.0000 
     61 CA         39.6790    6.2210   13.0340 C.3       4 GLP5        0.0000 
     62 CA         38.6170    1.0505   12.5825 C.3       2 GLC5        0.0000 
     63 CA         38.9610   -0.9000   12.9130 C.3       4 GLP5        0.0000 
     64 CA         30.8439    1.8629   11.4031 C.3       2 GLC5        0.0000 
     65 CA         30.4260    3.9960   11.6780 C.3       6 GLL5        0.0000 
     66 CA         31.1680    0.2430   12.4260 C.3       4 GLP5        0.0000 
@<TRIPOS>BOND
@<TRIPOS>SUBSTRUCTURE
     1 ALC1       24 GROUP        1 X    ALC  0     ROOT ALC X 1
     2 GLC5        1 GROUP        1 X    GLC  0     **** GLC X 6
     3 ALP1       26 GROUP        1 Y    ALP  0     ROOT ALP Y 8
     4 GLP5        3 GROUP        1 Y    GLP  0     **** GLP Y 13
     5 ALL1       25 GROUP        1 Z    ALL  0     ROOT ALL Z 15
     6 GLL5        2 GROUP        1 Z    GLL  0     **** GLL Z 20
@<TRIPOS>SET

