#    Name: 3ubd_SL0_1_ligand
#    Modification time : Mon Mar 24 22:07:31 2014

@<TRIPOS>MOLECULE
3ubd_SL0_1_ligand
   60    63     1     0     0
SMALL
NO_CHARGES


@<TRIPOS>ATOM
      1 C1         29.1130    4.4050    3.7940 C.3       1 SL0400      0.0000 
      2 C2         30.2380    4.2500    4.8370 C.2       1 SL0400      0.0000 
      3 O1         30.4900    3.1340    5.3250 O.2       1 SL0400      0.0000 
      4 O2         31.0660    5.3260    5.1160 O.3       1 SL0400      0.0000 
      5 C3         31.9260    5.2090    6.2080 C.3       1 SL0400      0.0000 
      6 C4         33.2900    4.9260    5.7680 C.3       1 SL0400      0.0000 
      7 O3         33.7050    5.9640    4.9330 O.3       1 SL0400      0.0000 
      8 C5         31.8580    6.4870    7.0650 C.3       1 SL0400      0.0000 
      9 O4         30.5750    6.6780    7.5630 O.3       1 SL0400      0.0000 
     10 C6         29.7620    7.6910    7.0820 C.2       1 SL0400      0.0000 
     11 O5         30.2510    8.6280    6.4290 O.2       1 SL0400      0.0000 
     12 C7         28.2800    7.5390    7.1910 C.3       1 SL0400      0.0000 
     13 C8         32.8920    6.4000    8.1620 C.3       1 SL0400      0.0000 
     14 C9         32.9880    7.7000    8.9650 C.3       1 SL0400      0.0000 
     15 O6         34.1380    6.0250    7.6700 O.3       1 SL0400      0.0000 
     16 C10        34.2300    4.8250    6.9730 C.3       1 SL0400      0.0000 
     17 O7         33.8510    3.6850    7.7120 O.3       1 SL0400      0.0000 
     18 C11        34.5220    3.5580    8.9340 C.2       1 SL0400      0.0000 
     19 C12        36.0500    3.4170    8.9570 C.2       1 SL0400      0.0000 
     20 O8         36.7260    3.4420    7.9170 O.2       1 SL0400      0.0000 
     21 C13        33.8470    3.5330   10.0910 C.2       1 SL0400      0.0000 
     22 C14        32.3280    3.5880   10.2540 C.ar      1 SL0400      0.0000 
     23 C15        31.8020    3.9990   11.4850 C.ar      1 SL0400      0.0000 
     24 C16        30.4260    3.9960   11.6780 C.ar      1 SL0400      0.0000 
     25 C17        29.6000    3.5280   10.6480 C.ar      1 SL0400      0.0000 
     26 O9         28.2170    3.5160   10.8230 O.3       1 SL0400      0.0000 
     27 C18        30.1300    3.0750    9.4420 C.ar      1 SL0400      0.0000 
     28 C19        31.5190    3.0770    9.2510 C.ar      1 SL0400      0.0000 
     29 O10        34.4880    3.4020   11.3230 O.3       1 SL0400      0.0000 
     30 C20        35.9840    3.2440   11.4380 C.ar      1 SL0400      0.0000 
     31 C21        36.5040    3.1330   12.6960 C.ar      1 SL0400      0.0000 
     32 C22        37.8590    2.9950   12.8100 C.ar      1 SL0400      0.0000 
     33 O11        38.3520    2.8840   14.0760 O.3       1 SL0400      0.0000 
     34 C23        38.6870    3.0070   11.6940 C.ar      1 SL0400      0.0000 
     35 C24        38.1190    3.1390   10.4420 C.ar      1 SL0400      0.0000 
     36 C25        36.7600    3.2720   10.3110 C.ar      1 SL0400      0.0000 
     37 O12        38.9280    3.1410    9.2800 O.co2     1 SL0400      0.0000 
     38 H          31.5923    4.3861    6.8664 H         1 SL0400      0.0000 
     39 H          33.3128    3.9739    5.2556 H         1 SL0400      0.0000 
     40 H          32.1586    7.3120    6.4002 H         1 SL0400      0.0000 
     41 H          32.5234    5.6275    8.8830 H         1 SL0400      0.0000 
     42 H          35.2285    4.6917    6.5448 H         1 SL0400      0.0000 
     43 H          32.4313    4.2989   12.2348 H         1 SL0400      0.0000 
     44 H          30.0198    4.3273   12.5515 H         1 SL0400      0.0000 
     45 H          29.5124    2.7418    8.6971 H         1 SL0400      0.0000 
     46 H          31.9184    2.7088    8.3901 H         1 SL0400      0.0000 
     47 H          35.9039    3.1523   13.5201 H         1 SL0400      0.0000 
     48 H          39.7000    2.9193   11.8021 H         1 SL0400      0.0000 
     49 H          29.0175    5.3525    3.4888 H         1 SL0400      0.0000 
     50 H          29.2828    3.8503    2.9794 H         1 SL0400      0.0000 
     51 H          28.2258    4.1242    4.1601 H         1 SL0400      0.0000 
     52 H          27.9525    6.7311    6.7010 H         1 SL0400      0.0000 
     53 H          27.9853    7.4446    8.1419 H         1 SL0400      0.0000 
     54 H          27.7968    8.3279    6.8113 H         1 SL0400      0.0000 
     55 H          33.6760    7.6399    9.6882 H         1 SL0400      0.0000 
     56 H          33.2380    8.4763    8.3864 H         1 SL0400      0.0000 
     57 H          32.1198    7.9298    9.4048 H         1 SL0400      0.0000 
     58 H          33.2177    5.8145    4.0727 H         1 SL0400      0.0000 
     59 H          28.0809    3.5729   11.8121 H         1 SL0400      0.0000 
     60 H          39.2554    3.3114   14.0402 H         1 SL0400      0.0000 
@<TRIPOS>BOND
     1    2    1 1    
     2   49    1 1    
     3   50    1 1    
     4   51    1 1    
     5    3    2 2    
     6    4    2 1    
     7    5    4 1    
     8    6    5 1    
     9    8    5 1    
    10   38    5 1    
    11    7    6 1    
    12   16    6 1    
    13   39    6 1    
    14   58    7 1    
    15    9    8 1    
    16   13    8 1    
    17   40    8 1    
    18   10    9 1    
    19   11   10 2    
    20   12   10 1    
    21   52   12 1    
    22   53   12 1    
    23   54   12 1    
    24   14   13 1    
    25   15   13 1    
    26   41   13 1    
    27   55   14 1    
    28   56   14 1    
    29   57   14 1    
    30   16   15 1    
    31   17   16 1    
    32   42   16 1    
    33   18   17 1    
    34   19   18 1    
    35   21   18 2    
    36   20   19 2    
    37   36   19 1    
    38   22   21 1    
    39   29   21 1    
    40   23   22 ar   
    41   28   22 ar   
    42   24   23 ar   
    43   43   23 1    
    44   25   24 ar   
    45   44   24 1    
    46   26   25 1    
    47   27   25 ar   
    48   59   26 1    
    49   28   27 ar   
    50   45   27 1    
    51   46   28 1    
    52   30   29 1    
    53   31   30 ar   
    54   36   30 ar   
    55   32   31 ar   
    56   47   31 1    
    57   33   32 1    
    58   34   32 ar   
    59   60   33 1    
    60   35   34 ar   
    61   48   34 1    
    62   36   35 ar   
    63   37   35 ar   
@<TRIPOS>SUBSTRUCTURE
     1 SL0400      1 GROUP   
@<TRIPOS>SET

