#    Name: 2qzs_ADP_1_INTS_M
#    Modification time : Mon Mar 24 23:00:12 2014

@<TRIPOS>MOLECULE
2qzs_ADP_1_INTS_M
   72     0    12     0     0
SMALL
NO_CHARGES


@<TRIPOS>ATOM
      1 NZ         21.2470   -4.0205   37.1385 N.4       3 LYC4        0.0000 
      2 NZ         20.8060   -4.8490   38.1850 N.4      11 LYL4        0.0000 
      3 NZ         22.8940   -2.6280   36.0990 N.4       7 LYP4        0.0000 
      4 NZ         20.1310   -4.0260   39.0600 N.4       3 LYC4        0.0000 
      5 NZ         19.4560   -3.2030   39.9350 N.4       7 LYP4        0.0000 
      6 N          21.2470   -4.0205   37.1385 N.am      2 SEC2        0.0000 
      7 N          20.8060   -4.8490   38.1850 N.am     10 SEL2        0.0000 
      8 N          21.6880   -3.1920   36.0920 N.am      6 SEP2        0.0000 
      9 N          20.1310   -4.0260   39.0600 N.am      2 SEC2        0.0000 
     10 N          19.4560   -3.2030   39.9350 N.am      6 SEP2        0.0000 
     11 NZ         23.4880   -3.7685   38.1165 N.4       3 LYC4        0.0000 
     12 NZ         23.1710   -4.5550   39.2230 N.4      11 LYL4        0.0000 
     13 N          23.4880   -3.7685   38.1165 N.am      2 SEC2        0.0000 
     14 N          23.1710   -4.5550   39.2230 N.am     10 SEL2        0.0000 
     15 N          23.8050   -2.9820   37.0100 N.am      6 SEP2        0.0000 
     16 N          23.3730   -7.6430   38.9315 N.am      2 SEC2        0.0000 
     17 N          22.3300   -6.8610   38.5400 N.am     10 SEL2        0.0000 
     18 N          24.4160   -8.4250   39.3230 N.am      6 SEP2        0.0000 
     19 N          19.8865   -8.1415   42.5100 N.am      2 SEC2        0.0000 
     20 N          20.6710   -7.9910   41.0550 N.am     10 SEL2        0.0000 
     21 N          19.1020   -8.2920   43.9650 N.am      6 SEP2        0.0000 
     22 N          19.9380   -7.2060   43.4020 N.am      2 SEC2        0.0000 
     23 N          20.7740   -6.1200   42.8390 N.am     10 SEL2        0.0000 
     24 N          20.5500   -6.5450   44.3820 N.am      2 SEC2        0.0000 
     25 N          20.3260   -6.9700   45.9250 N.am      6 SEP2        0.0000 
     26 CA         23.0215   -5.3195   43.8755 C.3       4 GLC5        0.0000 
     27 CA         23.8680   -6.0370   42.0130 C.3      12 GLL5        0.0000 
     28 CA         22.1750   -4.6020   45.7380 C.3       8 GLP5        0.0000 
     29 CA         24.5015   -8.0275   45.5660 C.3       4 GLC5        0.0000 
     30 CA         24.9350   -6.8240   44.0910 C.3      12 GLL5        0.0000 
     31 CA         24.0680   -9.2310   47.0410 C.3       8 GLP5        0.0000 
     32 N          27.0725   -8.2855   44.2780 N.am      2 SEC2        0.0000 
     33 N          25.8230   -7.8420   44.6140 N.am     10 SEL2        0.0000 
     34 N          28.3220   -8.7290   43.9420 N.am      6 SEP2        0.0000 
     35 O          25.8020   -9.2015   44.2110 O.2       1 ALC1        0.0000 
     36 O          25.8230   -7.8420   44.6140 O.2       9 ALL1        0.0000 
     37 O          25.7810  -10.5610   43.8080 O.2       5 ALP1        0.0000 
     38 CA         25.6665   -3.6570   45.6535 C.3       4 GLC5        0.0000 
     39 CA         25.3800   -5.4330   44.5460 C.3      12 GLL5        0.0000 
     40 CA         25.9530   -1.8810   46.7610 C.3       8 GLP5        0.0000 
     41 CA         27.5025   -6.8090   43.0555 C.3       4 GLC5        0.0000 
     42 CA         26.5760   -5.2110   43.6340 C.3      12 GLL5        0.0000 
     43 CA         28.4290   -8.4070   42.4770 C.3       8 GLP5        0.0000 
     44 CA         29.2820    0.1375   45.3155 C.3       4 GLC5        0.0000 
     45 CA         29.0890   -1.1090   43.7180 C.3      12 GLL5        0.0000 
     46 CA         29.4750    1.3840   46.9130 C.3       8 GLP5        0.0000 
     47 CA         30.9325   -0.6445   43.1030 C.3       4 GLC5        0.0000 
     48 CA         32.7760   -0.1800   42.4880 C.3       8 GLP5        0.0000 
     49 O          30.2370    1.1465   43.2270 O.2       1 ALC1        0.0000 
     50 O          29.1510    0.1810   43.2620 O.2       9 ALL1        0.0000 
     51 O          31.3230    2.1120   43.1920 O.2       5 ALP1        0.0000 
     52 N          31.5475   -1.3105   44.6535 N.am      2 SEC2        0.0000 
     53 N          30.0440   -1.6150   44.5370 N.am     10 SEL2        0.0000 
     54 N          33.0510   -1.0060   44.7700 N.am      6 SEP2        0.0000 
     55 CA         29.9135   -1.3775   46.3575 C.3       4 GLC5        0.0000 
     56 CA         30.0230   -2.8770   44.9840 C.3      12 GLL5        0.0000 
     57 CA         29.8040    0.1220   47.7310 C.3       8 GLP5        0.0000 
     58 CA         31.9250   -2.1615   45.4635 C.3       4 GLC5        0.0000 
     59 CA         33.8270   -1.4460   45.9430 C.3       8 GLP5        0.0000 
     60 CA         31.5165   -3.9880   45.8740 C.3       4 GLC5        0.0000 
     61 CA         33.0100   -5.0990   46.7640 C.3       8 GLP5        0.0000 
     62 CA         29.4590   -3.2010   46.8240 C.3       4 GLC5        0.0000 
     63 CA         28.8950   -3.5250   48.6640 C.3       8 GLP5        0.0000 
     64 CA         25.3465   -6.6572   40.4515 C.3       4 GLC5        0.0000 
     65 CA         25.1040   -6.6960   42.5870 C.3      12 GLL5        0.0000 
     66 CA         26.2070   -6.9480   38.6030 C.3       8 GLP5        0.0000 
     67 CA         24.1660   -7.9843   41.1190 C.3       4 GLC5        0.0000 
     68 CA         23.8460   -9.6020   39.9380 C.3       8 GLP5        0.0000 
     69 CA         26.7242   -7.5835   42.9080 C.3       4 GLC5        0.0000 
     70 CA         23.6662   -5.3652   45.0282 C.3       4 GLC5        0.0000 
     71 CA         27.1183   -2.1280   45.2234 C.3       4 GLC5        0.0000 
     72 CA         28.0210   -1.9290   43.3530 C.3      12 GLL5        0.0000 
@<TRIPOS>BOND
@<TRIPOS>SUBSTRUCTURE
     1 ALC1       35 GROUP        1 X    ALC  0     ROOT ALC X 1
     2 SEC2        6 GROUP        1 X    SEC  0     **** SEC X 2
     3 LYC4        1 GROUP        1 X    LYC  0     **** LYC X 4
     4 GLC5       26 GROUP        1 X    GLC  0     **** GLC X 6
     5 ALP1       37 GROUP        1 Y    ALP  0     ROOT ALP Y 8
     6 SEP2        8 GROUP        1 Y    SEP  0     **** SEP Y 9
     7 LYP4        3 GROUP        1 Y    LYP  0     **** LYP Y 11
     8 GLP5       28 GROUP        1 Y    GLP  0     **** GLP Y 13
     9 ALL1       36 GROUP        1 Z    ALL  0     ROOT ALL Z 15
    10 SEL2        7 GROUP        1 Z    SEL  0     **** SEL Z 16
    11 LYL4        2 GROUP        1 Z    LYL  0     **** LYL Z 18
    12 GLL5       27 GROUP        1 Z    GLL  0     **** GLL Z 20
@<TRIPOS>SET

