#    Name: 2qzs_ADP_1_ligand
#    Modification time : Mon Mar 24 23:00:13 2014

@<TRIPOS>MOLECULE
2qzs_ADP_1_ligand
   39    41     1     0     0
SMALL
NO_CHARGES


@<TRIPOS>ATOM
      1 PB         21.9210   -5.4090   39.0510 P.3       1 ADP487      0.0000 
      2 O1B        20.8060   -4.8490   38.1850 O.co2     1 ADP487      0.0000 
      3 O2B        23.1710   -4.5550   39.2230 O.co2     1 ADP487      0.0000 
      4 O3B        22.3300   -6.8610   38.5400 O.co2     1 ADP487      0.0000 
      5 PA         21.3220   -6.7550   41.5860 P.3       1 ADP487      0.0000 
      6 O1A        20.6710   -7.9910   41.0550 O.co2     1 ADP487      0.0000 
      7 O2A        20.7740   -6.1200   42.8390 O.co2     1 ADP487      0.0000 
      8 O3A        21.2230   -5.5820   40.4900 O.3       1 ADP487      0.0000 
      9 O5'        22.8870   -7.0450   41.8290 O.3       1 ADP487      0.0000 
     10 C5'        23.8680   -6.0370   42.0130 C.3       1 ADP487      0.0000 
     11 C4'        25.1040   -6.6960   42.5870 C.3       1 ADP487      0.0000 
     12 O4'        26.2090   -5.8020   42.3910 O.3       1 ADP487      0.0000 
     13 C3'        24.9350   -6.8240   44.0910 C.3       1 ADP487      0.0000 
     14 O3'        25.8230   -7.8420   44.6140 O.3       1 ADP487      0.0000 
     15 C2'        25.3800   -5.4330   44.5460 C.3       1 ADP487      0.0000 
     16 O2'        25.8050   -5.4400   45.8930 O.3       1 ADP487      0.0000 
     17 C1'        26.5760   -5.2110   43.6340 C.3       1 ADP487      0.0000 
     18 N9         26.9110   -3.8000   43.3660 N.pl3     1 ADP487      0.0000 
     19 C8         26.2290   -2.9230   42.5780 C.2       1 ADP487      0.0000 
     20 N7         26.9150   -1.7460   42.5810 N.2       1 ADP487      0.0000 
     21 C5         28.0210   -1.9290   43.3530 C.ar      1 ADP487      0.0000 
     22 C6         29.0890   -1.1090   43.7180 C.ar      1 ADP487      0.0000 
     23 N6         29.1510    0.1810   43.2620 N.pl3     1 ADP487      0.0000 
     24 N1         30.0440   -1.6150   44.5370 N.ar      1 ADP487      0.0000 
     25 C2         30.0230   -2.8770   44.9840 C.ar      1 ADP487      0.0000 
     26 N3         29.0050   -3.6930   44.6520 N.ar      1 ADP487      0.0000 
     27 C4         28.0120   -3.2310   43.8360 C.ar      1 ADP487      0.0000 
     28 H          23.5377   -5.2679   42.7120 H         1 ADP487      0.0000 
     29 H          24.1440   -5.5587   41.0726 H         1 ADP487      0.0000 
     30 H          25.2591   -7.6312   42.1612 H         1 ADP487      0.0000 
     31 H          23.9326   -6.9541   44.3178 H         1 ADP487      0.0000 
     32 H          24.6400   -4.7440   44.3033 H         1 ADP487      0.0000 
     33 H          27.4219   -5.7319   44.0441 H         1 ADP487      0.0000 
     34 H          25.4162   -3.1010   42.1079 H         1 ADP487      0.0000 
     35 H          29.9258    0.7249   43.5843 H         1 ADP487      0.0000 
     36 H          28.4161    0.4660   42.6467 H         1 ADP487      0.0000 
     37 H          30.7956   -3.2318   45.5910 H         1 ADP487      0.0000 
     38 H          25.5613   -8.6823   44.1392 H         1 ADP487      0.0000 
     39 H          26.7705   -5.6982   45.8583 H         1 ADP487      0.0000 
@<TRIPOS>BOND
     1    2    1 ar   
     2    3    1 ar   
     3    4    1 ar   
     4    8    1 1    
     5    6    5 ar   
     6    7    5 ar   
     7    8    5 1    
     8    9    5 1    
     9   10    9 1    
    10   11   10 1    
    11   28   10 1    
    12   29   10 1    
    13   12   11 1    
    14   13   11 1    
    15   30   11 1    
    16   17   12 1    
    17   14   13 1    
    18   15   13 1    
    19   31   13 1    
    20   38   14 1    
    21   16   15 1    
    22   17   15 1    
    23   32   15 1    
    24   39   16 1    
    25   18   17 1    
    26   33   17 1    
    27   19   18 1    
    28   27   18 1    
    29   20   19 2    
    30   34   19 1    
    31   21   20 1    
    32   22   21 ar   
    33   27   21 ar   
    34   23   22 1    
    35   24   22 ar   
    36   35   23 1    
    37   36   23 1    
    38   25   24 ar   
    39   26   25 ar   
    40   37   25 1    
    41   27   26 ar   
@<TRIPOS>SUBSTRUCTURE
     1 ADP487      1 GROUP   
@<TRIPOS>SET

