#    Name: 4AYY_1_CAVITY_N1_6.mol2
#    Modification time : Tue Mar 11 18:27:14 2014

@<TRIPOS>MOLECULE
4AYY_1_CAVITY_N1_6.mol2
   34     0     7     0     0
SMALL
NO_CHARGES


@<TRIPOS>ATOM
      1 CZ         29.2139   10.1558   16.6825 C.ar      5 PHE5        0.0000 
      2 NZ         29.5003   14.5425   19.0117 N.2       4 LYS4        0.0000 
      3 DU         30.4820   13.6172   19.6676 H         7 CUB7        0.0000 
      4 CZ         31.4636   12.6919   20.3235 C.ar      5 PHE5        0.0000 
      5 NZ         29.4554   13.6440   17.8114 N.2       4 LYS4        0.0000 
      6 CZ         30.4370   12.7187   18.4673 C.ar      5 PHE5        0.0000 
      7 CZ         31.4187   11.7934   19.1233 C.ar      5 PHE5        0.0000 
      8 NZ         29.4105   12.7455   16.6111 N.2       4 LYS4        0.0000 
      9 CZ         30.3921   11.8202   17.2671 C.ar      5 PHE5        0.0000 
     10 DU         29.3656   11.8469   15.4109 H         7 CUB7        0.0000 
     11 CA         30.3472   10.9217   16.0668 C.3       6 GLY6        0.0000 
     12 OG         31.6602   15.2815   20.2522 O.2       1 SER1        0.0000 
     13 CA         30.6337   15.3083   18.3960 C.3       6 GLY6        0.0000 
     14 DU         31.6153   14.3830   19.0519 H         7 CUB7        0.0000 
     15 N          32.5969   13.4577   19.7078 N.2       2 ALA2        0.0000 
     16 NZ         30.5887   14.4098   17.1957 N.2       4 LYS4        0.0000 
     17 DU         31.5704   13.4845   17.8516 H         7 CUB7        0.0000 
     18 OD1        32.5520   12.5592   18.5076 O.3       3 ASP3        0.0000 
     19 NZ         29.5622   14.4366   15.3395 N.2       4 LYS4        0.0000 
     20 NZ         30.5438   13.5113   15.9954 N.2       4 LYS4        0.0000 
     21 OD1        31.5254   12.5860   16.6514 O.3       3 ASP3        0.0000 
     22 DU         30.4989   12.6128   14.7951 H         7 CUB7        0.0000 
     23 OD1        31.4805   11.6875   15.4511 O.3       3 ASP3        0.0000 
     24 O          31.7670   16.0742   17.7803 O.2       2 ALA2        0.0000 
     25 OG         32.7486   15.1489   18.4362 O.2       1 SER1        0.0000 
     26 N          33.7302   14.2236   19.0921 N.2       2 ALA2        0.0000 
     27 CA         30.7404   16.1009   15.9240 C.3       6 GLY6        0.0000 
     28 N          31.7220   15.1756   16.5800 N.2       2 ALA2        0.0000 
     29 N          32.7037   14.2503   17.2359 N.2       2 ALA2        0.0000 
     30 OD1        33.6853   13.3250   17.8919 O.3       3 ASP3        0.0000 
     31 N          31.6771   14.2771   15.3797 N.2       2 ALA2        0.0000 
     32 OD1        32.6588   13.3518   16.0356 O.3       3 ASP3        0.0000 
     33 OD1        32.6138   12.4533   14.8354 O.3       3 ASP3        0.0000 
     34 N          33.8370   15.0162   16.6202 N.2       2 ALA2        0.0000 
@<TRIPOS>BOND
@<TRIPOS>SUBSTRUCTURE
     1 SER1       12 GROUP   
     2 ALA2       15 GROUP   
     3 ASP3       18 GROUP   
     4 LYS4        2 GROUP   
     5 PHE5        1 GROUP   
     6 GLY6       11 GROUP   
     7 CUB7        3 GROUP   
@<TRIPOS>SET

