#    Name: 4AYY_1_CAVITY_N1_ALL.mol2
#    Modification time : Tue Mar 11 18:27:14 2014

@<TRIPOS>MOLECULE
4AYY_1_CAVITY_N1_ALL.mol2
   67     0     7     0     0
SMALL
NO_CHARGES


@<TRIPOS>ATOM
      1 CZ         29.2139   10.1558   16.6825 C.ar      5 PHE5        0.0000 
      2 NZ         29.5003   14.5425   19.0117 N.2       4 LYS4        0.0000 
      3 DU         30.4820   13.6172   19.6676 H         7 CUB7        0.0000 
      4 CZ         31.4636   12.6919   20.3235 C.ar      5 PHE5        0.0000 
      5 NZ         29.4554   13.6440   17.8114 N.2       4 LYS4        0.0000 
      6 CZ         30.4370   12.7187   18.4673 C.ar      5 PHE5        0.0000 
      7 CZ         31.4187   11.7934   19.1233 C.ar      5 PHE5        0.0000 
      8 NZ         29.4105   12.7455   16.6111 N.2       4 LYS4        0.0000 
      9 CZ         30.3921   11.8202   17.2671 C.ar      5 PHE5        0.0000 
     10 DU         29.3656   11.8469   15.4109 H         7 CUB7        0.0000 
     11 CA         30.3472   10.9217   16.0668 C.3       6 GLY6        0.0000 
     12 DU         29.3207   10.9484   14.2106 H         7 CUB7        0.0000 
     13 CA         30.3023   10.0231   14.8665 C.3       6 GLY6        0.0000 
     14 OG         31.6602   15.2815   20.2522 O.2       1 SER1        0.0000 
     15 CA         30.6337   15.3083   18.3960 C.3       6 GLY6        0.0000 
     16 DU         31.6153   14.3830   19.0519 H         7 CUB7        0.0000 
     17 N          32.5969   13.4577   19.7078 N.2       2 ALA2        0.0000 
     18 NZ         30.5887   14.4098   17.1957 N.2       4 LYS4        0.0000 
     19 DU         31.5704   13.4845   17.8516 H         7 CUB7        0.0000 
     20 OD1        32.5520   12.5592   18.5076 O.3       3 ASP3        0.0000 
     21 NZ         29.5622   14.4366   15.3395 N.2       4 LYS4        0.0000 
     22 NZ         30.5438   13.5113   15.9954 N.2       4 LYS4        0.0000 
     23 OD1        31.5254   12.5860   16.6514 O.3       3 ASP3        0.0000 
     24 NZ         28.5357   14.4634   13.4833 N.2       4 LYS4        0.0000 
     25 NZ         29.5173   13.5381   14.1392 N.2       4 LYS4        0.0000 
     26 DU         30.4989   12.6128   14.7951 H         7 CUB7        0.0000 
     27 OD1        31.4805   11.6875   15.4511 O.3       3 ASP3        0.0000 
     28 NZ         29.4724   12.6396   12.9389 N.2       4 LYS4        0.0000 
     29 DU         30.4540   11.7143   13.5949 H         7 CUB7        0.0000 
     30 CA         31.4356   10.7890   14.2508 C.3       6 GLY6        0.0000 
     31 O          31.7670   16.0742   17.7803 O.2       2 ALA2        0.0000 
     32 OG         32.7486   15.1489   18.4362 O.2       1 SER1        0.0000 
     33 N          33.7302   14.2236   19.0921 N.2       2 ALA2        0.0000 
     34 N          27.7956   18.8768   13.9562 N.2       2 ALA2        0.0000 
     35 CA         28.7772   17.9515   14.6122 C.3       6 GLY6        0.0000 
     36 CA         29.7588   17.0262   15.2681 C.3       6 GLY6        0.0000 
     37 CA         30.7404   16.1009   15.9240 C.3       6 GLY6        0.0000 
     38 N          31.7220   15.1756   16.5800 N.2       2 ALA2        0.0000 
     39 N          32.7037   14.2503   17.2359 N.2       2 ALA2        0.0000 
     40 OD1        33.6853   13.3250   17.8919 O.3       3 ASP3        0.0000 
     41 DU         27.7507   17.9783   12.7560 H         7 CUB7        0.0000 
     42 NZ         28.7323   17.0530   13.4119 N.2       4 LYS4        0.0000 
     43 NZ         29.7139   16.1277   14.0678 N.2       4 LYS4        0.0000 
     44 NZ         30.6955   15.2024   14.7238 N.2       4 LYS4        0.0000 
     45 N          31.6771   14.2771   15.3797 N.2       2 ALA2        0.0000 
     46 OD1        32.6588   13.3518   16.0356 O.3       3 ASP3        0.0000 
     47 N          28.6874   16.1545   12.2116 N.2       2 ALA2        0.0000 
     48 N          29.6690   15.2292   12.8676 N.2       2 ALA2        0.0000 
     49 N          30.6506   14.3039   13.5235 N.2       2 ALA2        0.0000 
     50 N          31.6322   13.3786   14.1794 N.2       2 ALA2        0.0000 
     51 OD1        32.6138   12.4533   14.8354 O.3       3 ASP3        0.0000 
     52 NZ         27.6608   16.1813   10.3554 N.2       4 LYS4        0.0000 
     53 NZ         28.6424   15.2560   11.0114 N.2       4 LYS4        0.0000 
     54 NZ         29.6241   14.3307   11.6673 N.2       4 LYS4        0.0000 
     55 NZ         30.6057   13.4054   12.3232 N.2       4 LYS4        0.0000 
     56 CA         31.5873   12.4801   12.9792 C.3       6 GLY6        0.0000 
     57 OD1        32.5689   11.5548   13.6351 O.3       3 ASP3        0.0000 
     58 N          28.9289   19.6427   13.3405 N.2       2 ALA2        0.0000 
     59 CA         29.9105   18.7174   13.9965 C.3       6 GLY6        0.0000 
     60 CA         30.8921   17.7921   14.6524 C.3       6 GLY6        0.0000 
     61 CA         31.8737   16.8668   15.3083 C.3       6 GLY6        0.0000 
     62 N          33.8370   15.0162   16.6202 N.2       2 ALA2        0.0000 
     63 N          28.8840   18.7441   12.1403 N.2       2 ALA2        0.0000 
     64 N          29.8656   17.8188   12.7962 N.2       2 ALA2        0.0000 
     65 N          30.8472   16.8935   13.4521 N.2       2 ALA2        0.0000 
     66 N          31.8288   15.9683   14.1081 N.2       2 ALA2        0.0000 
     67 N          28.8391   17.8456   10.9400 N.2       2 ALA2        0.0000 
@<TRIPOS>BOND
@<TRIPOS>SUBSTRUCTURE
     1 SER1       14 GROUP   
     2 ALA2       17 GROUP   
     3 ASP3       20 GROUP   
     4 LYS4        2 GROUP   
     5 PHE5        1 GROUP   
     6 GLY6       11 GROUP   
     7 CUB7        3 GROUP   
@<TRIPOS>SET

