#    Name: 4ayy_9MX_1_INTS_M
#    Modification time : Tue Mar 25 06:22:47 2014

@<TRIPOS>MOLECULE
4ayy_9MX_1_INTS_M
   68     0    12     0     0
SMALL
NO_CHARGES


@<TRIPOS>ATOM
      1 CA         31.7685   17.8200   26.7635 C.3       4 GLC5        0.0000 
      2 CA         31.3890   18.3680   25.0910 C.3      12 GLL5        0.0000 
      3 CA         32.1480   17.2720   28.4360 C.3       8 GLP5        0.0000 
      4 CA         30.9395   18.2940   20.9370 C.3       4 GLC5        0.0000 
      5 CA         31.9960   17.6880   22.7530 C.3      12 GLL5        0.0000 
      6 CA         29.8830   18.9000   19.1210 C.3       8 GLP5        0.0000 
      7 CA         33.9300   21.0985   23.7540 C.3       4 GLC5        0.0000 
      8 CA         33.4670   19.2010   24.1530 C.3      12 GLL5        0.0000 
      9 CA         34.3930   22.9960   23.3550 C.3       8 GLP5        0.0000 
     10 OD1        33.1835   22.2095   26.9860 O.co2     3 ASC3        0.0000 
     11 OD1        32.5850   20.0970   26.3130 O.co2    11 ASL3        0.0000 
     12 OD1        32.7370   23.6160   27.3060 O.co2     7 ASP3        0.0000 
     13 OD1        30.9635   21.6275   27.2125 O.co2     3 ASC3        0.0000 
     14 OD1        30.6600   22.9430   27.5880 O.co2     7 ASP3        0.0000 
     15 O          30.9635   21.6275   27.2125 O.2       1 ALC1        0.0000 
     16 O          31.2670   20.3120   26.8370 O.2       9 ALL1        0.0000 
     17 O          30.6600   22.9430   27.5880 O.2       5 ALP1        0.0000 
     18 O          29.8685   19.9180   26.7950 O.2       1 ALC1        0.0000 
     19 O          28.4700   19.5240   26.7530 O.2       5 ALP1        0.0000 
     20 O          33.1835   22.2095   26.9860 O.2       1 ALC1        0.0000 
     21 O          33.6300   20.8030   26.6660 O.2       9 ALL1        0.0000 
     22 O          32.7370   23.6160   27.3060 O.2       5 ALP1        0.0000 
     23 O          29.9765   14.5700   27.1640 O.2       1 ALC1        0.0000 
     24 O          29.4700   13.4370   26.6140 O.2       9 ALL1        0.0000 
     25 O          30.4830   15.7030   27.7140 O.2       5 ALP1        0.0000 
     26 N          32.3670   15.5580   26.5160 N.am      2 SEC2        0.0000 
     27 N          31.7370   14.6350   25.4800 N.am     10 SEL2        0.0000 
     28 N          32.9970   16.4810   27.5520 N.am      6 SEP2        0.0000 
     29 N          27.5300   16.8565   26.5110 N.am      2 SEC2        0.0000 
     30 N          27.9170   16.2470   25.1430 N.am     10 SEL2        0.0000 
     31 N          27.1430   17.4660   27.8790 N.am      6 SEP2        0.0000 
     32 CA         34.6575   10.4410   26.9350 C.3       4 GLC5        0.0000 
     33 CA         32.9790    9.8910   28.3080 C.3      12 GLL5        0.0000 
     34 CA         36.3360   10.9910   25.5620 C.3       8 GLP5        0.0000 
     35 CA         34.0590   13.7185   25.2050 C.3       4 GLC5        0.0000 
     36 CA         33.1940   13.1710   23.4970 C.3      12 GLL5        0.0000 
     37 CA         34.9240   14.2660   26.9130 C.3       8 GLP5        0.0000 
     38 CA         34.7175   10.8325   21.5410 C.3       4 GLC5        0.0000 
     39 CA         33.5290    9.4700   22.4580 C.3      12 GLL5        0.0000 
     40 CA         35.9060   12.1950   20.6240 C.3       8 GLP5        0.0000 
     41 CA         33.8360    7.8625   22.8800 C.3       4 GLC5        0.0000 
     42 CA         34.1430    6.2550   23.3020 C.3       8 GLP5        0.0000 
     43 CA         34.9325   10.2305   24.0100 C.3       4 GLC5        0.0000 
     44 CA         28.9898   19.5290   23.6513 C.3       4 GLC5        0.0000 
     45 CA         30.9530   18.3840   23.6240 C.3      12 GLL5        0.0000 
     46 CA         27.7210   21.0010   23.7450 C.3       8 GLP5        0.0000 
     47 CA         30.7871   19.7443   22.4756 C.3       4 GLC5        0.0000 
     48 CA         30.4470   21.6160   21.7960 C.3       8 GLP5        0.0000 
     49 CA         35.1050   19.3995   23.2368 C.3       4 GLC5        0.0000 
     50 CA         33.4130   18.0870   23.1160 C.3      12 GLL5        0.0000 
     51 CA         36.7700   20.1550   22.8390 C.3       8 GLP5        0.0000 
     52 CA         34.2105   17.1870   25.0282 C.3       4 GLC5        0.0000 
     53 CA         34.9810   15.7300   26.4220 C.3       8 GLP5        0.0000 
     54 CA         33.5563   12.8812   27.8640 C.3       4 GLC5        0.0000 
     55 CA         32.7700   11.1520   28.9240 C.3      12 GLL5        0.0000 
     56 CA         35.7717    8.2120   29.5277 C.3       4 GLC5        0.0000 
     57 CA         34.1730    9.1510   28.5150 C.3      12 GLL5        0.0000 
     58 CA         37.2890    7.8840   30.8480 C.3       8 GLP5        0.0000 
     59 CA         35.4064    8.8360   26.8179 C.3       4 GLC5        0.0000 
     60 CA         37.0200    9.7110   26.0020 C.3       8 GLP5        0.0000 
     61 CA         32.2659   10.8589   30.5482 C.3       4 GLC5        0.0000 
     62 CA         31.9480   11.0240   32.5350 C.3       8 GLP5        0.0000 
     63 CA         29.9480   10.7352   21.8238 C.3       4 GLC5        0.0000 
     64 CA         31.0250   12.4100   22.7610 C.3      12 GLL5        0.0000 
     65 CA         28.6090    9.7740   21.0150 C.3       8 GLP5        0.0000 
     66 CA         34.9222   11.7353   24.4853 C.3       4 GLC5        0.0000 
     67 CA         33.8230   11.7880   23.3200 C.3      12 GLL5        0.0000 
     68 CA         34.6125   12.2274   21.8930 C.3       4 GLC5        0.0000 
@<TRIPOS>BOND
@<TRIPOS>SUBSTRUCTURE
     1 ALC1       15 GROUP        1 X    ALC  0     ROOT ALC X 1
     2 SEC2       26 GROUP        1 X    SEC  0     **** SEC X 2
     3 ASC3       10 GROUP        1 X    ASC  0     **** ASC X 3
     4 GLC5        1 GROUP        1 X    GLC  0     **** GLC X 6
     5 ALP1       17 GROUP        1 Y    ALP  0     ROOT ALP Y 8
     6 SEP2       28 GROUP        1 Y    SEP  0     **** SEP Y 9
     7 ASP3       12 GROUP        1 Y    ASP  0     **** ASP Y 10
     8 GLP5        3 GROUP        1 Y    GLP  0     **** GLP Y 13
     9 ALL1       16 GROUP        1 Z    ALL  0     ROOT ALL Z 15
    10 SEL2       27 GROUP        1 Z    SEL  0     **** SEL Z 16
    11 ASL3       11 GROUP        1 Z    ASL  0     **** ASL Z 17
    12 GLL5        2 GROUP        1 Z    GLL  0     **** GLL Z 20
@<TRIPOS>SET

