#    Name: 4ayy_9MX_1_ligand
#    Modification time : Tue Mar 25 06:22:47 2014

@<TRIPOS>MOLECULE
4ayy_9MX_1_ligand
   79    82     1     0     0
SMALL
NO_CHARGES


@<TRIPOS>ATOM
      1 C20        29.5640   17.7300   23.4910 C.3       1 9MX1258     0.0000 
      2 C27        30.9530   18.3840   23.6240 C.3       1 9MX1258     0.0000 
      3 C32        31.3890   18.3680   25.0910 C.3       1 9MX1258     0.0000 
      4 C33        31.9960   17.6880   22.7530 C.3       1 9MX1258     0.0000 
      5 N37        32.6740   18.9930   25.3520 N.pl3     1 9MX1258     0.0000 
      6 C38        33.4130   18.0870   23.1160 C.3       1 9MX1258     0.0000 
      7 C40        33.4670   19.2010   24.1530 C.3       1 9MX1258     0.0000 
      8 C41        32.5850   20.0970   26.3130 C.cat     1 9MX1258     0.0000 
      9 N43        31.2670   20.3120   26.8370 N.pl3     1 9MX1258     0.0000 
     10 N42        33.6300   20.8030   26.6660 N.pl3     1 9MX1258     0.0000 
     11 N3         29.4700   13.4370   26.6140 N.pl3     1 9MX1258     0.0000 
     12 C1         29.6730   13.3400   25.1930 C.3       1 9MX1258     0.0000 
     13 C2         31.1430   13.7460   24.8330 C.2       1 9MX1258     0.0000 
     14 O6         31.7370   14.6350   25.4800 O.2       1 9MX1258     0.0000 
     15 C4         28.6260   14.0900   24.3030 C.3       1 9MX1258     0.0000 
     16 C8         28.6610   15.6220   24.3470 C.2       1 9MX1258     0.0000 
     17 O15        27.9170   16.2470   25.1430 O.2       1 9MX1258     0.0000 
     18 N14        29.5030   16.2970   23.4930 N.am      1 9MX1258     0.0000 
     19 S7         29.1590   12.2070   27.6450 S.o2      1 9MX1258     0.0000 
     20 O12        28.8270   12.7870   28.8980 O.2       1 9MX1258     0.0000 
     21 O13        28.2170   11.3520   27.0330 O.2       1 9MX1258     0.0000 
     22 C18        30.7720   10.0930   27.2600 C.ar      1 9MX1258     0.0000 
     23 C11        30.5840   11.3240   27.8610 C.ar      1 9MX1258     0.0000 
     24 C19        31.6070   11.8410   28.7060 C.ar      1 9MX1258     0.0000 
     25 C26        32.7700   11.1520   28.9240 C.ar      1 9MX1258     0.0000 
     26 C35        34.1730    9.1510   28.5150 C.ar      1 9MX1258     0.0000 
     27 C39        34.3360    7.9290   27.9000 C.ar      1 9MX1258     0.0000 
     28 C36        33.3310    7.3820   27.0600 C.ar      1 9MX1258     0.0000 
     29 C31        32.1680    8.0830   26.8470 C.ar      1 9MX1258     0.0000 
     30 C25        31.9650    9.3530   27.4650 C.ar      1 9MX1258     0.0000 
     31 C30        32.9790    9.8910   28.3080 C.ar      1 9MX1258     0.0000 
     32 N5         31.7810   13.0840   23.8000 N.am      1 9MX1258     0.0000 
     33 C21        31.0250   12.4100   22.7610 C.3       1 9MX1258     0.0000 
     34 C28        31.5490   10.9830   22.5040 C.3       1 9MX1258     0.0000 
     35 C10        33.0650   10.9090   22.3340 C.3       1 9MX1258     0.0000 
     36 C16        33.8230   11.7880   23.3200 C.3       1 9MX1258     0.0000 
     37 C9         33.1940   13.1710   23.4970 C.3       1 9MX1258     0.0000 
     38 C17        30.9370   13.2140   21.4660 C.2       1 9MX1258     0.0000 
     39 O23        31.1350   12.4680   20.3380 O.co2     1 9MX1258     0.0000 
     40 O24        30.7180   14.4300   21.3340 O.co2     1 9MX1258     0.0000 
     41 C29        33.5290    9.4700   22.4580 C.3       1 9MX1258     0.0000 
     42 H          29.0988   18.1487   22.5526 H         1 9MX1258     0.0000 
     43 H          28.9254   18.1585   24.3161 H         1 9MX1258     0.0000 
     44 H          30.8701   19.4195   23.3098 H         1 9MX1258     0.0000 
     45 H          31.3943   17.3057   25.4279 H         1 9MX1258     0.0000 
     46 H          30.5854   18.8612   25.6853 H         1 9MX1258     0.0000 
     47 H          31.8060   17.9380   21.7018 H         1 9MX1258     0.0000 
     48 H          31.8846   16.6021   22.8634 H         1 9MX1258     0.0000 
     49 H          33.9400   18.4169   22.2093 H         1 9MX1258     0.0000 
     50 H          33.9478   17.2093   23.5061 H         1 9MX1258     0.0000 
     51 H          34.5430   19.3606   24.4214 H         1 9MX1258     0.0000 
     52 H          33.1606   20.1510   23.6443 H         1 9MX1258     0.0000 
     53 H          30.5582   19.6835   26.5167 H         1 9MX1258     0.0000 
     54 H          31.1673   21.0724   27.4788 H         1 9MX1258     0.0000 
     55 H          33.4621   21.5409   27.3197 H         1 9MX1258     0.0000 
     56 H          34.5001   20.5395   26.2495 H         1 9MX1258     0.0000 
     57 H          29.5109   14.3498   27.1029 H         1 9MX1258     0.0000 
     58 H          29.6052   12.2540   24.8906 H         1 9MX1258     0.0000 
     59 H          27.6155   13.7416   24.6009 H         1 9MX1258     0.0000 
     60 H          28.7682   13.7539   23.2551 H         1 9MX1258     0.0000 
     61 H          30.1106   15.7866   22.8336 H         1 9MX1258     0.0000 
     62 H          30.0419    9.6925   26.6496 H         1 9MX1258     0.0000 
     63 H          31.4451   12.7614   29.1552 H         1 9MX1258     0.0000 
     64 H          33.5080   11.5309   29.5325 H         1 9MX1258     0.0000 
     65 H          34.8994    9.5406   29.1228 H         1 9MX1258     0.0000 
     66 H          35.2052    7.3831   28.0425 H         1 9MX1258     0.0000 
     67 H          33.4907    6.4694   26.6247 H         1 9MX1258     0.0000 
     68 H          31.4250    7.7093   26.2419 H         1 9MX1258     0.0000 
     69 H          29.9684   12.2792   23.1190 H         1 9MX1258     0.0000 
     70 H          31.0642   10.5885   21.5995 H         1 9MX1258     0.0000 
     71 H          31.2478   10.3416   23.3446 H         1 9MX1258     0.0000 
     72 H          33.3084   11.2460   21.3193 H         1 9MX1258     0.0000 
     73 H          34.8584   11.9097   22.9727 H         1 9MX1258     0.0000 
     74 H          33.8594   11.2859   24.2967 H         1 9MX1258     0.0000 
     75 H          33.7408   13.6898   24.3010 H         1 9MX1258     0.0000 
     76 H          33.3664   13.7411   22.5697 H         1 9MX1258     0.0000 
     77 H          34.5201    9.3890   22.3527 H         1 9MX1258     0.0000 
     78 H          33.2961    9.0801   23.3489 H         1 9MX1258     0.0000 
     79 H          33.1116    8.8840   21.7635 H         1 9MX1258     0.0000 
@<TRIPOS>BOND
     1    2    1 1    
     2   18    1 1    
     3   42    1 1    
     4   43    1 1    
     5    3    2 1    
     6    4    2 1    
     7   44    2 1    
     8    5    3 1    
     9   45    3 1    
    10   46    3 1    
    11    6    4 1    
    12   47    4 1    
    13   48    4 1    
    14    7    5 1    
    15    8    5 ar   
    16    7    6 1    
    17   49    6 1    
    18   50    6 1    
    19   51    7 1    
    20   52    7 1    
    21    9    8 ar   
    22   10    8 ar   
    23   53    9 1    
    24   54    9 1    
    25   55   10 1    
    26   56   10 1    
    27   12   11 1    
    28   19   11 1    
    29   57   11 1    
    30   13   12 1    
    31   15   12 1    
    32   58   12 1    
    33   14   13 2    
    34   32   13 am   
    35   16   15 1    
    36   59   15 1    
    37   60   15 1    
    38   17   16 2    
    39   18   16 am   
    40   61   18 1    
    41   20   19 2    
    42   21   19 2    
    43   23   19 1    
    44   23   22 ar   
    45   30   22 ar   
    46   62   22 1    
    47   24   23 ar   
    48   25   24 ar   
    49   63   24 1    
    50   31   25 ar   
    51   64   25 1    
    52   27   26 ar   
    53   31   26 ar   
    54   65   26 1    
    55   28   27 ar   
    56   66   27 1    
    57   29   28 ar   
    58   67   28 1    
    59   30   29 ar   
    60   68   29 1    
    61   31   30 ar   
    62   33   32 1    
    63   37   32 1    
    64   34   33 1    
    65   38   33 1    
    66   69   33 1    
    67   35   34 1    
    68   70   34 1    
    69   71   34 1    
    70   36   35 1    
    71   41   35 1    
    72   72   35 1    
    73   37   36 1    
    74   73   36 1    
    75   74   36 1    
    76   75   37 1    
    77   76   37 1    
    78   39   38 ar   
    79   40   38 ar   
    80   77   41 1    
    81   78   41 1    
    82   79   41 1    
@<TRIPOS>SUBSTRUCTURE
     1 9MX1258     1 GROUP   
@<TRIPOS>SET

