#    Name: 3s79_ASD_1_INTS_M
#    Modification time : Tue Mar 25 12:15:34 2014

@<TRIPOS>MOLECULE
3s79_ASD_1_INTS_M
   63     0     6     0     0
SMALL
NO_CHARGES


@<TRIPOS>ATOM
      1 CA         88.7325   52.9620   45.2315 C.3       2 GLC5        0.0000 
      2 CA         87.3400   51.7300   45.6140 C.3       6 GLL5        0.0000 
      3 CA         90.1250   54.1940   44.8490 C.3       4 GLP5        0.0000 
      4 CA         87.9400   57.2130   43.1910 C.3       2 GLC5        0.0000 
      5 CA         86.6400   55.7970   44.1470 C.3       6 GLL5        0.0000 
      6 CA         89.2400   58.6290   42.2350 C.3       4 GLP5        0.0000 
      7 CA         87.9445   56.8190   45.3030 C.3       2 GLC5        0.0000 
      8 CA         89.2490   57.8410   46.4590 C.3       4 GLP5        0.0000 
      9 CA         87.2010   57.0110   46.2680 C.3       2 GLC5        0.0000 
     10 CA         85.1530   56.1810   46.0770 C.3       6 GLL5        0.0000 
     11 CA         82.6515   55.8060   45.6695 C.3       2 GLC5        0.0000 
     12 CA         84.1090   57.2020   46.5420 C.3       6 GLL5        0.0000 
     13 CA         81.1940   54.4100   44.7970 C.3       4 GLP5        0.0000 
     14 CA         86.6680   58.8130   46.0605 C.3       2 GLC5        0.0000 
     15 CA         84.5440   58.4850   45.8190 C.3       6 GLL5        0.0000 
     16 CA         88.7920   59.1410   46.3020 C.3       4 GLP5        0.0000 
     17 CA         83.4695   59.0525   44.0185 C.3       2 GLC5        0.0000 
     18 CA         82.3950   59.6200   42.2180 C.3       4 GLP5        0.0000 
     19 CA         84.9245   60.4230   45.4845 C.3       2 GLC5        0.0000 
     20 CA         85.3050   62.3610   45.1500 C.3       4 GLP5        0.0000 
     21 CA         82.6825   55.1970   44.2555 C.3       2 GLC5        0.0000 
     22 CA         84.1710   55.9840   43.7140 C.3       6 GLL5        0.0000 
     23 CA         83.2830   57.8020   42.9660 C.3       2 GLC5        0.0000 
     24 CA         82.8585   52.0440   45.5480 C.3       2 GLC5        0.0000 
     25 CA         84.8800   51.8490   45.1230 C.3       6 GLL5        0.0000 
     26 CA         80.8370   52.2390   45.9730 C.3       4 GLP5        0.0000 
     27 CA         89.4030   50.9360   46.0385 C.3       2 GLC5        0.0000 
     28 CA         87.5210   50.3430   46.2160 C.3       6 GLL5        0.0000 
     29 CA         91.2850   51.5290   45.8610 C.3       4 GLP5        0.0000 
     30 CA         87.9615   48.4965   46.7785 C.3       2 GLC5        0.0000 
     31 CA         88.4020   46.6500   47.3410 C.3       4 GLP5        0.0000 
     32 CA         86.1745   49.9505   49.5305 C.3       2 GLC5        0.0000 
     33 CA         86.3520   51.2460   48.2250 C.3       6 GLL5        0.0000 
     34 CA         85.9970   48.6550   50.8360 C.3       4 GLP5        0.0000 
     35 CA         85.2305   53.1065   50.2015 C.3       2 GLC5        0.0000 
     36 CA         84.5760   52.9500   48.1370 C.3       6 GLL5        0.0000 
     37 CA         85.8850   53.2630   52.2660 C.3       4 GLP5        0.0000 
     38 CA         82.7065   52.5945   47.0550 C.3       2 GLC5        0.0000 
     39 CA         85.5665   55.5935   49.3590 C.3       2 GLC5        0.0000 
     40 CA         84.8190   54.4380   47.8840 C.3       6 GLL5        0.0000 
     41 CA         86.3140   56.7490   50.8340 C.3       4 GLP5        0.0000 
     42 CA         83.0810   54.5570   45.5935 C.3       2 GLC5        0.0000 
     43 CA         84.9680   54.7040   46.3900 C.3       6 GLL5        0.0000 
     44 CA         87.7330   53.7525   47.2265 C.3       2 GLC5        0.0000 
     45 CA         86.1620   53.9180   45.8110 C.3       6 GLL5        0.0000 
     46 CA         89.3040   53.5870   48.6420 C.3       4 GLP5        0.0000 
     47 N          88.1675   49.6835   49.7855 N.am      1 SEC2        0.0000 
     48 N          88.1270   49.8800   48.4470 N.am      5 SEL2        0.0000 
     49 N          88.2080   49.4870   51.1240 N.am      3 SEP2        0.0000 
     50 N          85.1135   59.7670   43.1785 N.am      1 SEC2        0.0000 
     51 N          85.7870   58.6710   43.7490 N.am      5 SEL2        0.0000 
     52 N          84.4400   60.8630   42.6080 N.am      3 SEP2        0.0000 
     53 CA         84.2407   50.9097   46.6010 C.3       2 GLC5        0.0000 
     54 CA         86.0090   52.3980   46.0010 C.3       6 GLL5        0.0000 
     55 CA         83.0370   49.6960   47.6400 C.3       4 GLP5        0.0000 
     56 CA         82.9652   59.3268   46.5258 C.3       2 GLC5        0.0000 
     57 CA         81.6040   60.8100   46.8710 C.3       4 GLP5        0.0000 
     58 CA         84.9588   58.1236   47.8101 C.3       2 GLC5        0.0000 
     59 CA         85.3300   58.6590   49.5560 C.3       4 GLP5        0.0000 
     60 CA         88.2009   52.3953   47.3269 C.3       2 GLC5        0.0000 
     61 CA         87.6593   52.6427   48.2465 C.3       2 GLC5        0.0000 
     62 CA         84.1661   51.0101   47.8170 C.3       2 GLC5        0.0000 
     63 CA         88.2467   54.3376   44.9404 C.3       2 GLC5        0.0000 
@<TRIPOS>BOND
@<TRIPOS>SUBSTRUCTURE
     1 SEC2       47 GROUP        1 X    SEC  0     ROOT SEC X 2
     2 GLC5        1 GROUP        1 X    GLC  0     **** GLC X 6
     3 SEP2       49 GROUP        1 Y    SEP  0     ROOT SEP Y 9
     4 GLP5        3 GROUP        1 Y    GLP  0     **** GLP Y 13
     5 SEL2       48 GROUP        1 Z    SEL  0     ROOT SEL Z 16
     6 GLL5        2 GROUP        1 Z    GLL  0     **** GLL Z 20
@<TRIPOS>SET

