#    Name: 3s79_ASD_1_ligand
#    Modification time : Tue Mar 25 12:15:35 2014

@<TRIPOS>MOLECULE
3s79_ASD_1_ligand
   47    50     1     0     0
SMALL
NO_CHARGES


@<TRIPOS>ATOM
      1 C1         87.3400   51.7300   45.6140 C.3       1 ASD601      0.0000 
      2 C10        86.0090   52.3980   46.0010 C.3       1 ASD601      0.0000 
      3 C11        86.5100   54.2920   44.3580 C.3       1 ASD601      0.0000 
      4 C12        86.6400   55.7970   44.1470 C.3       1 ASD601      0.0000 
      5 C13        85.3400   56.4530   44.5840 C.3       1 ASD601      0.0000 
      6 C14        85.1530   56.1810   46.0770 C.3       1 ASD601      0.0000 
      7 C15        84.1090   57.2020   46.5420 C.3       1 ASD601      0.0000 
      8 C16        84.5440   58.4850   45.8190 C.3       1 ASD601      0.0000 
      9 C17        85.2940   57.9560   44.6070 C.2       1 ASD601      0.0000 
     10 C18        84.1710   55.9840   43.7140 C.3       1 ASD601      0.0000 
     11 C19        84.8800   51.8490   45.1230 C.3       1 ASD601      0.0000 
     12 C2         87.5210   50.3430   46.2160 C.3       1 ASD601      0.0000 
     13 C3         87.3490   50.4770   47.7130 C.2       1 ASD601      0.0000 
     14 C4         86.3520   51.2460   48.2250 C.2       1 ASD601      0.0000 
     15 C5         85.6770   52.1510   47.4770 C.2       1 ASD601      0.0000 
     16 C6         84.5760   52.9500   48.1370 C.3       1 ASD601      0.0000 
     17 C7         84.8190   54.4380   47.8840 C.3       1 ASD601      0.0000 
     18 C8         84.9680   54.7040   46.3900 C.3       1 ASD601      0.0000 
     19 C9         86.1620   53.9180   45.8110 C.3       1 ASD601      0.0000 
     20 O1         88.1270   49.8800   48.4470 O.2       1 ASD601      0.0000 
     21 O2         85.7870   58.6710   43.7490 O.2       1 ASD601      0.0000 
     22 H          88.1664   52.3779   45.9405 H         1 ASD601      0.0000 
     23 H          87.3921   51.6594   44.5178 H         1 ASD601      0.0000 
     24 H          87.4542   53.8049   44.0859 H         1 ASD601      0.0000 
     25 H          85.7280   53.8995   43.6968 H         1 ASD601      0.0000 
     26 H          86.8149   55.9994   43.1016 H         1 ASD601      0.0000 
     27 H          87.4555   56.1744   44.7445 H         1 ASD601      0.0000 
     28 H          86.1320   56.5162   46.5388 H         1 ASD601      0.0000 
     29 H          84.1815   57.3390   47.5855 H         1 ASD601      0.0000 
     30 H          83.1510   56.9124   46.2085 H         1 ASD601      0.0000 
     31 H          85.1979   59.0365   46.4401 H         1 ASD601      0.0000 
     32 H          83.6888   59.0248   45.5114 H         1 ASD601      0.0000 
     33 H          88.5096   49.9811   45.9923 H         1 ASD601      0.0000 
     34 H          86.7720   49.6794   45.8197 H         1 ASD601      0.0000 
     35 H          86.0960   51.1321   49.2431 H         1 ASD601      0.0000 
     36 H          84.5777   52.7661   49.2042 H         1 ASD601      0.0000 
     37 H          83.6173   52.6703   47.7181 H         1 ASD601      0.0000 
     38 H          85.7263   54.7451   48.3976 H         1 ASD601      0.0000 
     39 H          83.9787   55.0089   48.2703 H         1 ASD601      0.0000 
     40 H          84.0724   54.3541   45.8799 H         1 ASD601      0.0000 
     41 H          87.0593   54.2134   46.4323 H         1 ASD601      0.0000 
     42 H          84.3132   56.2065   42.7495 H         1 ASD601      0.0000 
     43 H          84.0399   54.9942   43.7703 H         1 ASD601      0.0000 
     44 H          83.3091   56.4100   43.9890 H         1 ASD601      0.0000 
     45 H          85.0477   52.0204   44.1522 H         1 ASD601      0.0000 
     46 H          84.7720   50.8608   45.2318 H         1 ASD601      0.0000 
     47 H          83.9992   52.2665   45.3465 H         1 ASD601      0.0000 
@<TRIPOS>BOND
     1    2    1 1    
     2   12    1 1    
     3   22    1 1    
     4   23    1 1    
     5   11    2 1    
     6   15    2 1    
     7   19    2 1    
     8    4    3 1    
     9   19    3 1    
    10   24    3 1    
    11   25    3 1    
    12    5    4 1    
    13   26    4 1    
    14   27    4 1    
    15    6    5 1    
    16    9    5 1    
    17   10    5 1    
    18    7    6 1    
    19   18    6 1    
    20   28    6 1    
    21    8    7 1    
    22   29    7 1    
    23   30    7 1    
    24    9    8 1    
    25   31    8 1    
    26   32    8 1    
    27   21    9 2    
    28   42   10 1    
    29   43   10 1    
    30   44   10 1    
    31   45   11 1    
    32   46   11 1    
    33   47   11 1    
    34   13   12 1    
    35   33   12 1    
    36   34   12 1    
    37   14   13 1    
    38   20   13 2    
    39   15   14 2    
    40   35   14 1    
    41   16   15 1    
    42   17   16 1    
    43   36   16 1    
    44   37   16 1    
    45   18   17 1    
    46   38   17 1    
    47   39   17 1    
    48   19   18 1    
    49   40   18 1    
    50   41   19 1    
@<TRIPOS>SUBSTRUCTURE
     1 ASD601      1 GROUP   
@<TRIPOS>SET

