#    Name: 2cu0_XMP_1_INTS_M
#    Modification time : Tue Mar 25 01:14:26 2014

@<TRIPOS>MOLECULE
2cu0_XMP_1_INTS_M
   55     0     9     0     0
SMALL
NO_CHARGES


@<TRIPOS>ATOM
      1 N          20.2700    1.3995   48.8905 N.am      2 SEC2        0.0000 
      2 N          20.8700    2.6470   49.2890 N.am      8 SEL2        0.0000 
      3 N          19.6700    0.1520   48.4920 N.am      5 SEP2        0.0000 
      4 N          20.5495    2.7870   50.7260 N.am      2 SEC2        0.0000 
      5 N          20.2290    2.9270   52.1630 N.am      5 SEP2        0.0000 
      6 N          24.1765    4.6915   48.4800 N.am      2 SEC2        0.0000 
      7 N          23.0060    4.1240   48.9130 N.am      8 SEL2        0.0000 
      8 N          25.3470    5.2590   48.0470 N.am      5 SEP2        0.0000 
      9 N          23.2780    4.3620   47.3580 N.am      2 SEC2        0.0000 
     10 N          23.5500    4.6000   45.8030 N.am      5 SEP2        0.0000 
     11 N          21.3595    1.7730   46.6295 N.am      2 SEC2        0.0000 
     12 N          22.4240    2.1930   47.4060 N.am      8 SEL2        0.0000 
     13 N          20.2950    1.3530   45.8530 N.am      5 SEP2        0.0000 
     14 N          22.9870    3.3965   46.6045 N.am      2 SEC2        0.0000 
     15 N          23.4180    1.8370   46.6905 N.am      2 SEC2        0.0000 
     16 N          24.4120    1.4810   45.9750 N.am      5 SEP2        0.0000 
     17 CA         25.1255    3.0095   48.1850 C.3       3 GLC5        0.0000 
     18 CA         24.5610    1.5840   49.4670 C.3       9 GLL5        0.0000 
     19 CA         25.6900    4.4350   46.9030 C.3       6 GLP5        0.0000 
     20 O          23.3140   -7.5985   48.9150 O.2       1 ALC1        0.0000 
     21 O          24.4260   -6.7490   49.2280 O.2       7 ALL1        0.0000 
     22 O          22.2020   -8.4480   48.6020 O.2       4 ALP1        0.0000 
     23 N          22.8840   -7.6805   51.8255 N.am      2 SEC2        0.0000 
     24 N          23.4800   -6.6420   51.2260 N.am      8 SEL2        0.0000 
     25 N          22.2880   -8.7190   52.4250 N.am      5 SEP2        0.0000 
     26 N          26.5730   -7.2475   46.6855 N.am      2 SEC2        0.0000 
     27 N          25.4210   -6.7660   47.2050 N.am      8 SEL2        0.0000 
     28 N          27.7250   -7.7290   46.1660 N.am      5 SEP2        0.0000 
     29 CA         25.6005   -4.7245   46.5500 C.3       3 GLC5        0.0000 
     30 CA         25.5960   -4.7630   48.4110 C.3       9 GLL5        0.0000 
     31 CA         25.6050   -4.6860   44.6890 C.3       6 GLP5        0.0000 
     32 N          27.0665   -4.5690   46.5640 N.am      2 SEC2        0.0000 
     33 N          26.3040   -3.9000   47.6570 N.am      8 SEL2        0.0000 
     34 N          27.8290   -5.2380   45.4710 N.am      5 SEP2        0.0000 
     35 N          27.4840   -0.1235   53.0290 N.am      2 SEC2        0.0000 
     36 N          27.3780   -1.1080   51.9310 N.am      8 SEL2        0.0000 
     37 N          27.5900    0.8610   54.1270 N.am      5 SEP2        0.0000 
     38 CA         27.7670    1.8505   49.4010 C.3       3 GLC5        0.0000 
     39 CA         26.6960    0.4750   50.3480 C.3       9 GLL5        0.0000 
     40 CA         28.8380    3.2260   48.4540 C.3       6 GLP5        0.0000 
     41 N          27.4880    1.0810   52.7120 N.am      2 SEC2        0.0000 
     42 N          27.3860    1.3010   51.2970 N.am      8 SEL2        0.0000 
     43 O          26.9055    1.8850   52.2390 O.2       1 ALC1        0.0000 
     44 O          27.3860    1.3010   51.2970 O.2       7 ALL1        0.0000 
     45 O          26.4250    2.4690   53.1810 O.2       4 ALP1        0.0000 
     46 CA         26.1515    0.7575   48.2832 C.3       3 GLC5        0.0000 
     47 CA         25.1650    0.5620   50.4360 C.3       9 GLL5        0.0000 
     48 CA         27.4400    0.4420   46.6150 C.3       6 GLP5        0.0000 
     49 CA         23.6610    1.7915   51.4642 C.3       3 GLC5        0.0000 
     50 CA         22.4590    2.5100   52.9770 C.3       6 GLP5        0.0000 
     51 CA         24.3343   -3.7415   47.7530 C.3       3 GLC5        0.0000 
     52 CA         25.2530   -4.1050   49.6110 C.3       9 GLL5        0.0000 
     53 CA         23.2440   -3.0490   46.4950 C.3       6 GLP5        0.0000 
     54 CA         27.1588    0.0907   48.5277 C.3       3 GLC5        0.0000 
     55 CA         27.0590   -0.9960   50.5330 C.3       9 GLL5        0.0000 
@<TRIPOS>BOND
@<TRIPOS>SUBSTRUCTURE
     1 ALC1       20 GROUP        1 X    ALC  0     ROOT ALC X 1
     2 SEC2        1 GROUP        1 X    SEC  0     **** SEC X 2
     3 GLC5       17 GROUP        1 X    GLC  0     **** GLC X 6
     4 ALP1       22 GROUP        1 Y    ALP  0     ROOT ALP Y 8
     5 SEP2        3 GROUP        1 Y    SEP  0     **** SEP Y 9
     6 GLP5       19 GROUP        1 Y    GLP  0     **** GLP Y 13
     7 ALL1       21 GROUP        1 Z    ALL  0     ROOT ALL Z 15
     8 SEL2        2 GROUP        1 Z    SEL  0     **** SEL Z 16
     9 GLL5       18 GROUP        1 Z    GLL  0     **** GLL Z 20
@<TRIPOS>SET

