#    Name: 2cu0_XMP_1_ligand
#    Modification time : Tue Mar 25 01:14:26 2014

@<TRIPOS>MOLECULE
2cu0_XMP_1_ligand
   35    37     1     0     0
SMALL
NO_CHARGES


@<TRIPOS>ATOM
      1 P          22.3900    2.6490   48.8080 P.3       1 XMP1001     0.0000 
      2 O1P        20.8700    2.6470   49.2890 O.co2     1 XMP1001     0.0000 
      3 O2P        23.0060    4.1240   48.9130 O.co2     1 XMP1001     0.0000 
      4 O5'        23.1720    1.6120   49.7530 O.3       1 XMP1001     0.0000 
      5 O3P        22.4240    2.1930   47.4060 O.co2     1 XMP1001     0.0000 
      6 C5'        24.5610    1.5840   49.4670 C.3       1 XMP1001     0.0000 
      7 C4'        25.1650    0.5620   50.4360 C.3       1 XMP1001     0.0000 
      8 O4'        24.6610   -0.7880   50.1600 O.3       1 XMP1001     0.0000 
      9 C1'        25.7100   -1.7470   50.5220 C.3       1 XMP1001     0.0000 
     10 N9         25.7830   -2.8480   49.5160 N.pl3     1 XMP1001     0.0000 
     11 C4         25.2530   -4.1050   49.6110 C.2       1 XMP1001     0.0000 
     12 N3         24.5140   -4.7890   50.5740 N.am      1 XMP1001     0.0000 
     13 N1         24.4260   -6.7490   49.2280 N.am      1 XMP1001     0.0000 
     14 C2         24.1200   -6.0780   50.3680 C.2       1 XMP1001     0.0000 
     15 O2         23.4800   -6.6420   51.2260 O.2       1 XMP1001     0.0000 
     16 C6         25.1490   -6.1570   48.2280 C.2       1 XMP1001     0.0000 
     17 O6         25.4210   -6.7660   47.2050 O.2       1 XMP1001     0.0000 
     18 C5         25.5960   -4.7630   48.4110 C.2       1 XMP1001     0.0000 
     19 N7         26.3040   -3.9000   47.6570 N.2       1 XMP1001     0.0000 
     20 C8         26.4180   -2.7780   48.2940 C.2       1 XMP1001     0.0000 
     21 C2'        27.0590   -0.9960   50.5330 C.3       1 XMP1001     0.0000 
     22 O2'        27.3780   -1.1080   51.9310 O.3       1 XMP1001     0.0000 
     23 C3'        26.6960    0.4750   50.3480 C.3       1 XMP1001     0.0000 
     24 O3'        27.3860    1.3010   51.2970 O.3       1 XMP1001     0.0000 
     25 H          25.0401    2.5359   49.6486 H         1 XMP1001     0.0000 
     26 H          24.7695    1.2494   48.4605 H         1 XMP1001     0.0000 
     27 H          24.9080    0.8387   51.4502 H         1 XMP1001     0.0000 
     28 H          25.5458   -2.1444   51.4956 H         1 XMP1001     0.0000 
     29 H          24.2666   -4.2993   51.4556 H         1 XMP1001     0.0000 
     30 H          24.1053   -7.7373   49.1071 H         1 XMP1001     0.0000 
     31 H          26.8820   -1.9642   47.9897 H         1 XMP1001     0.0000 
     32 H          27.6971   -1.3492   49.9040 H         1 XMP1001     0.0000 
     33 H          26.9703    0.7342   49.3201 H         1 XMP1001     0.0000 
     34 H          26.5052   -1.2969   52.3812 H         1 XMP1001     0.0000 
     35 H          26.7108    1.9780   51.5898 H         1 XMP1001     0.0000 
@<TRIPOS>BOND
     1    2    1 ar   
     2    3    1 ar   
     3    4    1 1    
     4    5    1 ar   
     5    6    4 1    
     6    7    6 1    
     7   25    6 1    
     8   26    6 1    
     9    8    7 1    
    10   23    7 1    
    11   27    7 1    
    12    9    8 1    
    13   10    9 1    
    14   21    9 1    
    15   28    9 1    
    16   11   10 1    
    17   20   10 1    
    18   12   11 1    
    19   18   11 2    
    20   14   12 am   
    21   29   12 1    
    22   14   13 1    
    23   16   13 am   
    24   30   13 1    
    25   15   14 2    
    26   17   16 2    
    27   18   16 1    
    28   19   18 1    
    29   20   19 2    
    30   31   20 1    
    31   22   21 1    
    32   23   21 1    
    33   32   21 1    
    34   34   22 1    
    35   24   23 1    
    36   33   23 1    
    37   35   24 1    
@<TRIPOS>SUBSTRUCTURE
     1 XMP1001     1 GROUP   
@<TRIPOS>SET

