#    Name: 2xel_IA2_1_INTS_M
#    Modification time : Tue Mar 25 05:57:19 2014

@<TRIPOS>MOLECULE
2xel_IA2_1_INTS_M
   34     0     9     0     0
SMALL
NO_CHARGES


@<TRIPOS>ATOM
      1 CA         24.5290   48.9885   31.8650 C.3       3 GLC5        0.0000 
      2 CA         25.2250   47.8860   30.2070 C.3       9 GLL5        0.0000 
      3 CA         23.8330   50.0910   33.5230 C.3       6 GLP5        0.0000 
      4 CA         25.8530   49.7545   29.8440 C.3       3 GLC5        0.0000 
      5 CA         26.4810   51.6230   29.4810 C.3       6 GLP5        0.0000 
      6 CA         26.5665   45.9605   22.4100 C.3       3 GLC5        0.0000 
      7 CA         25.5390   47.3050   22.4020 C.3       9 GLL5        0.0000 
      8 CA         27.5940   44.6160   22.4180 C.3       6 GLP5        0.0000 
      9 O          28.8360   46.8415   26.0365 O.2       1 ALC1        0.0000 
     10 O          27.7920   47.3510   27.2450 O.2       7 ALL1        0.0000 
     11 O          29.8800   46.3320   24.8280 O.2       4 ALP1        0.0000 
     12 CA         21.5920   50.2480   26.6095 C.3       3 GLC5        0.0000 
     13 CA         21.4120   48.5640   25.6940 C.3       9 GLL5        0.0000 
     14 CA         21.7720   51.9320   27.5250 C.3       6 GLP5        0.0000 
     15 CA         21.0240   49.6120   24.1765 C.3       3 GLC5        0.0000 
     16 CA         20.6360   50.6600   22.6590 C.3       6 GLP5        0.0000 
     17 CA         22.1085   49.2935   23.4360 C.3       3 GLC5        0.0000 
     18 CA         23.5810   47.9270   24.2130 C.3       9 GLL5        0.0000 
     19 N          22.2685   47.8130   28.7535 N.am      2 SEC2        0.0000 
     20 N          23.4190   48.3350   27.9500 N.am      8 SEL2        0.0000 
     21 N          21.1180   47.2910   29.5570 N.am      5 SEP2        0.0000 
     22 CA         30.0428   47.4942   30.0727 C.3       3 GLC5        0.0000 
     23 CA         28.6460   47.2330   28.2970 C.3       9 GLL5        0.0000 
     24 CA         30.5900   47.9070   31.9290 C.3       6 GLP5        0.0000 
     25 CA         30.5983   48.4617   28.3357 C.3       3 GLC5        0.0000 
     26 CA         30.3450   46.9300   28.1360 C.3       9 GLL5        0.0000 
     27 CA         31.7010   49.8420   28.4550 C.3       6 GLP5        0.0000 
     28 CA         29.3770   47.6418   31.1085 C.3       3 GLC5        0.0000 
     29 CA         27.8740   47.4030   29.4650 C.3       9 GLL5        0.0000 
     30 CA         26.6564   49.5884   28.9595 C.3       3 GLC5        0.0000 
     31 CA         26.5025   46.0808   23.4970 C.3       3 GLC5        0.0000 
     32 CA         25.8580   47.4990   25.1430 C.3       9 GLL5        0.0000 
     33 CA         22.6440   50.0323   26.8280 C.3       3 GLC5        0.0000 
     34 CA         23.0830   48.1720   25.5410 C.3       9 GLL5        0.0000 
@<TRIPOS>BOND
@<TRIPOS>SUBSTRUCTURE
     1 ALC1        9 GROUP        1 X    ALC  0     ROOT ALC X 1
     2 SEC2       19 GROUP        1 X    SEC  0     **** SEC X 2
     3 GLC5        1 GROUP        1 X    GLC  0     **** GLC X 6
     4 ALP1       11 GROUP        1 Y    ALP  0     ROOT ALP Y 8
     5 SEP2       21 GROUP        1 Y    SEP  0     **** SEP Y 9
     6 GLP5        3 GROUP        1 Y    GLP  0     **** GLP Y 13
     7 ALL1       10 GROUP        1 Z    ALL  0     ROOT ALL Z 15
     8 SEL2       20 GROUP        1 Z    SEL  0     **** SEL Z 16
     9 GLL5        2 GROUP        1 Z    GLL  0     **** GLL Z 20
@<TRIPOS>SET

