#    Name: 2xel_IA2_1_ligand
#    Modification time : Tue Mar 25 05:57:20 2014

@<TRIPOS>MOLECULE
2xel_IA2_1_ligand
   21    22     1     0     0
SMALL
NO_CHARGES


@<TRIPOS>ATOM
      1 CL18       30.3450   46.9300   28.1360 Cl        1 IA2999      0.0000 
      2 C10        28.6460   47.2330   28.2970 C.2       1 IA2999      0.0000 
      3 C9         27.8740   47.4030   29.4650 C.2       1 IA2999      0.0000 
      4 CL17       28.4540   47.3500   31.1110 Cl        1 IA2999      0.0000 
      5 C8         26.5170   47.6280   29.0610 C.2       1 IA2999      0.0000 
      6 CL16       25.2250   47.8860   30.2070 Cl        1 IA2999      0.0000 
      7 C7         26.4680   47.5920   27.6130 C.2       1 IA2999      0.0000 
      8 C4         25.3880   47.7410   26.5220 C.ar      1 IA2999      0.0000 
      9 C5         25.8580   47.4990   25.1430 C.ar      1 IA2999      0.0000 
     10 C6         24.9640   47.5920   24.0090 C.ar      1 IA2999      0.0000 
     11 CL13       25.5390   47.3050   22.4020 Cl        1 IA2999      0.0000 
     12 C3         23.9490   48.0930   26.7210 C.ar      1 IA2999      0.0000 
     13 C2         23.0830   48.1720   25.5410 C.ar      1 IA2999      0.0000 
     14 N1         27.7920   47.3510   27.2450 N.pl3     1 IA2999      0.0000 
     15 CL14       21.4120   48.5640   25.6940 Cl        1 IA2999      0.0000 
     16 C1         23.5810   47.9270   24.2130 C.ar      1 IA2999      0.0000 
     17 O12        23.4190   48.3350   27.9500 O.3       1 IA2999      0.0000 
     18 H          26.8363   47.2619   25.0000 H         1 IA2999      0.0000 
     19 H          28.0679   47.2755   26.2954 H         1 IA2999      0.0000 
     20 H          22.9535   47.9911   23.4191 H         1 IA2999      0.0000 
     21 H          24.1495   48.7864   28.4624 H         1 IA2999      0.0000 
@<TRIPOS>BOND
     1    2    1 1    
     2    3    2 2    
     3   14    2 1    
     4    4    3 1    
     5    5    3 1    
     6    6    5 1    
     7    7    5 2    
     8    8    7 1    
     9   14    7 1    
    10    9    8 ar   
    11   12    8 ar   
    12   10    9 ar   
    13   18    9 1    
    14   11   10 1    
    15   16   10 ar   
    16   13   12 ar   
    17   17   12 1    
    18   15   13 1    
    19   16   13 ar   
    20   19   14 1    
    21   20   16 1    
    22   21   17 1    
@<TRIPOS>SUBSTRUCTURE
     1 IA2999      1 GROUP   
@<TRIPOS>SET

