#    Name: 1o1v_TCH_1_INTS_M
#    Modification time : Mon Mar 24 19:29:16 2014

@<TRIPOS>MOLECULE
1o1v_TCH_1_INTS_M
   66     0     6     0     0
SMALL
NO_CHARGES


@<TRIPOS>ATOM
      1 CA          7.2730   -7.1610   11.4220 C.3       2 GLC5        0.0000 
      2 CA          5.5020   -7.6220   10.7480 C.3       6 GLL5        0.0000 
      3 CA          9.0440   -6.7000   12.0960 C.3       4 GLP5        0.0000 
      4 CA          6.8730   -8.9690   10.6200 C.3       2 GLC5        0.0000 
      5 CA          8.2440  -10.3160   10.4920 C.3       4 GLP5        0.0000 
      6 CA          6.8945   -6.0275   12.1010 C.3       2 GLC5        0.0000 
      7 CA          5.2620   -6.6360   11.9210 C.3       6 GLL5        0.0000 
      8 CA          8.5270   -5.4190   12.2810 C.3       4 GLP5        0.0000 
      9 CA          5.7865   -5.6030   14.3850 C.3       2 GLC5        0.0000 
     10 CA          3.7290   -6.0420   13.9180 C.3       6 GLL5        0.0000 
     11 CA          7.8440   -5.1640   14.8520 C.3       4 GLP5        0.0000 
     12 CA          0.5600   -5.2525   13.7660 C.3       2 GLC5        0.0000 
     13 CA          2.0740   -4.6270   12.5190 C.3       6 GLL5        0.0000 
     14 CA         -0.9540   -5.8780   15.0130 C.3       4 GLP5        0.0000 
     15 CA         -0.1465   -6.9595   10.0090 C.3       2 GLC5        0.0000 
     16 CA          1.0790   -5.4910   10.3520 C.3       6 GLL5        0.0000 
     17 CA         -1.3720   -8.4280    9.6660 C.3       4 GLP5        0.0000 
     18 N           2.6210   -2.8585    7.6565 N.am      1 SEC2        0.0000 
     19 N           1.9750   -3.6030    9.0640 N.am      5 SEL2        0.0000 
     20 N           3.2670   -2.1140    6.2490 N.am      3 SEP2        0.0000 
     21 CA          3.5160   -0.8385   13.0180 C.3       2 GLC5        0.0000 
     22 CA          1.6670   -2.0540   12.9910 C.3       6 GLL5        0.0000 
     23 CA          5.3650    0.3770   13.0450 C.3       4 GLP5        0.0000 
     24 CA         -0.4985    0.3655   12.3405 C.3       2 GLC5        0.0000 
     25 CA          1.0900   -0.9010   12.1210 C.3       6 GLL5        0.0000 
     26 CA         -2.0870    1.6320   12.5600 C.3       4 GLP5        0.0000 
     27 CA         -0.8670   -4.5925   13.3570 C.3       2 GLC5        0.0000 
     28 CA         -0.7800   -3.3070   11.7010 C.3       6 GLL5        0.0000 
     29 CA         -2.3980   -4.5840   12.1185 C.3       2 GLC5        0.0000 
     30 CA         -4.0160   -5.8610   12.5360 C.3       4 GLP5        0.0000 
     31 CA          0.2875   -6.8150   13.7920 C.3       2 GLC5        0.0000 
     32 CA          1.5290   -7.7520   12.5710 C.3       6 GLL5        0.0000 
     33 CA          1.9390   -9.6325   13.3110 C.3       2 GLC5        0.0000 
     34 CA          2.3490  -11.5130   14.0510 C.3       4 GLP5        0.0000 
     35 CA          0.9925   -9.4305   11.4095 C.3       2 GLC5        0.0000 
     36 CA          0.4560  -11.1090   10.2480 C.3       4 GLP5        0.0000 
     37 CA         -0.2980   -8.1540   11.7025 C.3       2 GLC5        0.0000 
     38 CA         -2.1250   -8.5560   10.8340 C.3       4 GLP5        0.0000 
     39 CA         -0.6350    0.2430    6.8895 C.3       2 GLC5        0.0000 
     40 CA         -0.7070   -1.2400    8.5700 C.3       6 GLL5        0.0000 
     41 CA         -0.5630    1.7260    5.2090 C.3       4 GLP5        0.0000 
     42 CA         -2.5980   -0.9185    8.2145 C.3       2 GLC5        0.0000 
     43 CA         -4.4890   -0.5970    7.8590 C.3       4 GLP5        0.0000 
     44 CA          0.3020    1.4905    7.1520 C.3       2 GLC5        0.0000 
     45 CA          1.1670    1.2550    9.0950 C.3       6 GLL5        0.0000 
     46 CA          2.3975    5.0245    7.9410 C.3       2 GLC5        0.0000 
     47 CA          0.5580    4.9830    8.6720 C.3       6 GLL5        0.0000 
     48 CA          4.2370    5.0660    7.2100 C.3       4 GLP5        0.0000 
     49 CA         -1.2140    4.3825   11.4070 C.3       2 GLC5        0.0000 
     50 CA         -0.5670    5.4360    9.6290 C.3       6 GLL5        0.0000 
     51 CA         -1.8610    3.3290   13.1850 C.3       4 GLP5        0.0000 
     52 CA          2.6063   -9.2575    9.0947 C.3       2 GLC5        0.0000 
     53 CA          3.0190   -8.0250   10.6070 C.3       6 GLL5        0.0000 
     54 CA          1.5620  -10.6770    7.9880 C.3       4 GLP5        0.0000 
     55 CA          3.7955   -4.5497   15.3032 C.3       2 GLC5        0.0000 
     56 CA          4.0840   -3.7700   16.9010 C.3       4 GLP5        0.0000 
     57 CA          5.1444   -7.6906   14.0927 C.3       2 GLC5        0.0000 
     58 CA          6.1190   -8.9540   15.0700 C.3       4 GLP5        0.0000 
     59 CA          1.4703   -0.0887   13.8350 C.3       2 GLC5        0.0000 
     60 CA          1.5620    1.3000   15.1140 C.3       4 GLP5        0.0000 
     61 CA         -1.1605    0.8472   11.2588 C.3       2 GLC5        0.0000 
     62 CA         -0.0810    0.8300    9.9210 C.3       6 GLL5        0.0000 
     63 CA          0.4258    6.6578    7.8643 C.3       2 GLC5        0.0000 
     64 CA          0.8560    8.1060    6.5780 C.3       4 GLP5        0.0000 
     65 CA          0.9032    5.8883   10.5457 C.3       2 GLC5        0.0000 
     66 CA          1.8110    6.5670   11.9410 C.3       4 GLP5        0.0000 
@<TRIPOS>BOND
@<TRIPOS>SUBSTRUCTURE
     1 SEC2       18 GROUP        1 X    SEC  0     ROOT SEC X 2
     2 GLC5        1 GROUP        1 X    GLC  0     **** GLC X 6
     3 SEP2       20 GROUP        1 Y    SEP  0     ROOT SEP Y 9
     4 GLP5        3 GROUP        1 Y    GLP  0     **** GLP Y 13
     5 SEL2       19 GROUP        1 Z    SEL  0     ROOT SEL Z 16
     6 GLL5        2 GROUP        1 Z    GLL  0     **** GLL Z 20
@<TRIPOS>SET

