#    Name: 1o1v_TCH_1_ligand
#    Modification time : Mon Mar 24 19:29:16 2014

@<TRIPOS>MOLECULE
1o1v_TCH_1_ligand
   79    82     1     0     0
SMALL
NO_CHARGES


@<TRIPOS>ATOM
      1 C1          3.0190   -8.0250   10.6070 C.3       1 TCH128      0.0000 
      2 C2          4.2820   -7.6510    9.7960 C.3       1 TCH128      0.0000 
      3 C3          5.5020   -7.6220   10.7480 C.3       1 TCH128      0.0000 
      4 O3          6.6880   -7.2850   10.0130 O.3       1 TCH128      0.0000 
      5 C4          5.2620   -6.6360   11.9210 C.3       1 TCH128      0.0000 
      6 C5          3.9590   -6.9890   12.7050 C.3       1 TCH128      0.0000 
      7 C6          3.7290   -6.0420   13.9180 C.3       1 TCH128      0.0000 
      8 C7          3.2850   -4.6170   13.4930 C.3       1 TCH128      0.0000 
      9 O7          4.3770   -3.8760   12.9280 O.3       1 TCH128      0.0000 
     10 C8          2.0740   -4.6270   12.5190 C.3       1 TCH128      0.0000 
     11 C9          2.2990   -5.6020   11.3220 C.3       1 TCH128      0.0000 
     12 C10         2.6910   -7.0570   11.7900 C.3       1 TCH128      0.0000 
     13 C11         1.0790   -5.4910   10.3520 C.3       1 TCH128      0.0000 
     14 C12         0.8430   -4.0320    9.8430 C.3       1 TCH128      0.0000 
     15 O12         1.9750   -3.6030    9.0640 O.3       1 TCH128      0.0000 
     16 C13         0.6050   -3.0350   11.0230 C.3       1 TCH128      0.0000 
     17 C14         1.8340   -3.1940   11.9660 C.3       1 TCH128      0.0000 
     18 C15         1.6670   -2.0540   12.9910 C.3       1 TCH128      0.0000 
     19 C16         1.0900   -0.9010   12.1210 C.3       1 TCH128      0.0000 
     20 C17         0.7530   -1.5010   10.7170 C.3       1 TCH128      0.0000 
     21 C18        -0.7800   -3.3070   11.7010 C.3       1 TCH128      0.0000 
     22 C19         1.5290   -7.7520   12.5710 C.3       1 TCH128      0.0000 
     23 C20        -0.3870   -0.7050    9.9940 C.3       1 TCH128      0.0000 
     24 C21        -0.7070   -1.2400    8.5700 C.3       1 TCH128      0.0000 
     25 C22        -0.0810    0.8300    9.9210 C.3       1 TCH128      0.0000 
     26 C23         1.1670    1.2550    9.0950 C.3       1 TCH128      0.0000 
     27 C24         1.3230    2.7550    9.2210 C.2       1 TCH128      0.0000 
     28 N24         0.5040    3.5290    8.5560 N.am      1 TCH128      0.0000 
     29 O24         2.1950    3.1880    9.9600 O.2       1 TCH128      0.0000 
     30 C25         0.5580    4.9830    8.6720 C.3       1 TCH128      0.0000 
     31 C26        -0.5670    5.4360    9.6290 C.3       1 TCH128      0.0000 
     32 S26        -2.1820    5.1070    8.8990 S.o2      1 TCH128      0.0000 
     33 O1S        -2.1380    6.0530    7.7340 O.co2     1 TCH128      0.0000 
     34 O2S        -2.2130    3.7490    8.3930 O.co2     1 TCH128      0.0000 
     35 O3S        -3.1980    5.5540    9.8310 O.co2     1 TCH128      0.0000 
     36 H           3.1432   -9.0391   11.0145 H         1 TCH128      0.0000 
     37 H           2.1530   -8.0483    9.9293 H         1 TCH128      0.0000 
     38 H           4.1487   -6.6755    9.3599 H         1 TCH128      0.0000 
     39 H           4.4459   -8.3913    9.0314 H         1 TCH128      0.0000 
     40 H           5.5907   -8.6224   11.1805 H         1 TCH128      0.0000 
     41 H           5.1708   -5.6289   11.5273 H         1 TCH128      0.0000 
     42 H           6.1040   -6.6826   12.6039 H         1 TCH128      0.0000 
     43 H           4.1011   -8.0091   13.1236 H         1 TCH128      0.0000 
     44 H           4.6574   -5.9687   14.4876 H         1 TCH128      0.0000 
     45 H           2.9609   -6.4753   14.5614 H         1 TCH128      0.0000 
     46 H           2.9357   -4.1084   14.4151 H         1 TCH128      0.0000 
     47 H           1.1966   -4.9332   13.0523 H         1 TCH128      0.0000 
     48 H           3.1789   -5.1905   10.7667 H         1 TCH128      0.0000 
     49 H           0.1842   -5.8300   10.8727 H         1 TCH128      0.0000 
     50 H           1.2529   -6.1383    9.4933 H         1 TCH128      0.0000 
     51 H          -0.0572   -4.0409    9.2379 H         1 TCH128      0.0000 
     52 H           2.7141   -2.9056   11.3363 H         1 TCH128      0.0000 
     53 H           2.6060   -1.7705   13.3674 H         1 TCH128      0.0000 
     54 H           0.9612   -2.3279   13.7195 H         1 TCH128      0.0000 
     55 H           1.8276   -0.1382   12.0073 H         1 TCH128      0.0000 
     56 H           0.1937   -0.5328   12.5681 H         1 TCH128      0.0000 
     57 H           1.6958   -1.3888   10.1410 H         1 TCH128      0.0000 
     58 H          -1.3025   -0.8136   10.5966 H         1 TCH128      0.0000 
     59 H           0.0352    1.2081   10.9555 H         1 TCH128      0.0000 
     60 H          -0.9710    1.3396    9.5029 H         1 TCH128      0.0000 
     61 H           1.0077    0.9812    8.0671 H         1 TCH128      0.0000 
     62 H           2.0306    0.7547    9.4961 H         1 TCH128      0.0000 
     63 H          -0.2293    3.1604    7.9097 H         1 TCH128      0.0000 
     64 H           0.3957    5.4634    7.7132 H         1 TCH128      0.0000 
     65 H           1.5041    5.3126    9.0875 H         1 TCH128      0.0000 
     66 H          -0.5851    6.4854    9.7836 H         1 TCH128      0.0000 
     67 H          -0.5959    4.8789   10.5314 H         1 TCH128      0.0000 
     68 H          -0.8361   -4.2338   12.0723 H         1 TCH128      0.0000 
     69 H          -0.9530   -2.6770   12.4581 H         1 TCH128      0.0000 
     70 H          -1.5364   -3.2037   11.0551 H         1 TCH128      0.0000 
     71 H           1.7977   -8.6527   12.9125 H         1 TCH128      0.0000 
     72 H           1.2387   -7.2132   13.3619 H         1 TCH128      0.0000 
     73 H           0.7223   -7.8855   11.9953 H         1 TCH128      0.0000 
     74 H           0.0896   -1.1915    7.9674 H         1 TCH128      0.0000 
     75 H          -1.0019   -2.1953    8.5898 H         1 TCH128      0.0000 
     76 H          -1.4380   -0.7166    8.1322 H         1 TCH128      0.0000 
     77 H           6.4565   -7.4568    9.0555 H         1 TCH128      0.0000 
     78 H           4.9544   -3.2986   13.5054 H         1 TCH128      0.0000 
     79 H           1.9691   -4.1897    8.2543 H         1 TCH128      0.0000 
@<TRIPOS>BOND
     1    2    1 1    
     2   12    1 1    
     3   36    1 1    
     4   37    1 1    
     5    3    2 1    
     6   38    2 1    
     7   39    2 1    
     8    4    3 1    
     9    5    3 1    
    10   40    3 1    
    11   77    4 1    
    12    6    5 1    
    13   41    5 1    
    14   42    5 1    
    15    7    6 1    
    16   12    6 1    
    17   43    6 1    
    18    8    7 1    
    19   44    7 1    
    20   45    7 1    
    21    9    8 1    
    22   10    8 1    
    23   46    8 1    
    24   78    9 1    
    25   11   10 1    
    26   17   10 1    
    27   47   10 1    
    28   12   11 1    
    29   13   11 1    
    30   48   11 1    
    31   22   12 1    
    32   14   13 1    
    33   49   13 1    
    34   50   13 1    
    35   15   14 1    
    36   16   14 1    
    37   51   14 1    
    38   79   15 1    
    39   17   16 1    
    40   20   16 1    
    41   21   16 1    
    42   18   17 1    
    43   52   17 1    
    44   19   18 1    
    45   53   18 1    
    46   54   18 1    
    47   20   19 1    
    48   55   19 1    
    49   56   19 1    
    50   23   20 1    
    51   57   20 1    
    52   68   21 1    
    53   69   21 1    
    54   70   21 1    
    55   71   22 1    
    56   72   22 1    
    57   73   22 1    
    58   24   23 1    
    59   25   23 1    
    60   58   23 1    
    61   74   24 1    
    62   75   24 1    
    63   76   24 1    
    64   26   25 1    
    65   59   25 1    
    66   60   25 1    
    67   27   26 1    
    68   61   26 1    
    69   62   26 1    
    70   28   27 am   
    71   29   27 2    
    72   30   28 1    
    73   63   28 1    
    74   31   30 1    
    75   64   30 1    
    76   65   30 1    
    77   32   31 1    
    78   66   31 1    
    79   67   31 1    
    80   33   32 ar   
    81   34   32 ar   
    82   35   32 ar   
@<TRIPOS>SUBSTRUCTURE
     1 TCH128      1 GROUP   
@<TRIPOS>SET

