#    Name: 4nec_SAH_2_INTS_M
#    Modification time : Tue Mar 25 13:02:55 2014

@<TRIPOS>MOLECULE
4nec_SAH_2_INTS_M
   67     0     9     0     0
SMALL
NO_CHARGES


@<TRIPOS>ATOM
      1 O           1.5950  100.2855   38.6170 O.2       1 ALC1        0.0000 
      2 O           2.0380   99.1000   39.1900 O.2       7 ALL1        0.0000 
      3 O           1.1520  101.4710   38.0440 O.2       4 ALP1        0.0000 
      4 O           1.3715   98.0065   38.5720 O.2       1 ALC1        0.0000 
      5 O           0.7050   96.9130   37.9540 O.2       4 ALP1        0.0000 
      6 O           3.4255   99.0775   39.1980 O.2       1 ALC1        0.0000 
      7 O           4.8130   99.0550   39.2060 O.2       4 ALP1        0.0000 
      8 CA          2.5560  101.1535   39.6830 C.3       3 GLC5        0.0000 
      9 CA          1.6430   99.3750   40.6080 C.3       9 GLL5        0.0000 
     10 CA          3.4690  102.9320   38.7580 C.3       6 GLP5        0.0000 
     11 CA         -2.0530   98.7530   42.1265 C.3       3 GLC5        0.0000 
     12 CA         -2.4960   99.1450   40.4650 C.3       9 GLL5        0.0000 
     13 CA         -1.6100   98.3610   43.7880 C.3       6 GLP5        0.0000 
     14 CA         -0.9595  102.2120   37.6240 C.3       3 GLC5        0.0000 
     15 CA         -2.5010  101.4040   38.9500 C.3       9 GLL5        0.0000 
     16 CA          0.5820  103.0200   36.2980 C.3       6 GLP5        0.0000 
     17 CA         -3.1025  103.1285   41.8625 C.3       3 GLC5        0.0000 
     18 CA         -3.0860  102.3070   40.0360 C.3       9 GLL5        0.0000 
     19 CA         -3.1190  103.9500   43.6890 C.3       6 GLP5        0.0000 
     20 N          -1.8600  102.5300   41.9265 N.am      2 SEC2        0.0000 
     21 N          -2.0350  102.9510   40.7580 N.am      8 SEL2        0.0000 
     22 N          -1.6850  102.1090   43.0950 N.am      5 SEP2        0.0000 
     23 O          -1.9130  104.4970   40.2940 O.2       1 ALC1        0.0000 
     24 O          -2.0350  102.9510   40.7580 O.2       7 ALL1        0.0000 
     25 O          -1.7910  106.0430   39.8300 O.2       4 ALP1        0.0000 
     26 O          -1.2020  103.6845   40.0785 O.2       1 ALC1        0.0000 
     27 O          -0.3690  104.4180   39.3990 O.2       4 ALP1        0.0000 
     28 O          -2.9035  105.3280   39.8615 O.2       1 ALC1        0.0000 
     29 O          -4.0160  104.6130   39.8930 O.2       7 ALL1        0.0000 
     30 CA         -1.3315  103.1855   37.1160 C.3       3 GLC5        0.0000 
     31 CA         -3.2450  103.3510   37.9340 C.3       9 GLL5        0.0000 
     32 CA         -3.2510  102.4980   36.0400 C.3       3 GLC5        0.0000 
     33 CA         -3.2570  101.6450   34.1460 C.3       6 GLP5        0.0000 
     34 CA         -3.8160  107.6600   33.0030 C.3       3 GLC5        0.0000 
     35 CA         -4.5740  105.6960   33.7780 C.3       9 GLL5        0.0000 
     36 CA         -3.0580  109.6240   32.2280 C.3       6 GLP5        0.0000 
     37 CA         -2.9400  105.4790   32.4210 C.3       3 GLC5        0.0000 
     38 CA         -1.3060  105.2620   31.0640 C.3       6 GLP5        0.0000 
     39 O          -5.4035  107.0205   32.0440 O.2       1 ALC1        0.0000 
     40 O          -5.5570  105.8640   32.8570 O.2       7 ALL1        0.0000 
     41 O          -5.2500  108.1770   31.2310 O.2       4 ALP1        0.0000 
     42 N          -2.8200  106.9345   32.5235 N.am      2 SEC2        0.0000 
     43 N          -3.3860  106.3620   33.6940 N.am      8 SEL2        0.0000 
     44 N          -2.2540  107.5070   31.3530 N.am      5 SEP2        0.0000 
     45 CA         -1.1190  106.7120   36.1320 C.3       3 GLC5        0.0000 
     46 CA         -2.4070  106.1910   34.6090 C.3       9 GLL5        0.0000 
     47 CA          0.1690  107.2330   37.6550 C.3       6 GLP5        0.0000 
     48 CA         -3.4735  107.0975   35.9105 C.3       3 GLC5        0.0000 
     49 CA         -4.5400  108.0040   37.2120 C.3       6 GLP5        0.0000 
     50 CA         -2.7325  107.9075   33.4185 C.3       3 GLC5        0.0000 
     51 CA         -1.8565  105.7265   32.8365 C.3       3 GLC5        0.0000 
     52 N          -2.3310  106.6325   36.6335 N.am      2 SEC2        0.0000 
     53 N          -2.5210  105.3730   35.6750 N.am      8 SEL2        0.0000 
     54 N          -2.1410  107.8920   37.5920 N.am      5 SEP2        0.0000 
     55 CA          1.1400  101.3648   41.2995 C.3       3 GLC5        0.0000 
     56 CA          0.1590   99.7480   40.7360 C.3       9 GLL5        0.0000 
     57 CA          1.3790  103.1680   41.9270 C.3       6 GLP5        0.0000 
     58 CA         -0.9673   98.8162   42.0875 C.3       3 GLC5        0.0000 
     59 CA         -4.7613  100.8577   39.6397 C.3       3 GLC5        0.0000 
     60 CA         -3.0400   99.9750   39.0030 C.3       9 GLL5        0.0000 
     61 CA         -6.7520  101.0260   40.3030 C.3       6 GLP5        0.0000 
     62 CA         -5.0638  102.4810   40.3792 C.3       3 GLC5        0.0000 
     63 CA         -6.6150  102.1510   41.0990 C.3       6 GLP5        0.0000 
     64 CA         -4.3510  106.4736   36.1610 C.3       3 GLC5        0.0000 
     65 CA         -4.7680  104.7770   34.9220 C.3       9 GLL5        0.0000 
     66 CA         -3.7095  103.2941   34.6280 C.3       3 GLC5        0.0000 
     67 CA         -3.6530  104.6500   35.8700 C.3       9 GLL5        0.0000 
@<TRIPOS>BOND
@<TRIPOS>SUBSTRUCTURE
     1 ALC1        1 GROUP        1 X    ALC  0     ROOT ALC X 1
     2 SEC2       20 GROUP        1 X    SEC  0     **** SEC X 2
     3 GLC5        8 GROUP        1 X    GLC  0     **** GLC X 6
     4 ALP1        3 GROUP        1 Y    ALP  0     ROOT ALP Y 8
     5 SEP2       22 GROUP        1 Y    SEP  0     **** SEP Y 9
     6 GLP5       10 GROUP        1 Y    GLP  0     **** GLP Y 13
     7 ALL1        2 GROUP        1 Z    ALL  0     ROOT ALL Z 15
     8 SEL2       21 GROUP        1 Z    SEL  0     **** SEL Z 16
     9 GLL5        9 GROUP        1 Z    GLL  0     **** GLL Z 20
@<TRIPOS>SET

