#    Name: 4nec_SAH_2_ligand
#    Modification time : Tue Mar 25 13:02:55 2014

@<TRIPOS>MOLECULE
4nec_SAH_2_ligand
   46    48     1     0     0
SMALL
NO_CHARGES


@<TRIPOS>ATOM
      1 N           2.0380   99.1000   39.1900 N.4       1 SAH401      0.0000 
      2 CA          1.6430   99.3750   40.6080 C.3       1 SAH401      0.0000 
      3 CB          0.1590   99.7480   40.7360 C.3       1 SAH401      0.0000 
      4 CG         -0.8080   98.7950   40.0380 C.3       1 SAH401      0.0000 
      5 SD         -2.4960   99.1450   40.4650 S.3       1 SAH401      0.0000 
      6 C           1.9430   98.2070   41.4960 C.2       1 SAH401      0.0000 
      7 O           2.3650   97.1440   41.0270 O.co2     1 SAH401      0.0000 
      8 OXT         1.7690   98.3010   42.7140 O.co2     1 SAH401      0.0000 
      9 C5'        -3.0400   99.9750   39.0030 C.3       1 SAH401      0.0000 
     10 C4'        -2.5010  101.4040   38.9500 C.3       1 SAH401      0.0000 
     11 O4'        -2.8420  102.0090   37.7000 O.3       1 SAH401      0.0000 
     12 C3'        -3.0860  102.3070   40.0360 C.3       1 SAH401      0.0000 
     13 O3'        -2.0350  102.9510   40.7580 O.3       1 SAH401      0.0000 
     14 C2'        -3.9390  103.3150   39.2830 C.3       1 SAH401      0.0000 
     15 O2'        -4.0160  104.6130   39.8930 O.3       1 SAH401      0.0000 
     16 C1'        -3.2450  103.3510   37.9340 C.3       1 SAH401      0.0000 
     17 N9         -4.0710  103.7880   36.7960 N.pl3     1 SAH401      0.0000 
     18 C8         -5.3090  103.3690   36.4890 C.2       1 SAH401      0.0000 
     19 N7         -5.7430  103.9620   35.3540 N.2       1 SAH401      0.0000 
     20 C5         -4.7680  104.7770   34.9220 C.ar      1 SAH401      0.0000 
     21 C6         -4.5740  105.6960   33.7780 C.ar      1 SAH401      0.0000 
     22 N6         -5.5570  105.8640   32.8570 N.pl3     1 SAH401      0.0000 
     23 N1         -3.3860  106.3620   33.6940 N.ar      1 SAH401      0.0000 
     24 C2         -2.4070  106.1910   34.6090 C.ar      1 SAH401      0.0000 
     25 N3         -2.5210  105.3730   35.6750 N.ar      1 SAH401      0.0000 
     26 C4         -3.6530  104.6500   35.8700 C.ar      1 SAH401      0.0000 
     27 H           2.2227  100.2349   40.9738 H         1 SAH401      0.0000 
     28 H           0.0150  100.7669   40.3298 H         1 SAH401      0.0000 
     29 H          -0.1004   99.7997   41.8102 H         1 SAH401      0.0000 
     30 H          -0.6844   97.7755   40.3411 H         1 SAH401      0.0000 
     31 H          -0.7988   98.8944   38.9719 H         1 SAH401      0.0000 
     32 H          -4.1054   99.9341   39.0742 H         1 SAH401      0.0000 
     33 H          -2.6672   99.3597   38.2129 H         1 SAH401      0.0000 
     34 H          -1.4296  101.3815   39.0751 H         1 SAH401      0.0000 
     35 H          -3.7197  101.7162   40.6504 H         1 SAH401      0.0000 
     36 H          -4.9055  102.8617   39.1239 H         1 SAH401      0.0000 
     37 H          -2.3644  103.9745   38.0253 H         1 SAH401      0.0000 
     38 H          -5.8300  102.7236   37.0112 H         1 SAH401      0.0000 
     39 H          -6.1597  105.0799   32.7086 H         1 SAH401      0.0000 
     40 H          -5.5916  106.7570   32.4082 H         1 SAH401      0.0000 
     41 H          -1.4976  106.7311   34.4809 H         1 SAH401      0.0000 
     42 H           1.5171   98.3406   38.8000 H         1 SAH401      0.0000 
     43 H           1.8847   99.8935   38.6012 H         1 SAH401      0.0000 
     44 H           3.0060   98.8611   39.1138 H         1 SAH401      0.0000 
     45 H          -1.8329  103.7799   40.2364 H         1 SAH401      0.0000 
     46 H          -3.1171  105.0240   39.7411 H         1 SAH401      0.0000 
@<TRIPOS>BOND
     1    2    1 1    
     2   42    1 1    
     3   43    1 1    
     4   44    1 1    
     5    3    2 1    
     6    6    2 1    
     7   27    2 1    
     8    4    3 1    
     9   28    3 1    
    10   29    3 1    
    11    5    4 1    
    12   30    4 1    
    13   31    4 1    
    14    9    5 1    
    15    7    6 ar   
    16    8    6 ar   
    17   10    9 1    
    18   32    9 1    
    19   33    9 1    
    20   11   10 1    
    21   12   10 1    
    22   34   10 1    
    23   16   11 1    
    24   13   12 1    
    25   14   12 1    
    26   35   12 1    
    27   45   13 1    
    28   15   14 1    
    29   16   14 1    
    30   36   14 1    
    31   46   15 1    
    32   17   16 1    
    33   37   16 1    
    34   18   17 1    
    35   26   17 1    
    36   19   18 2    
    37   38   18 1    
    38   20   19 1    
    39   21   20 ar   
    40   26   20 ar   
    41   22   21 1    
    42   23   21 ar   
    43   39   22 1    
    44   40   22 1    
    45   24   23 ar   
    46   25   24 ar   
    47   41   24 1    
    48   26   25 ar   
@<TRIPOS>SUBSTRUCTURE
     1 SAH401      1 GROUP   
@<TRIPOS>SET

