#    Name: 3exh_TPP_1_INTS_M
#    Modification time : Tue Mar 25 02:44:07 2014

@<TRIPOS>MOLECULE
3exh_TPP_1_INTS_M
   88     0    15     0     0
SMALL
NO_CHARGES


@<TRIPOS>ATOM
      1 N         -35.4055   58.6065   17.6500 N.am      2 SEC2        0.0000 
      2 N         -35.5910   59.8340   18.2730 N.am     12 SEL2        0.0000 
      3 N         -35.2200   57.3790   17.0270 N.am      7 SEP2        0.0000 
      4 CA        -34.2645   60.4690   17.3655 C.3       5 GLC5        0.0000 
      5 CA        -36.3630   60.8080   17.7070 C.3      15 GLL5        0.0000 
      6 CA        -32.1660   60.1300   17.0240 C.3      10 GLP5        0.0000 
      7 CA        -37.5955   59.1605   17.7155 C.3       5 GLC5        0.0000 
      8 CA        -38.8280   57.5130   17.7240 C.3      10 GLP5        0.0000 
      9 CA        -38.1785   61.8210   15.7275 C.3       5 GLC5        0.0000 
     10 CA        -36.7100   60.7030   16.2260 C.3      15 GLL5        0.0000 
     11 CA        -39.6470   62.9390   15.2290 C.3      10 GLP5        0.0000 
     12 CA        -38.1700   60.1370   17.5355 C.3       5 GLC5        0.0000 
     13 CA        -39.6300   59.5710   18.8450 C.3      10 GLP5        0.0000 
     14 N         -36.6975   63.1760   17.7030 N.am      2 SEC2        0.0000 
     15 N         -36.7840   61.8670   18.5180 N.am     12 SEL2        0.0000 
     16 N         -36.6110   64.4850   16.8880 N.am      7 SEP2        0.0000 
     17 O         -37.8325   63.9835   20.1330 O.2       1 ALC1        0.0000 
     18 O         -36.9290   62.9790   20.5490 O.2      11 ALL1        0.0000 
     19 O         -38.7360   64.9880   19.7170 O.2       6 ALP1        0.0000 
     20 CA        -33.7200   60.0200   18.3050 C.3       5 GLC5        0.0000 
     21 CA        -35.2740   59.9100   19.5860 C.3      15 GLL5        0.0000 
     22 CA        -35.0045   59.4130   22.8875 C.3       5 GLC5        0.0000 
     23 CA        -35.2610   60.8580   21.8430 C.3      15 GLL5        0.0000 
     24 CA        -34.7480   57.9680   23.9320 C.3      10 GLP5        0.0000 
     25 CA        -36.7275   59.9170   21.4755 C.3       5 GLC5        0.0000 
     26 CA        -38.1940   58.9760   21.1080 C.3      10 GLP5        0.0000 
     27 CA        -32.6435   58.9315   22.3725 C.3       5 GLC5        0.0000 
     28 CA        -32.0990   60.5320   21.3760 C.3      15 GLL5        0.0000 
     29 CA        -33.1880   57.3310   23.3690 C.3      10 GLP5        0.0000 
     30 CA        -29.9615   62.3975   23.5985 C.3       5 GLC5        0.0000 
     31 CA        -30.8240   63.3900   22.1410 C.3      15 GLL5        0.0000 
     32 CA        -29.0990   61.4050   25.0560 C.3      10 GLP5        0.0000 
     33 CA        -32.0605   65.8970   21.6355 C.3       5 GLC5        0.0000 
     34 CA        -30.7010   64.4200   21.0050 C.3      15 GLL5        0.0000 
     35 CA        -33.4200   67.3740   22.2660 C.3      10 GLP5        0.0000 
     36 CA        -32.4310   64.3715   19.8510 C.3       5 GLC5        0.0000 
     37 CA        -34.1610   64.3230   18.6970 C.3      10 GLP5        0.0000 
     38 N         -29.0520   65.7640   17.6890 N.am      2 SEC2        0.0000 
     39 N         -29.5110   66.5620   18.9650 N.am     12 SEL2        0.0000 
     40 N         -28.5930   64.9660   16.4130 N.am      7 SEP2        0.0000 
     41 Zn        -26.7695   67.0285   20.9645 Zn        4 ZIC7        0.0000 
     42 Zn        -27.4460   66.3520   20.3680 Zn       14 ZIL7        0.0000 
     43 Zn        -26.0930   67.7050   21.5610 Zn        9 ZIP7        0.0000 
     44 N         -26.9305   65.8485   19.2155 N.am      2 SEC2        0.0000 
     45 N         -27.4460   66.3520   20.3680 N.am     12 SEL2        0.0000 
     46 N         -26.4150   65.3450   18.0630 N.am      7 SEP2        0.0000 
     47 N         -28.1600   68.5655   20.8720 N.am      2 SEC2        0.0000 
     48 N         -29.5460   67.7490   21.0430 N.am     12 SEL2        0.0000 
     49 N         -26.7740   69.3820   20.7010 N.am      7 SEP2        0.0000 
     50 NZ        -27.4615   67.3415   24.2305 N.4       3 LYC4        0.0000 
     51 NZ        -27.8410   67.9890   22.8620 N.4      13 LYL4        0.0000 
     52 NZ        -27.1240   67.6790   26.4840 N.4       8 LYP4        0.0000 
     53 Zn        -26.9670   67.8470   22.2115 Zn        4 ZIC7        0.0000 
     54 Zn        -27.8410   67.9890   22.8620 Zn       14 ZIL7        0.0000 
     55 N         -26.9490   69.3650   23.2010 N.am      2 SEC2        0.0000 
     56 N         -27.8410   67.9890   22.8620 N.am     12 SEL2        0.0000 
     57 N         -26.0570   70.7410   23.5400 N.am      7 SEP2        0.0000 
     58 N         -27.5420   68.4620   24.4540 N.am      2 SEC2        0.0000 
     59 N         -27.2430   68.9350   26.0460 N.am      7 SEP2        0.0000 
     60 N         -27.4615   67.3415   24.2305 N.am      2 SEC2        0.0000 
     61 N         -27.0820   66.6940   25.5990 N.am      7 SEP2        0.0000 
     62 NZ        -29.9370   70.2590   23.6950 N.4       3 LYC4        0.0000 
     63 NZ        -29.4030   69.7950   22.4560 N.4      13 LYL4        0.0000 
     64 NZ        -30.5920   69.9690   26.0290 N.4       8 LYP4        0.0000 
     65 N         -29.9370   70.2590   23.6950 N.am      2 SEC2        0.0000 
     66 N         -29.4030   69.7950   22.4560 N.am     12 SEL2        0.0000 
     67 N         -30.4710   70.7230   24.9340 N.am      7 SEP2        0.0000 
     68 NZ        -30.4305   68.1850   24.7445 N.4       3 LYC4        0.0000 
     69 NZ        -30.2160   67.7140   23.5590 N.4      13 LYL4        0.0000 
     70 N         -31.2305   67.1950   22.8785 N.am      2 SEC2        0.0000 
     71 N         -30.2160   67.7140   23.5590 N.am     12 SEL2        0.0000 
     72 N         -32.2450   66.6760   22.1980 N.am      7 SEP2        0.0000 
     73 N         -30.3435   69.2185   24.2465 N.am      2 SEC2        0.0000 
     74 N         -30.4305   68.1850   24.7445 N.am      2 SEC2        0.0000 
     75 N         -30.6450   68.6560   25.9300 N.am      7 SEP2        0.0000 
     76 CA        -35.4047   62.3283   17.0887 C.3       5 GLC5        0.0000 
     77 CA        -34.2730   63.9010   17.2110 C.3      10 GLP5        0.0000 
     78 CA        -35.1200   62.8837   19.4105 C.3       5 GLC5        0.0000 
     79 CA        -36.4650   61.9530   19.8530 C.3      15 GLL5        0.0000 
     80 CA        -32.0403   60.6080   23.6737 C.3       5 GLC5        0.0000 
     81 CA        -31.6010   60.0850   25.7360 C.3      10 GLP5        0.0000 
     82 CA        -31.0202   61.3953   20.2776 C.3       5 GLC5        0.0000 
     83 CA        -29.7110   61.3560   18.8580 C.3      10 GLP5        0.0000 
     84 CA        -28.6813   63.8530   21.8515 C.3       5 GLC5        0.0000 
     85 CA        -26.6000   63.8010   22.1300 C.3      10 GLP5        0.0000 
     86 CA        -30.2368   62.6305   20.2155 C.3       5 GLC5        0.0000 
     87 CA        -33.7136   63.6395   20.5082 C.3       5 GLC5        0.0000 
     88 CA        -32.2600   62.9440   22.1900 C.3      15 GLL5        0.0000 
@<TRIPOS>BOND
@<TRIPOS>SUBSTRUCTURE
     1 ALC1       17 GROUP        1 X    ALC  0     ROOT ALC X 1
     2 SEC2        1 GROUP        1 X    SEC  0     **** SEC X 2
     3 LYC4       50 GROUP        1 X    LYC  0     **** LYC X 4
     4 ZIC7       41 GROUP        1 X    ZIC  0     **** ZIC X 5
     5 GLC5        4 GROUP        1 X    GLC  0     **** GLC X 6
     6 ALP1       19 GROUP        1 Y    ALP  0     ROOT ALP Y 8
     7 SEP2        3 GROUP        1 Y    SEP  0     **** SEP Y 9
     8 LYP4       52 GROUP        1 Y    LYP  0     **** LYP Y 11
     9 ZIP7       43 GROUP        1 Y    ZIP  0     **** ZIP Y 12
    10 GLP5        6 GROUP        1 Y    GLP  0     **** GLP Y 13
    11 ALL1       18 GROUP        1 Z    ALL  0     ROOT ALL Z 15
    12 SEL2        2 GROUP        1 Z    SEL  0     **** SEL Z 16
    13 LYL4       51 GROUP        1 Z    LYL  0     **** LYL Z 18
    14 ZIL7       42 GROUP        1 Z    ZIL  0     **** ZIL Z 19
    15 GLL5        5 GROUP        1 Z    GLL  0     **** GLL Z 20
@<TRIPOS>SET

