#    Name: 3exh_TPP_1_ligand
#    Modification time : Tue Mar 25 02:44:07 2014

@<TRIPOS>MOLECULE
3exh_TPP_1_ligand
   42    43     1     0     0
SMALL
NO_CHARGES


@<TRIPOS>ATOM
      1 N1'       -35.5910   59.8340   18.2730 N.ar      1 TPP1502     0.0000 
      2 C2'       -36.3630   60.8080   17.7070 C.ar      1 TPP1502     0.0000 
      3 CM2       -36.7100   60.7030   16.2260 C.3       1 TPP1502     0.0000 
      4 N3'       -36.7840   61.8670   18.5180 N.ar      1 TPP1502     0.0000 
      5 C4'       -36.4650   61.9530   19.8530 C.ar      1 TPP1502     0.0000 
      6 N4'       -36.9290   62.9790   20.5490 N.pl3     1 TPP1502     0.0000 
      7 C5'       -35.6930   60.9360   20.3950 C.ar      1 TPP1502     0.0000 
      8 C6'       -35.2740   59.9100   19.5860 C.ar      1 TPP1502     0.0000 
      9 C7'       -35.2610   60.8580   21.8430 C.3       1 TPP1502     0.0000 
     10 N3        -34.2330   61.8390   22.0630 N.pl3     1 TPP1502     0.0000 
     11 C2        -34.6120   63.0970   22.5250 C.2       1 TPP1502     0.0000 
     12 S1        -33.3330   64.0530   22.7160 S.3       1 TPP1502     0.0000 
     13 C5        -32.2600   62.9440   22.1900 C.2       1 TPP1502     0.0000 
     14 C4        -32.8600   61.7300   21.8470 C.2       1 TPP1502     0.0000 
     15 CM4       -32.0990   60.5320   21.3760 C.3       1 TPP1502     0.0000 
     16 C6        -30.8240   63.3900   22.1410 C.3       1 TPP1502     0.0000 
     17 C7        -30.7010   64.4200   21.0050 C.3       1 TPP1502     0.0000 
     18 O7        -29.5640   65.2280   21.2370 O.3       1 TPP1502     0.0000 
     19 PA        -28.9320   66.4240   20.3610 P.3       1 TPP1502     0.0000 
     20 O1A       -29.5110   66.5620   18.9650 O.co2     1 TPP1502     0.0000 
     21 O2A       -27.4460   66.3520   20.3680 O.co2     1 TPP1502     0.0000 
     22 O3A       -29.5460   67.7490   21.0430 O.3       1 TPP1502     0.0000 
     23 PB        -29.2770   68.2870   22.5540 P.3       1 TPP1502     0.0000 
     24 O1B       -27.8410   67.9890   22.8620 O.co2     1 TPP1502     0.0000 
     25 O2B       -29.4030   69.7950   22.4560 O.co2     1 TPP1502     0.0000 
     26 O3B       -30.2160   67.7140   23.5590 O.co2     1 TPP1502     0.0000 
     27 H         -36.6800   63.0025   21.5172 H         1 TPP1502     0.0000 
     28 H         -37.4864   63.6376   20.0435 H         1 TPP1502     0.0000 
     29 H         -34.6776   59.1495   20.0152 H         1 TPP1502     0.0000 
     30 H         -34.8979   59.8485   22.0402 H         1 TPP1502     0.0000 
     31 H         -36.1318   61.0445   22.4728 H         1 TPP1502     0.0000 
     32 H         -35.4512   63.4457   22.7281 H         1 TPP1502     0.0000 
     33 H         -30.1806   62.5547   21.9263 H         1 TPP1502     0.0000 
     34 H         -30.5466   63.8587   23.0690 H         1 TPP1502     0.0000 
     35 H         -31.6281   65.0005   20.9894 H         1 TPP1502     0.0000 
     36 H         -30.6314   63.8631   20.0660 H         1 TPP1502     0.0000 
     37 H         -35.8912   60.7003   15.6520 H         1 TPP1502     0.0000 
     38 H         -37.2143   59.8641   16.0213 H         1 TPP1502     0.0000 
     39 H         -37.2781   61.4679   15.9225 H         1 TPP1502     0.0000 
     40 H         -31.1198   60.7202   21.3001 H         1 TPP1502     0.0000 
     41 H         -32.2011   59.7579   22.0008 H         1 TPP1502     0.0000 
     42 H         -32.4091   60.2252   20.4761 H         1 TPP1502     0.0000 
@<TRIPOS>BOND
     1    2    1 ar   
     2    8    1 ar   
     3    3    2 1    
     4    4    2 ar   
     5   37    3 1    
     6   38    3 1    
     7   39    3 1    
     8    5    4 ar   
     9    6    5 1    
    10    7    5 ar   
    11   27    6 1    
    12   28    6 1    
    13    8    7 ar   
    14    9    7 1    
    15   29    8 1    
    16   10    9 1    
    17   30    9 1    
    18   31    9 1    
    19   11   10 2    
    20   14   10 1    
    21   12   11 1    
    22   32   11 1    
    23   13   12 1    
    24   14   13 2    
    25   16   13 1    
    26   15   14 1    
    27   40   15 1    
    28   41   15 1    
    29   42   15 1    
    30   17   16 1    
    31   33   16 1    
    32   34   16 1    
    33   18   17 1    
    34   35   17 1    
    35   36   17 1    
    36   19   18 1    
    37   20   19 ar   
    38   21   19 ar   
    39   22   19 1    
    40   23   22 1    
    41   24   23 ar   
    42   25   23 ar   
    43   26   23 ar   
@<TRIPOS>SUBSTRUCTURE
     1 TPP1502     1 GROUP   
@<TRIPOS>SET

