#    Name: 3owj_1EL_1_INTS_M
#    Modification time : Tue Mar 25 05:28:27 2014

@<TRIPOS>MOLECULE
3owj_1EL_1_INTS_M
   43     0     6     0     0
SMALL
NO_CHARGES


@<TRIPOS>ATOM
      1 CA         24.9290    8.1625   11.2725 C.3       2 GLC5        0.0000 
      2 CA         23.2250    7.5970   11.3670 C.3       6 GLL5        0.0000 
      3 CA         26.6330    8.7280   11.1780 C.3       4 GLP5        0.0000 
      4 N          23.4290    9.2955    8.9980 N.am      1 SEC2        0.0000 
      5 N          23.3960    8.4820   10.3420 N.am      5 SEL2        0.0000 
      6 N          23.4620   10.1090    7.6540 N.am      3 SEP2        0.0000 
      7 CA         22.3545    5.4290    9.4260 C.3       2 GLC5        0.0000 
      8 CA         23.1890    6.2250   11.0990 C.3       6 GLL5        0.0000 
      9 CA         21.5200    4.6330    7.7530 C.3       4 GLP5        0.0000 
     10 CA         22.4170    4.2875   10.2630 C.3       2 GLC5        0.0000 
     11 CA         23.0130    5.2980   12.1270 C.3       6 GLL5        0.0000 
     12 CA         21.8210    3.2770    8.3990 C.3       4 GLP5        0.0000 
     13 CA         20.6940    3.0965   17.0905 C.3       2 GLC5        0.0000 
     14 CA         22.2750    4.5600   17.6680 C.3       6 GLL5        0.0000 
     15 CA         19.1130    1.6330   16.5130 C.3       4 GLP5        0.0000 
     16 CA         24.6805   10.6190   14.8825 C.3       2 GLC5        0.0000 
     17 CA         22.8640    9.8340   15.1940 C.3       6 GLL5        0.0000 
     18 CA         26.4970   11.4040   14.5710 C.3       4 GLP5        0.0000 
     19 CA         24.9170    6.3078   12.2225 C.3       2 GLC5        0.0000 
     20 CA         26.7330    6.8540   12.8320 C.3       4 GLP5        0.0000 
     21 CA         24.4370    4.6267   10.3925 C.3       2 GLC5        0.0000 
     22 CA         25.7730    3.4920    9.1720 C.3       4 GLP5        0.0000 
     23 CA         21.1405    5.2423   11.3745 C.3       2 GLC5        0.0000 
     24 CA         19.1800    4.7230   11.1360 C.3       4 GLP5        0.0000 
     25 CA         21.1080    6.0365   13.9455 C.3       2 GLC5        0.0000 
     26 CA         22.9110    7.1200   13.6820 C.3       6 GLL5        0.0000 
     27 CA         19.3240    5.6330   14.3330 C.3       4 GLP5        0.0000 
     28 CA         21.1893    8.5898   13.6640 C.3       2 GLC5        0.0000 
     29 CA         19.3810    9.5870   14.1500 C.3       4 GLP5        0.0000 
     30 CA         24.8605    7.0533   12.9740 C.3       2 GLC5        0.0000 
     31 CA         23.0840    8.0650   12.6740 C.3       6 GLL5        0.0000 
     32 CA         24.5108    6.9511   15.7412 C.3       2 GLC5        0.0000 
     33 CA         26.3070    7.2660   16.4380 C.3       4 GLP5        0.0000 
     34 CA         24.0600    5.4885   17.8407 C.3       2 GLC5        0.0000 
     35 CA         22.4210    5.9360   17.0590 C.3       6 GLL5        0.0000 
     36 CA         25.7720    5.7290   18.3180 C.3       4 GLP5        0.0000 
     37 CA         20.9351    5.9716   15.2826 C.3       2 GLC5        0.0000 
     38 CA         24.0315    6.3833   18.4295 C.3       2 GLC5        0.0000 
     39 CA         22.3800    7.0930   17.8500 C.3       6 GLL5        0.0000 
     40 CA         24.5226    8.1998   16.1615 C.3       2 GLC5        0.0000 
     41 CA         22.5210    8.3740   17.2730 C.3       6 GLL5        0.0000 
     42 CA         21.0869    9.2276   14.7491 C.3       2 GLC5        0.0000 
     43 CA         22.7390    7.3130   15.1260 C.3       6 GLL5        0.0000 
@<TRIPOS>BOND
@<TRIPOS>SUBSTRUCTURE
     1 SEC2        4 GROUP        1 X    SEC  0     ROOT SEC X 2
     2 GLC5        1 GROUP        1 X    GLC  0     **** GLC X 6
     3 SEP2        6 GROUP        1 Y    SEP  0     ROOT SEP Y 9
     4 GLP5        3 GROUP        1 Y    GLP  0     **** GLP Y 13
     5 SEL2        5 GROUP        1 Z    SEL  0     ROOT SEL Z 16
     6 GLL5        2 GROUP        1 Z    GLL  0     **** GLL Z 20
@<TRIPOS>SET

