#    Name: 3owj_1EL_1_ligand
#    Modification time : Tue Mar 25 05:28:28 2014

@<TRIPOS>MOLECULE
3owj_1EL_1_ligand
   35    38     1     0     0
SMALL
NO_CHARGES


@<TRIPOS>ATOM
      1 C1         23.2250    7.5970   11.3670 C.ar      1 1EL332      0.0000 
      2 O1         23.3960    8.4820   10.3420 O.3       1 1EL332      0.0000 
      3 C2         23.1890    6.2250   11.0990 C.ar      1 1EL332      0.0000 
      4 C3         23.0130    5.2980   12.1270 C.ar      1 1EL332      0.0000 
      5 C4         22.8730    5.7600   13.4340 C.ar      1 1EL332      0.0000 
      6 C5         22.9110    7.1200   13.6820 C.ar      1 1EL332      0.0000 
      7 C6         23.0840    8.0650   12.6740 C.ar      1 1EL332      0.0000 
      8 N7         22.6900    5.1540   14.6510 N.pl3     1 1EL332      0.0000 
      9 C8         22.6040    6.0560   15.6850 C.ar      1 1EL332      0.0000 
     10 C9         22.7390    7.3130   15.1260 C.ar      1 1EL332      0.0000 
     11 C10        22.4210    5.9360   17.0590 C.ar      1 1EL332      0.0000 
     12 C11        22.2750    4.5600   17.6680 C.3       1 1EL332      0.0000 
     13 C12        22.3800    7.0930   17.8500 C.ar      1 1EL332      0.0000 
     14 C13        22.5210    8.3740   17.2730 C.ar      1 1EL332      0.0000 
     15 C14        22.7040    8.4920   15.8790 C.ar      1 1EL332      0.0000 
     16 C15        22.8640    9.8340   15.1940 C.3       1 1EL332      0.0000 
     17 C16        22.2020    6.9820   19.2320 C.3       1 1EL332      0.0000 
     18 C17        22.1610    8.1280   20.0230 C.2       1 1EL332      0.0000 
     19 N18        22.2930    9.3410   19.4580 N.2       1 1EL332      0.0000 
     20 C19        22.4700    9.4920   18.1310 C.2       1 1EL332      0.0000 
     21 O19        22.5930   10.7620   17.6490 O.2       1 1EL332      0.0000 
     22 H          23.2943    5.8945   10.1263 H         1 1EL332      0.0000 
     23 H          22.9874    4.2993   11.9241 H         1 1EL332      0.0000 
     24 H          23.1068    9.0538   12.8801 H         1 1EL332      0.0000 
     25 H          22.6269    4.1792   14.7725 H         1 1EL332      0.0000 
     26 H          23.0073    6.2645   19.6535 H         1 1EL332      0.0000 
     27 H          21.2511    6.3528   19.4344 H         1 1EL332      0.0000 
     28 H          22.0278    8.0226   21.0450 H         1 1EL332      0.0000 
     29 H          23.0788    3.9905   17.4960 H         1 1EL332      0.0000 
     30 H          22.1535    4.6037   18.6596 H         1 1EL332      0.0000 
     31 H          21.4851    4.0716   17.2972 H         1 1EL332      0.0000 
     32 H          23.7428    9.9079   14.7225 H         1 1EL332      0.0000 
     33 H          22.1507    9.9895   14.5106 H         1 1EL332      0.0000 
     34 H          22.8162   10.5914   15.8452 H         1 1EL332      0.0000 
     35 H          23.8380    7.9549    9.6162 H         1 1EL332      0.0000 
@<TRIPOS>BOND
     1    2    1 1    
     2    3    1 ar   
     3    7    1 ar   
     4   35    2 1    
     5    4    3 ar   
     6   22    3 1    
     7    5    4 ar   
     8   23    4 1    
     9    6    5 ar   
    10    8    5 1    
    11    7    6 ar   
    12   10    6 1    
    13   24    7 1    
    14    9    8 1    
    15   25    8 1    
    16   10    9 ar   
    17   11    9 ar   
    18   15   10 ar   
    19   12   11 1    
    20   13   11 ar   
    21   29   12 1    
    22   30   12 1    
    23   31   12 1    
    24   14   13 ar   
    25   17   13 1    
    26   15   14 ar   
    27   20   14 1    
    28   16   15 1    
    29   32   16 1    
    30   33   16 1    
    31   34   16 1    
    32   18   17 1    
    33   26   17 1    
    34   27   17 1    
    35   19   18 2    
    36   28   18 1    
    37   20   19 1    
    38   21   20 2    
@<TRIPOS>SUBSTRUCTURE
     1 1EL332      1 GROUP   
@<TRIPOS>SET

