#    Name: 1LNM_1_CAVITY_N1_ALL.mol2
#    Modification time : Mon Mar 10 14:34:16 2014

@<TRIPOS>MOLECULE
1LNM_1_CAVITY_N1_ALL.mol2
  103     0     5     0     0
SMALL
NO_CHARGES


@<TRIPOS>ATOM
      1 O           2.4488  -29.1744   34.6563 O.2       2 ALA2        0.0000 
      2 N           1.6664  -27.8988   34.7592 N.2       2 ALA2        0.0000 
      3 CA          4.2498  -28.0600   34.5358 C.3       4 GLY6        0.0000 
      4 O           3.4674  -26.7844   34.6387 O.2       2 ALA2        0.0000 
      5 O           3.4387  -28.6476   35.6525 O.2       2 ALA2        0.0000 
      6 N           2.6563  -27.3719   35.7554 N.2       2 ALA2        0.0000 
      7 CA          6.0508  -26.9457   34.4154 C.3       4 GLY6        0.0000 
      8 CA          5.2684  -25.6700   34.5183 C.3       4 GLY6        0.0000 
      9 OG          6.0222  -28.8088   35.4292 O.2       1 SER1        0.0000 
     10 CA          5.2397  -27.5332   35.5321 C.3       4 GLY6        0.0000 
     11 O           4.4573  -26.2576   35.6349 O.2       2 ALA2        0.0000 
     12 OG          5.2111  -29.3964   36.5459 O.2       1 SER1        0.0000 
     13 DU          4.4287  -28.1207   36.6487 H         5 CUB7        0.0000 
     14 N           3.6462  -26.8451   36.7516 N.2       2 ALA2        0.0000 
     15 OG          4.4000  -29.9839   37.6625 O.2       1 SER1        0.0000 
     16 CZ          3.6176  -28.7083   37.7654 C.ar      3 PHE5        0.0000 
     17 CZ          2.8352  -27.4326   37.8683 C.ar      3 PHE5        0.0000 
     18 CZ          7.8232  -27.6944   35.3087 C.ar      3 PHE5        0.0000 
     19 CA          7.0408  -26.4188   35.4116 C.3       4 GLY6        0.0000 
     20 CA          6.2583  -25.1432   35.5145 C.3       4 GLY6        0.0000 
     21 OG          7.0121  -28.2820   36.4254 O.2       1 SER1        0.0000 
     22 DU          6.2297  -27.0063   36.5283 H         5 CUB7        0.0000 
     23 DU          5.4473  -25.7307   36.6311 H         5 CUB7        0.0000 
     24 O           4.6648  -24.4551   36.7340 O.2       2 ALA2        0.0000 
     25 OG          6.2010  -28.8695   37.5421 O.2       1 SER1        0.0000 
     26 DU          5.4186  -27.5939   37.6450 H         5 CUB7        0.0000 
     27 DU          4.6362  -26.3182   37.7478 H         5 CUB7        0.0000 
     28 CA          3.8538  -25.0426   37.8507 C.3       4 GLY6        0.0000 
     29 CZ          5.3900  -29.4570   38.6588 C.ar      3 PHE5        0.0000 
     30 CZ          4.6075  -28.1814   38.7616 C.ar      3 PHE5        0.0000 
     31 CZ          3.8251  -26.9058   38.8645 C.ar      3 PHE5        0.0000 
     32 CA          3.0427  -25.6301   38.9674 C.3       4 GLY6        0.0000 
     33 CZ          5.3613  -31.3202   39.6726 C.ar      3 PHE5        0.0000 
     34 CZ          4.5502  -31.9077   40.7892 C.ar      3 PHE5        0.0000 
     35 CZ          9.6242  -26.5801   35.1883 C.ar      3 PHE5        0.0000 
     36 CZ          8.8418  -25.3044   35.2911 C.ar      3 PHE5        0.0000 
     37 O           8.0593  -24.0288   35.3940 O.2       2 ALA2        0.0000 
     38 CZ          8.8131  -27.1676   36.3049 C.ar      3 PHE5        0.0000 
     39 DU          8.0307  -25.8920   36.4078 H         5 CUB7        0.0000 
     40 O           7.2483  -24.6163   36.5107 O.2       2 ALA2        0.0000 
     41 CA          6.4659  -23.3407   36.6136 C.3       4 GLY6        0.0000 
     42 CZ          8.0020  -27.7551   37.4216 C.ar      3 PHE5        0.0000 
     43 DU          7.2196  -26.4795   37.5245 H         5 CUB7        0.0000 
     44 DU          6.4372  -25.2039   37.6274 H         5 CUB7        0.0000 
     45 CA          5.6548  -23.9282   37.7302 C.3       4 GLY6        0.0000 
     46 OG          7.1910  -28.3427   38.5383 O.2       1 SER1        0.0000 
     47 DU          6.4085  -27.0670   38.6412 H         5 CUB7        0.0000 
     48 DU          5.6261  -25.7914   38.7440 H         5 CUB7        0.0000 
     49 CA          4.8437  -24.5158   38.8469 C.3       4 GLY6        0.0000 
     50 CZ          6.3799  -28.9302   39.6550 C.ar      3 PHE5        0.0000 
     51 CZ          5.5975  -27.6546   39.7579 C.ar      3 PHE5        0.0000 
     52 CZ          4.8151  -26.3789   39.8607 C.ar      3 PHE5        0.0000 
     53 CZ          4.0326  -25.1033   39.9636 C.ar      3 PHE5        0.0000 
     54 CZ         11.4252  -25.4657   35.0678 C.ar      3 PHE5        0.0000 
     55 CZ         10.6428  -24.1900   35.1707 C.ar      3 PHE5        0.0000 
     56 CZ         11.3965  -27.3288   36.0816 C.ar      3 PHE5        0.0000 
     57 DU         10.6141  -26.0532   36.1845 H         5 CUB7        0.0000 
     58 DU          9.8317  -24.7776   36.2874 H         5 CUB7        0.0000 
     59 O           9.0493  -23.5019   36.3902 O.2       2 ALA2        0.0000 
     60 CZ         10.5855  -27.9164   37.1983 C.ar      3 PHE5        0.0000 
     61 N           9.8030  -26.6407   37.3012 N.2       2 ALA2        0.0000 
     62 DU          9.0206  -25.3651   37.4040 H         5 CUB7        0.0000 
     63 O           8.2382  -24.0895   37.5069 O.2       2 ALA2        0.0000 
     64 CA          7.4558  -22.8138   37.6098 C.3       4 GLY6        0.0000 
     65 CZ          9.7744  -28.5039   38.3150 C.ar      3 PHE5        0.0000 
     66 N           8.9920  -27.2283   38.4178 N.2       2 ALA2        0.0000 
     67 CZ          8.2096  -25.9526   38.5207 C.ar      3 PHE5        0.0000 
     68 CZ          7.4271  -24.6770   38.6236 C.ar      3 PHE5        0.0000 
     69 CZ          6.6447  -23.4014   38.7265 C.ar      3 PHE5        0.0000 
     70 CZ          8.1809  -27.8158   39.5345 C.ar      3 PHE5        0.0000 
     71 CZ          7.3985  -26.5402   39.6374 C.ar      3 PHE5        0.0000 
     72 CZ          6.6161  -25.2645   39.7403 C.ar      3 PHE5        0.0000 
     73 CZ          5.8336  -23.9889   39.8431 C.ar      3 PHE5        0.0000 
     74 CZ          6.5874  -27.1277   40.7541 C.ar      3 PHE5        0.0000 
     75 CZ          5.8050  -25.8521   40.8569 C.ar      3 PHE5        0.0000 
     76 CA         12.4438  -23.0757   35.0502 C.3       4 GLY6        0.0000 
     77 O          12.4151  -24.9388   36.0640 O.2       2 ALA2        0.0000 
     78 DU         11.6327  -23.6632   36.1669 H         5 CUB7        0.0000 
     79 N          10.8503  -22.3876   36.2698 N.2       2 ALA2        0.0000 
     80 N          12.3865  -26.8020   37.0778 N.2       2 ALA2        0.0000 
     81 N          11.6041  -25.5264   37.1807 N.2       2 ALA2        0.0000 
     82 DU         10.8216  -24.2507   37.2836 H         5 CUB7        0.0000 
     83 O          10.0392  -22.9751   37.3864 O.2       2 ALA2        0.0000 
     84 N          10.7930  -26.1139   38.2974 N.2       2 ALA2        0.0000 
     85 CZ         10.0106  -24.8383   38.4003 C.ar      3 PHE5        0.0000 
     86 CZ          9.2281  -23.5626   38.5031 C.ar      3 PHE5        0.0000 
     87 CZ          8.4457  -22.2870   38.6060 C.ar      3 PHE5        0.0000 
     88 N           9.9819  -26.7014   39.4141 N.2       2 ALA2        0.0000 
     89 CZ          9.1995  -25.4258   39.5169 C.ar      3 PHE5        0.0000 
     90 CZ          8.4171  -24.1502   39.6198 C.ar      3 PHE5        0.0000 
     91 CA         13.4337  -22.5488   36.0464 C.3       4 GLY6        0.0000 
     92 N          12.6513  -21.2732   36.1493 N.2       2 ALA2        0.0000 
     93 O          13.4051  -24.4120   37.0602 O.2       2 ALA2        0.0000 
     94 DU         12.6227  -23.1363   37.1631 H         5 CUB7        0.0000 
     95 N          11.8402  -21.8607   37.2660 N.2       2 ALA2        0.0000 
     96 N          12.5940  -24.9995   38.1769 N.2       2 ALA2        0.0000 
     97 O          11.8116  -23.7239   38.2798 O.2       2 ALA2        0.0000 
     98 O          11.0292  -22.4482   38.3827 O.2       2 ALA2        0.0000 
     99 N          11.7829  -25.5870   39.2936 N.2       2 ALA2        0.0000 
    100 O          15.2061  -23.2976   36.9398 O.2       2 ALA2        0.0000 
    101 OG         14.4237  -22.0220   37.0427 O.2       1 SER1        0.0000 
    102 N          14.3950  -23.8851   38.0565 N.2       2 ALA2        0.0000 
    103 O          13.6126  -22.6095   38.1593 O.2       2 ALA2        0.0000 
@<TRIPOS>BOND
@<TRIPOS>SUBSTRUCTURE
     1 SER1        9 GROUP   
     2 ALA2        1 GROUP   
     3 PHE5       16 GROUP   
     4 GLY6        3 GROUP   
     5 CUB7       13 GROUP   
@<TRIPOS>SET

