#    Name: 1lnm_DTX_1_INTS_M
#    Modification time : Mon Apr  7 14:14:02 2014

@<TRIPOS>MOLECULE
1lnm_DTX_1_INTS_M
   64     0     6     0     0
SMALL
NO_CHARGES


@<TRIPOS>ATOM
      1 CA         13.5095  -24.1875   39.6795 C.3       2 GLC5        0.0000 
      2 CA         13.2240  -24.2650   37.6620 C.3       6 GLL5        0.0000 
      3 CA         13.7950  -24.1100   41.6970 C.3       4 GLP5        0.0000 
      4 CA         10.4690  -25.0045   34.1885 C.3       2 GLC5        0.0000 
      5 CA         11.2030  -24.5070   36.1160 C.3       6 GLL5        0.0000 
      6 CA          9.7350  -25.5020   32.2610 C.3       4 GLP5        0.0000 
      7 CA         11.1985  -26.1975   34.1295 C.3       2 GLC5        0.0000 
      8 CA         11.5560  -26.0430   36.1120 C.3       6 GLL5        0.0000 
      9 CA         10.8410  -26.3520   32.1470 C.3       4 GLP5        0.0000 
     10 CA          8.1780  -22.2035   36.1150 C.3       2 GLC5        0.0000 
     11 CA          8.7370  -24.1550   36.0510 C.3       6 GLL5        0.0000 
     12 CA          7.6190  -20.2520   36.1790 C.3       4 GLP5        0.0000 
     13 CA          9.2360  -24.8285   34.1560 C.3       2 GLC5        0.0000 
     14 CA          6.7990  -22.4410   36.6610 C.3       2 GLC5        0.0000 
     15 CA          7.3760  -24.3510   36.7060 C.3       6 GLL5        0.0000 
     16 CA          6.2220  -20.5310   36.6160 C.3       4 GLP5        0.0000 
     17 CA          7.3035  -24.6960   34.4965 C.3       2 GLC5        0.0000 
     18 CA          7.2310  -25.0410   32.2870 C.3       4 GLP5        0.0000 
     19 CA          8.8445  -21.6850   37.0550 C.3       2 GLC5        0.0000 
     20 CA         10.0700  -23.1180   37.9310 C.3       6 GLL5        0.0000 
     21 CA          9.0905  -21.8845   39.2260 C.3       2 GLC5        0.0000 
     22 CA          8.1110  -20.6510   40.5210 C.3       4 GLP5        0.0000 
     23 CA         10.1410  -23.5630   39.8300 C.3       2 GLC5        0.0000 
     24 CA         10.2120  -24.0080   41.7290 C.3       4 GLP5        0.0000 
     25 CA         10.0010  -24.8670   39.7055 C.3       2 GLC5        0.0000 
     26 CA          9.7900  -25.7260   37.6820 C.3       6 GLL5        0.0000 
     27 N          11.6350  -26.9545   39.1210 N.am      1 SEC2        0.0000 
     28 N          10.8260  -25.8640   38.7020 N.am      5 SEL2        0.0000 
     29 N          12.4440  -28.0450   39.5400 N.am      3 SEP2        0.0000 
     30 CA          8.9065  -25.5005   40.2255 C.3       2 GLC5        0.0000 
     31 CA          8.4190  -25.9590   38.3610 C.3       6 GLL5        0.0000 
     32 CA          9.3940  -25.0420   42.0900 C.3       4 GLP5        0.0000 
     33 CA         10.2325  -28.2505   39.6400 C.3       2 GLC5        0.0000 
     34 CA          8.3930  -27.3110   39.0790 C.3       6 GLL5        0.0000 
     35 CA         12.0720  -29.1900   40.2010 C.3       4 GLP5        0.0000 
     36 CA          9.0750  -29.0760   38.2180 C.3       2 GLC5        0.0000 
     37 CA          9.7570  -30.8410   37.3570 C.3       4 GLP5        0.0000 
     38 CA          3.1220  -24.7945   37.3895 C.3       2 GLC5        0.0000 
     39 CA          4.7060  -25.8560   37.0780 C.3       6 GLL5        0.0000 
     40 CA          1.5380  -23.7330   37.7010 C.3       4 GLP5        0.0000 
     41 CA          3.5250  -24.3070   38.4335 C.3       2 GLC5        0.0000 
     42 CA          5.5120  -24.8810   39.1660 C.3       6 GLL5        0.0000 
     43 CA          6.3500  -23.2295   40.0420 C.3       2 GLC5        0.0000 
     44 CA          7.1880  -21.5780   40.9180 C.3       4 GLP5        0.0000 
     45 CA          4.6615  -25.9130   40.6750 C.3       2 GLC5        0.0000 
     46 CA          3.8110  -26.9450   42.1840 C.3       4 GLP5        0.0000 
     47 CA          7.3690  -29.5880   36.9375 C.3       2 GLC5        0.0000 
     48 CA          5.9350  -28.4260   37.5280 C.3       6 GLL5        0.0000 
     49 CA          8.8030  -30.7500   36.3470 C.3       4 GLP5        0.0000 
     50 CA          4.1925  -27.3225   34.0395 C.3       2 GLC5        0.0000 
     51 CA          4.8600  -26.8500   35.9340 C.3       6 GLL5        0.0000 
     52 CA          3.5250  -27.7950   32.1450 C.3       4 GLP5        0.0000 
     53 CA         13.9380  -23.9844   35.2735 C.3       2 GLC5        0.0000 
     54 CA         12.4200  -23.7400   36.5320 C.3       6 GLL5        0.0000 
     55 CA         14.9330  -24.2700   33.5420 C.3       4 GLP5        0.0000 
     56 CA         11.1970  -28.2710   36.0785 C.3       2 GLC5        0.0000 
     57 CA         11.4850  -30.1790   35.7950 C.3       4 GLP5        0.0000 
     58 CA          7.8972  -29.4175   40.1363 C.3       2 GLC5        0.0000 
     59 CA          8.0960  -31.3440   40.9100 C.3       4 GLP5        0.0000 
     60 CA          8.7912  -26.8765   40.9223 C.3       2 GLC5        0.0000 
     61 CA          7.0040  -27.6710   39.6460 C.3       6 GLL5        0.0000 
     62 CA          9.8840  -26.2620   42.4820 C.3       4 GLP5        0.0000 
     63 CA          5.6205  -28.3182   40.5898 C.3       2 GLC5        0.0000 
     64 CA          4.8070  -29.1080   42.0280 C.3       4 GLP5        0.0000 
@<TRIPOS>BOND
@<TRIPOS>SUBSTRUCTURE
     1 SEC2       27 GROUP        1 X    SEC  0     ROOT SEC X 2
     2 GLC5        1 GROUP        1 X    GLC  0     **** GLC X 6
     3 SEP2       29 GROUP        1 Y    SEP  0     ROOT SEP Y 9
     4 GLP5        3 GROUP        1 Y    GLP  0     **** GLP Y 13
     5 SEL2       28 GROUP        1 Z    SEL  0     ROOT SEL Z 16
     6 GLL5        2 GROUP        1 Z    GLL  0     **** GLL Z 20
@<TRIPOS>SET

