#    Name: 1lnm_DTX_1_ligand
#    Modification time : Mon Apr  7 14:14:02 2014

@<TRIPOS>MOLECULE
1lnm_DTX_1_ligand
   61    65     1     0     0
SMALL
NO_CHARGES


@<TRIPOS>ATOM
      1 O23        14.7810  -21.2920   37.1060 O.2       1 DTX700      0.0000 
      2 C23        14.0400  -22.2080   37.0350 C.2       1 DTX700      0.0000 
      3 C22        12.9040  -22.5250   36.1640 C.2       1 DTX700      0.0000 
      4 O21        14.2300  -23.2610   37.9230 O.3       1 DTX700      0.0000 
      5 C21        13.2240  -24.2650   37.6620 C.3       1 DTX700      0.0000 
      6 C20        12.4200  -23.7400   36.5320 C.2       1 DTX700      0.0000 
      7 C17        11.2030  -24.5070   36.1160 C.3       1 DTX700      0.0000 
      8 C16        11.5560  -26.0430   36.1120 C.3       1 DTX700      0.0000 
      9 C13         9.9670  -24.3170   36.9940 C.3       1 DTX700      0.0000 
     10 C12         8.7370  -24.1550   36.0510 C.3       1 DTX700      0.0000 
     11 C11         7.3760  -24.3510   36.7060 C.3       1 DTX700      0.0000 
     12 C18        10.0700  -23.1180   37.9310 C.3       1 DTX700      0.0000 
     13 C14         9.7900  -25.7260   37.6820 C.3       1 DTX700      0.0000 
     14 C15        10.2620  -26.6830   36.6120 C.3       1 DTX700      0.0000 
     15 O14        10.8260  -25.8640   38.7020 O.3       1 DTX700      0.0000 
     16 C8          8.4190  -25.9590   38.3610 C.3       1 DTX700      0.0000 
     17 C7          8.3930  -27.3110   39.0790 C.3       1 DTX700      0.0000 
     18 C9          7.2220  -25.7460   37.3730 C.3       1 DTX700      0.0000 
     19 C10         5.8660  -25.9760   38.1060 C.3       1 DTX700      0.0000 
     20 C1          4.7060  -25.8560   37.0780 C.3       1 DTX700      0.0000 
     21 C19         5.5120  -24.8810   39.1660 C.3       1 DTX700      0.0000 
     22 C5          5.8640  -27.3860   38.6570 C.3       1 DTX700      0.0000 
     23 C6          7.0040  -27.6710   39.6460 C.3       1 DTX700      0.0000 
     24 C4          5.9350  -28.4260   37.5280 C.3       1 DTX700      0.0000 
     25 C3          4.8350  -28.2580   36.4950 C.3       1 DTX700      0.0000 
     26 C2          4.8600  -26.8500   35.9340 C.3       1 DTX700      0.0000 
     27 O32         3.5550  -28.4830   37.1580 O.3       1 DTX700      0.0000 
     28 H          12.6091  -21.9461   35.4853 H         1 DTX700      0.0000 
     29 H          12.5856  -24.4094   38.5236 H         1 DTX700      0.0000 
     30 H          13.6774  -25.2052   37.3771 H         1 DTX700      0.0000 
     31 H          10.9435  -24.2656   35.0875 H         1 DTX700      0.0000 
     32 H          12.3380  -26.2094   36.7933 H         1 DTX700      0.0000 
     33 H          11.7570  -26.3386   35.1243 H         1 DTX700      0.0000 
     34 H           8.8493  -24.8746   35.2174 H         1 DTX700      0.0000 
     35 H           8.7841  -23.1455   35.5994 H         1 DTX700      0.0000 
     36 H           6.5873  -24.2392   35.9542 H         1 DTX700      0.0000 
     37 H           7.2236  -23.5835   37.4725 H         1 DTX700      0.0000 
     38 H          10.4752  -27.6315   37.0357 H         1 DTX700      0.0000 
     39 H           9.5575  -26.7254   35.8205 H         1 DTX700      0.0000 
     40 H           8.3238  -25.1709   39.1461 H         1 DTX700      0.0000 
     41 H           9.1163  -27.2951   39.9036 H         1 DTX700      0.0000 
     42 H           8.7017  -28.0969   38.3787 H         1 DTX700      0.0000 
     43 H           7.3262  -26.5056   36.5945 H         1 DTX700      0.0000 
     44 H           4.6983  -24.8396   36.6833 H         1 DTX700      0.0000 
     45 H           3.7644  -26.0363   37.5974 H         1 DTX700      0.0000 
     46 H           4.9181  -27.5601   39.1868 H         1 DTX700      0.0000 
     47 H           6.8361  -27.0950   40.5619 H         1 DTX700      0.0000 
     48 H           6.9939  -28.7342   39.9077 H         1 DTX700      0.0000 
     49 H           5.8701  -29.4295   37.9699 H         1 DTX700      0.0000 
     50 H           6.9134  -28.3440   37.0355 H         1 DTX700      0.0000 
     51 H           4.9832  -28.9584   35.7079 H         1 DTX700      0.0000 
     52 H           5.8032  -26.6750   35.4311 H         1 DTX700      0.0000 
     53 H           4.0427  -26.7219   35.2348 H         1 DTX700      0.0000 
     54 H          10.8486  -23.1988   38.5533 H         1 DTX700      0.0000 
     55 H          10.1850  -22.2618   37.4273 H         1 DTX700      0.0000 
     56 H           9.2517  -23.0175   38.4969 H         1 DTX700      0.0000 
     57 H           6.2033  -24.8241   39.8863 H         1 DTX700      0.0000 
     58 H           5.4435  -23.9728   38.7531 H         1 DTX700      0.0000 
     59 H           4.6371  -25.0663   39.6134 H         1 DTX700      0.0000 
     60 H          10.9872  -25.6166   39.6575 H         1 DTX700      0.0000 
     61 H           3.9185  -27.5916   37.4290 H         1 DTX700      0.0000 
@<TRIPOS>BOND
     1    2    1 2    
     2    3    2 1    
     3    4    2 1    
     4    6    3 2    
     5   28    3 1    
     6    5    4 1    
     7    6    5 1    
     8   29    5 1    
     9   30    5 1    
    10    7    6 1    
    11    8    7 1    
    12    9    7 1    
    13   31    7 1    
    14   14    8 1    
    15   32    8 1    
    16   33    8 1    
    17   10    9 1    
    18   12    9 1    
    19   13    9 1    
    20   11   10 1    
    21   34   10 1    
    22   35   10 1    
    23   18   11 1    
    24   36   11 1    
    25   37   11 1    
    26   54   12 1    
    27   55   12 1    
    28   56   12 1    
    29   14   13 1    
    30   15   13 1    
    31   16   13 1    
    32   38   14 1    
    33   39   14 1    
    34   60   15 1    
    35   17   16 1    
    36   18   16 1    
    37   40   16 1    
    38   23   17 1    
    39   41   17 1    
    40   42   17 1    
    41   19   18 1    
    42   43   18 1    
    43   20   19 1    
    44   21   19 1    
    45   22   19 1    
    46   26   20 1    
    47   44   20 1    
    48   45   20 1    
    49   57   21 1    
    50   58   21 1    
    51   59   21 1    
    52   23   22 1    
    53   24   22 1    
    54   46   22 1    
    55   47   23 1    
    56   48   23 1    
    57   25   24 1    
    58   49   24 1    
    59   50   24 1    
    60   26   25 1    
    61   27   25 1    
    62   51   25 1    
    63   52   26 1    
    64   53   26 1    
    65   61   27 1    
@<TRIPOS>SUBSTRUCTURE
     1 DTX700      1 GROUP   
@<TRIPOS>SET

