#    Name: 1ODJ_3_CAVITY_N1_6.mol2
#    Modification time : Mon Mar 10 21:56:46 2014

@<TRIPOS>MOLECULE
1ODJ_3_CAVITY_N1_6.mol2
  102     0     6     0     0
SMALL
NO_CHARGES


@<TRIPOS>ATOM
      1 O           1.6370 -119.6970 -133.0059 O.2       2 ALA2        0.0000 
      2 CA          1.5542 -120.0743 -135.0917 C.3       5 GLY6        0.0000 
      3 O           1.4164 -120.9131 -133.8558 O.2       2 ALA2        0.0000 
      4 N           1.2787 -121.7519 -132.6199 N.2       2 ALA2        0.0000 
      5 O           1.1959 -122.1292 -134.7057 O.2       2 ALA2        0.0000 
      6 CA          3.4726 -117.9019 -133.4036 C.3       5 GLY6        0.0000 
      7 CA          3.3897 -118.2792 -135.4894 C.3       5 GLY6        0.0000 
      8 CA          3.2520 -119.1180 -134.2535 C.3       5 GLY6        0.0000 
      9 CA          3.1143 -119.9568 -133.0176 C.3       5 GLY6        0.0000 
     10 CA          3.1692 -119.4953 -136.3393 C.3       5 GLY6        0.0000 
     11 CA          3.0314 -120.3341 -135.1034 C.3       5 GLY6        0.0000 
     12 CZ          2.8937 -121.1729 -133.8675 C.ar      4 PHE5        0.0000 
     13 N           2.7560 -122.0117 -132.6316 N.2       2 ALA2        0.0000 
     14 CA          3.0863 -119.8727 -138.4252 C.3       5 GLY6        0.0000 
     15 CA          2.9486 -120.7115 -137.1893 C.3       5 GLY6        0.0000 
     16 O           2.8109 -121.5502 -135.9533 O.2       2 ALA2        0.0000 
     17 O           2.6731 -122.3890 -134.7174 O.2       2 ALA2        0.0000 
     18 N           2.5354 -123.2278 -133.4815 N.2       2 ALA2        0.0000 
     19 CA          2.7280 -121.9276 -138.0392 C.3       5 GLY6        0.0000 
     20 O           2.4526 -123.6051 -135.5674 O.2       2 ALA2        0.0000 
     21 N           2.3148 -124.4439 -134.3314 N.2       2 ALA2        0.0000 
     22 N           4.9499 -118.1616 -133.4153 N.2       2 ALA2        0.0000 
     23 OG          4.8670 -118.5390 -135.5011 O.2       1 SER1        0.0000 
     24 N           4.7293 -119.3778 -134.2652 N.2       2 ALA2        0.0000 
     25 N           4.5916 -120.2165 -133.0293 N.2       2 ALA2        0.0000 
     26 NZ          4.7842 -118.9163 -137.5870 N.2       3 LYS4        0.0000 
     27 CZ          4.6464 -119.7551 -136.3510 C.ar      4 PHE5        0.0000 
     28 CZ          4.5087 -120.5939 -135.1151 C.ar      4 PHE5        0.0000 
     29 CZ          4.3710 -121.4327 -133.8792 C.ar      4 PHE5        0.0000 
     30 CZ          4.2333 -122.2714 -132.6433 C.ar      4 PHE5        0.0000 
     31 N           4.5636 -120.1325 -138.4369 N.2       2 ALA2        0.0000 
     32 CZ          4.4259 -120.9713 -137.2010 C.ar      4 PHE5        0.0000 
     33 CZ          4.0127 -123.4876 -133.4932 C.ar      4 PHE5        0.0000 
     34 O           4.3430 -121.3486 -139.2868 O.2       2 ALA2        0.0000 
     35 CZ          4.2053 -122.1874 -138.0509 C.ar      4 PHE5        0.0000 
     36 CZ          4.0676 -123.0262 -136.8150 C.ar      4 PHE5        0.0000 
     37 CA          3.7921 -124.7037 -134.3431 C.3       5 GLY6        0.0000 
     38 O           4.1224 -122.5647 -140.1367 O.2       2 ALA2        0.0000 
     39 N           3.9847 -123.4035 -138.9008 N.2       2 ALA2        0.0000 
     40 N           3.8470 -124.2423 -137.6649 N.2       2 ALA2        0.0000 
     41 N           3.7093 -125.0811 -136.4290 N.2       2 ALA2        0.0000 
     42 CA          3.5716 -125.9198 -135.1931 C.3       5 GLY6        0.0000 
     43 OG          3.7641 -124.6196 -139.7507 O.2       1 SER1        0.0000 
     44 N           3.6264 -125.4584 -138.5148 N.2       2 ALA2        0.0000 
     45 CA          3.4887 -126.2972 -137.2789 C.3       5 GLY6        0.0000 
     46 CZ          6.1237 -120.0149 -136.3627 C.ar      4 PHE5        0.0000 
     47 N           6.1786 -119.5535 -139.6845 N.2       2 ALA2        0.0000 
     48 CZ          6.0409 -120.3923 -138.4486 C.ar      4 PHE5        0.0000 
     49 N           5.8203 -121.6084 -139.2985 N.2       2 ALA2        0.0000 
     50 N           5.5997 -122.8245 -140.1484 N.2       2 ALA2        0.0000 
     51 CZ          5.4620 -123.6633 -138.9125 C.ar      4 PHE5        0.0000 
     52 CZ          5.3243 -124.5021 -137.6766 C.ar      4 PHE5        0.0000 
     53 CZ          5.1866 -125.3408 -136.4407 C.ar      4 PHE5        0.0000 
     54 OG          5.3791 -124.0407 -140.9983 O.2       1 SER1        0.0000 
     55 OG          5.2414 -124.8794 -139.7624 O.2       1 SER1        0.0000 
     56 DU          5.1037 -125.7182 -138.5265 H         6 CUB7        0.0000 
     57 CA          4.9660 -126.5570 -137.2906 C.3       5 GLY6        0.0000 
     58 CA          4.8831 -126.9343 -139.3764 C.3       5 GLY6        0.0000 
     59 CA          4.7454 -127.7731 -138.1405 C.3       5 GLY6        0.0000 
     60 CA          4.6625 -128.1505 -140.2263 C.3       5 GLY6        0.0000 
     61 CA          7.4353 -121.0294 -140.5461 C.3       5 GLY6        0.0000 
     62 CZ          7.2976 -121.8682 -139.3102 C.ar      4 PHE5        0.0000 
     63 CA          7.2147 -122.2455 -141.3960 C.3       5 GLY6        0.0000 
     64 DU          7.0770 -123.0843 -140.1601 H         6 CUB7        0.0000 
     65 CZ          6.9393 -123.9231 -138.9242 C.ar      4 PHE5        0.0000 
     66 CZ          6.8016 -124.7618 -137.6883 C.ar      4 PHE5        0.0000 
     67 N           6.9941 -123.4617 -142.2459 N.2       2 ALA2        0.0000 
     68 OG          6.8564 -124.3004 -141.0100 O.2       1 SER1        0.0000 
     69 OG          6.7187 -125.1392 -139.7741 O.2       1 SER1        0.0000 
     70 N           6.5810 -125.9780 -138.5382 N.2       2 ALA2        0.0000 
     71 N           6.4433 -126.8168 -137.3023 N.2       2 ALA2        0.0000 
     72 OG          6.4981 -126.3553 -140.6240 O.2       1 SER1        0.0000 
     73 O           6.3604 -127.1941 -139.3881 O.2       2 ALA2        0.0000 
     74 N           6.2227 -128.0329 -138.1522 N.2       2 ALA2        0.0000 
     75 O           6.1398 -128.4102 -140.2380 O.2       2 ALA2        0.0000 
     76 O           6.0021 -129.2490 -139.0021 O.2       2 ALA2        0.0000 
     77 N           5.8644 -130.0878 -137.7662 N.2       2 ALA2        0.0000 
     78 CA          8.6920 -122.5053 -141.4077 C.3       5 GLY6        0.0000 
     79 CA          8.5543 -123.3441 -140.1718 C.3       5 GLY6        0.0000 
     80 CA          8.4166 -124.1829 -138.9359 C.3       5 GLY6        0.0000 
     81 O           8.4714 -123.7214 -142.2576 O.2       2 ALA2        0.0000 
     82 DU          8.3337 -124.5602 -141.0217 H         6 CUB7        0.0000 
     83 N           8.1960 -125.3990 -139.7858 N.2       2 ALA2        0.0000 
     84 N           8.0583 -126.2378 -138.5499 N.2       2 ALA2        0.0000 
     85 O           8.2508 -124.9376 -143.1076 O.2       2 ALA2        0.0000 
     86 OG          8.1131 -125.7763 -141.8716 O.2       1 SER1        0.0000 
     87 O           7.9754 -126.6151 -140.6357 O.2       2 ALA2        0.0000 
     88 O           7.8377 -127.4539 -139.3998 O.2       2 ALA2        0.0000 
     89 N           7.7000 -128.2927 -138.1639 N.2       2 ALA2        0.0000 
     90 OG          8.0303 -126.1537 -143.9575 O.2       1 SER1        0.0000 
     91 O           7.8925 -126.9925 -142.7216 O.2       2 ALA2        0.0000 
     92 CA         10.0316 -123.6039 -140.1835 C.3       5 GLY6        0.0000 
     93 CA          9.8939 -124.4426 -138.9476 C.3       5 GLY6        0.0000 
     94 NZ          9.9487 -123.9812 -142.2693 N.2       3 LYS4        0.0000 
     95 CA          9.8110 -124.8200 -141.0334 C.3       5 GLY6        0.0000 
     96 CA          9.6733 -125.6588 -139.7975 C.3       5 GLY6        0.0000 
     97 NZ          9.7281 -125.1973 -143.1192 N.2       3 LYS4        0.0000 
     98 O           9.5904 -126.0361 -141.8833 O.2       2 ALA2        0.0000 
     99 O           9.5076 -126.4135 -143.9692 O.2       2 ALA2        0.0000 
    100 CA         11.2883 -125.0798 -141.0451 C.3       5 GLY6        0.0000 
    101 NZ         11.2054 -125.4571 -143.1309 N.2       3 LYS4        0.0000 
    102 CA         11.0677 -126.2959 -141.8950 C.3       5 GLY6        0.0000 
@<TRIPOS>BOND
@<TRIPOS>SUBSTRUCTURE
     1 SER1       23 GROUP   
     2 ALA2        1 GROUP   
     3 LYS4       26 GROUP   
     4 PHE5       12 GROUP   
     5 GLY6        2 GROUP   
     6 CUB7       56 GROUP   
@<TRIPOS>SET

