#    Name: 1odj_GMP_3_INTS_M
#    Modification time : Mon Mar 24 19:57:21 2014

@<TRIPOS>MOLECULE
1odj_GMP_3_INTS_M
   36     0     9     0     0
SMALL
NO_CHARGES


@<TRIPOS>ATOM
      1 O           8.5420 -126.5320 -137.5090 O.2       1 ALC1        0.0000 
      2 O           8.2600 -126.4790 -138.8480 O.2       7 ALL1        0.0000 
      3 O           8.8240 -126.5850 -136.1700 O.2       4 ALP1        0.0000 
      4 CA          9.2595 -126.3920 -137.6105 C.3       3 GLC5        0.0000 
      5 CA          8.7810 -125.1750 -139.1060 C.3       9 GLL5        0.0000 
      6 CA          9.7380 -127.6090 -136.1150 C.3       6 GLP5        0.0000 
      7 N          11.8610 -123.9060 -142.7385 N.am      2 SEC2        0.0000 
      8 N          10.7220 -124.3030 -142.0270 N.am      8 SEL2        0.0000 
      9 N          13.0000 -123.5090 -143.4500 N.am      5 SEP2        0.0000 
     10 CA          7.8645 -121.4460 -142.5525 C.3       3 GLC5        0.0000 
     11 CA          8.5260 -123.1830 -141.9230 C.3       9 GLL5        0.0000 
     12 CA          7.2030 -119.7090 -143.1820 C.3       6 GLP5        0.0000 
     13 CA          9.9490 -121.9005 -141.7895 C.3       3 GLC5        0.0000 
     14 CA         11.3720 -120.6180 -141.6560 C.3       6 GLP5        0.0000 
     15 N           9.2535 -121.4605 -143.2845 N.am      2 SEC2        0.0000 
     16 N           8.8680 -122.8360 -143.2660 N.am      8 SEL2        0.0000 
     17 N           9.6390 -120.0850 -143.3030 N.am      5 SEP2        0.0000 
     18 O          10.0965 -122.8490 -143.9905 O.2       1 ALC1        0.0000 
     19 O           8.8680 -122.8360 -143.2660 O.2       7 ALL1        0.0000 
     20 O          11.3250 -122.8620 -144.7150 O.2       4 ALP1        0.0000 
     21 CA          3.1255 -121.6925 -139.8375 C.3       3 GLC5        0.0000 
     22 CA          4.9850 -122.4590 -139.3850 C.3       9 GLL5        0.0000 
     23 CA          1.2660 -120.9260 -140.2900 C.3       6 GLP5        0.0000 
     24 O           7.5145 -118.3415 -138.1020 O.2       1 ALC1        0.0000 
     25 O           7.7700 -119.5840 -138.8320 O.2       7 ALL1        0.0000 
     26 O           7.2590 -117.0990 -137.3720 O.2       4 ALP1        0.0000 
     27 CA          6.7095 -121.0810 -141.6000 C.3       3 GLC5        0.0000 
     28 CA          6.2160 -122.4530 -140.0180 C.3       9 GLL5        0.0000 
     29 CA         10.5280 -126.1015 -139.2280 C.3       3 GLC5        0.0000 
     30 CA          9.0530 -125.2050 -140.6040 C.3       9 GLL5        0.0000 
     31 CA         12.1390 -127.0130 -138.6010 C.3       6 GLP5        0.0000 
     32 CA         10.0005 -122.9655 -139.7757 C.3       3 GLC5        0.0000 
     33 CA          9.6430 -123.9160 -141.1560 C.3       9 GLL5        0.0000 
     34 CA         10.7210 -121.3780 -139.0460 C.3       6 GLP5        0.0000 
     35 CA          4.3797 -122.4025 -141.4663 C.3       3 GLC5        0.0000 
     36 CA          3.1590 -122.3490 -143.2310 C.3       6 GLP5        0.0000 
@<TRIPOS>BOND
@<TRIPOS>SUBSTRUCTURE
     1 ALC1        1 GROUP        1 X    ALC  0     ROOT ALC X 1
     2 SEC2        7 GROUP        1 X    SEC  0     **** SEC X 2
     3 GLC5        4 GROUP        1 X    GLC  0     **** GLC X 6
     4 ALP1        3 GROUP        1 Y    ALP  0     ROOT ALP Y 8
     5 SEP2        9 GROUP        1 Y    SEP  0     **** SEP Y 9
     6 GLP5        6 GROUP        1 Y    GLP  0     **** GLP Y 13
     7 ALL1        2 GROUP        1 Z    ALL  0     ROOT ALL Z 15
     8 SEL2        8 GROUP        1 Z    SEL  0     **** SEL Z 16
     9 GLL5        5 GROUP        1 Z    GLL  0     **** GLL Z 20
@<TRIPOS>SET

