#    Name: 1odj_GMP_3_ligand
#    Modification time : Mon Mar 24 19:57:21 2014

@<TRIPOS>MOLECULE
1odj_GMP_3_ligand
   33    35     1     0     0
SMALL
NO_CHARGES


@<TRIPOS>ATOM
      1 O5'         8.2600 -126.4790 -138.8480 O.3       1 GMP1237     0.0000 
      2 C5'         8.7810 -125.1750 -139.1060 C.3       1 GMP1237     0.0000 
      3 C4'         9.0530 -125.2050 -140.6040 C.3       1 GMP1237     0.0000 
      4 O4'         7.8550 -125.4060 -141.4260 O.3       1 GMP1237     0.0000 
      5 C3'         9.6430 -123.9160 -141.1560 C.3       1 GMP1237     0.0000 
      6 O3'        10.7220 -124.3030 -142.0270 O.3       1 GMP1237     0.0000 
      7 C2'         8.5260 -123.1830 -141.9230 C.3       1 GMP1237     0.0000 
      8 O2'         8.8680 -122.8360 -143.2660 O.3       1 GMP1237     0.0000 
      9 C1'         7.2990 -124.1170 -141.7620 C.3       1 GMP1237     0.0000 
     10 N9          6.2200 -123.5940 -140.8170 N.pl3     1 GMP1237     0.0000 
     11 C8          5.0000 -124.2030 -140.6100 C.2       1 GMP1237     0.0000 
     12 N7          4.2360 -123.5650 -139.7670 N.2       1 GMP1237     0.0000 
     13 C5          4.9850 -122.4590 -139.3850 C.2       1 GMP1237     0.0000 
     14 C6          4.6650 -121.3970 -138.4830 C.2       1 GMP1237     0.0000 
     15 O6          3.6280 -121.2230 -137.8260 O.2       1 GMP1237     0.0000 
     16 N1          5.7040 -120.4810 -138.3840 N.am      1 GMP1237     0.0000 
     17 C2          6.8970 -120.5650 -139.0600 C.2       1 GMP1237     0.0000 
     18 N2          7.7700 -119.5840 -138.8320 N.pl3     1 GMP1237     0.0000 
     19 N3          7.2120 -121.5420 -139.9020 N.2       1 GMP1237     0.0000 
     20 C4          6.2160 -122.4530 -140.0180 C.2       1 GMP1237     0.0000 
     21 H           9.7060 -124.9985 -138.5977 H         1 GMP1237     0.0000 
     22 H           8.0656 -124.4044 -138.9075 H         1 GMP1237     0.0000 
     23 H           9.7648 -126.0010 -140.8323 H         1 GMP1237     0.0000 
     24 H           9.9672 -123.3183 -140.3478 H         1 GMP1237     0.0000 
     25 H           8.2935 -122.2900 -141.3113 H         1 GMP1237     0.0000 
     26 H           6.8599 -124.1877 -142.7862 H         1 GMP1237     0.0000 
     27 H           4.7603 -125.0543 -141.0813 H         1 GMP1237     0.0000 
     28 H           5.5588 -119.6498 -137.7309 H         1 GMP1237     0.0000 
     29 H           7.4754 -118.8722 -138.1945 H         1 GMP1237     0.0000 
     30 H           8.6410 -119.6481 -139.3190 H         1 GMP1237     0.0000 
     31 H           8.1394 -126.5177 -137.8561 H         1 GMP1237     0.0000 
     32 H          10.8263 -125.2877 -141.8878 H         1 GMP1237     0.0000 
     33 H           9.8433 -123.0420 -143.3460 H         1 GMP1237     0.0000 
@<TRIPOS>BOND
     1    2    1 1    
     2   31    1 1    
     3    3    2 1    
     4   21    2 1    
     5   22    2 1    
     6    4    3 1    
     7    5    3 1    
     8   23    3 1    
     9    9    4 1    
    10    6    5 1    
    11    7    5 1    
    12   24    5 1    
    13   32    6 1    
    14    8    7 1    
    15    9    7 1    
    16   25    7 1    
    17   33    8 1    
    18   10    9 1    
    19   26    9 1    
    20   11   10 1    
    21   20   10 1    
    22   12   11 2    
    23   27   11 1    
    24   13   12 1    
    25   14   13 1    
    26   20   13 2    
    27   15   14 2    
    28   16   14 am   
    29   17   16 1    
    30   28   16 1    
    31   18   17 1    
    32   19   17 2    
    33   29   18 1    
    34   30   18 1    
    35   20   19 1    
@<TRIPOS>SUBSTRUCTURE
     1 GMP1237     1 GROUP   
@<TRIPOS>SET

