#    Name: 3rde_OYP_1_INTS_M
#    Modification time : Mon Apr  7 20:06:35 2014

@<TRIPOS>MOLECULE
3rde_OYP_1_INTS_M
   99     0     6     0     0
SMALL
NO_CHARGES


@<TRIPOS>ATOM
      1 N         -16.6585  -43.8765  -49.6425 N.am      1 SEC2        0.0000 
      2 N         -16.8910  -44.6380  -48.2960 N.am      5 SEL2        0.0000 
      3 N         -16.4260  -43.1150  -50.9890 N.am      3 SEP2        0.0000 
      4 CA        -12.0105  -43.4330  -47.4995 C.3       2 GLC5        0.0000 
      5 CA        -13.7240  -43.2400  -46.0910 C.3       6 GLL5        0.0000 
      6 CA        -10.2970  -43.6260  -48.9080 C.3       4 GLP5        0.0000 
      7 CA        -15.2670  -45.8500  -43.3685 C.3       2 GLC5        0.0000 
      8 CA        -14.9950  -45.2400  -45.3870 C.3       6 GLL5        0.0000 
      9 CA        -15.5390  -46.4600  -41.3500 C.3       4 GLP5        0.0000 
     10 CA        -13.6120  -44.9440  -43.6600 C.3       2 GLC5        0.0000 
     11 CA        -12.2290  -44.6480  -41.9330 C.3       4 GLP5        0.0000 
     12 CA        -13.1345  -46.3100  -45.2280 C.3       2 GLC5        0.0000 
     13 CA        -11.2740  -47.3800  -45.0690 C.3       4 GLP5        0.0000 
     14 CA        -16.9060  -46.5975  -47.8305 C.3       2 GLC5        0.0000 
     15 CA        -16.0620  -45.6190  -46.3600 C.3       6 GLL5        0.0000 
     16 CA        -17.7500  -47.5760  -49.3010 C.3       4 GLP5        0.0000 
     17 CA        -15.6460  -38.6140  -45.8670 C.3       2 GLC5        0.0000 
     18 CA        -13.9700  -39.5730  -45.4820 C.3       6 GLL5        0.0000 
     19 CA        -17.3220  -37.6550  -46.2520 C.3       4 GLP5        0.0000 
     20 CA        -14.1060  -39.6995  -43.2910 C.3       2 GLC5        0.0000 
     21 CA        -14.2420  -39.8260  -41.1000 C.3       4 GLP5        0.0000 
     22 CA        -12.3380  -40.3280  -44.2575 C.3       2 GLC5        0.0000 
     23 CA        -10.7060  -41.0830  -43.0330 C.3       4 GLP5        0.0000 
     24 CA        -12.6915  -35.7800  -43.2860 C.3       2 GLC5        0.0000 
     25 CA        -13.3450  -37.7450  -44.1100 C.3       6 GLL5        0.0000 
     26 CA        -12.0380  -33.8150  -42.4620 C.3       4 GLP5        0.0000 
     27 CA        -15.0645  -37.1320  -44.7150 C.3       2 GLC5        0.0000 
     28 CA        -16.7840  -36.5190  -45.3200 C.3       4 GLP5        0.0000 
     29 CA         -8.6995  -35.9945  -41.9655 C.3       2 GLC5        0.0000 
     30 CA         -9.3490  -36.9300  -43.5090 C.3       6 GLL5        0.0000 
     31 CA         -8.0500  -35.0590  -40.4220 C.3       4 GLP5        0.0000 
     32 CA        -10.2355  -35.3385  -43.4755 C.3       2 GLC5        0.0000 
     33 CA        -11.1220  -33.7470  -43.4420 C.3       4 GLP5        0.0000 
     34 CA         -8.1335  -37.2835  -41.7665 C.3       2 GLC5        0.0000 
     35 CA         -8.3730  -38.0910  -43.6220 C.3       6 GLL5        0.0000 
     36 CA         -7.8940  -36.4760  -39.9110 C.3       4 GLP5        0.0000 
     37 CA         -5.7100  -39.5765  -44.3865 C.3       2 GLC5        0.0000 
     38 CA         -7.6380  -40.1650  -44.9960 C.3       6 GLL5        0.0000 
     39 CA         -3.7820  -38.9880  -43.7770 C.3       4 GLP5        0.0000 
     40 CA         -9.1720  -40.6240  -44.0145 C.3       2 GLC5        0.0000 
     41 CA         -7.1300  -41.6545  -43.6515 C.3       2 GLC5        0.0000 
     42 CA         -6.6220  -43.1440  -42.3070 C.3       4 GLP5        0.0000 
     43 CA         -8.9745  -42.0460  -45.3255 C.3       2 GLC5        0.0000 
     44 CA         -7.6250  -40.7730  -46.3790 C.3       6 GLL5        0.0000 
     45 CA        -10.3240  -43.3190  -44.2720 C.3       4 GLP5        0.0000 
     46 CA         -4.6490  -42.4585  -46.4920 C.3       2 GLC5        0.0000 
     47 CA         -6.6500  -41.9590  -46.5240 C.3       6 GLL5        0.0000 
     48 CA         -2.6480  -42.9580  -46.4600 C.3       4 GLP5        0.0000 
     49 CA         -5.0735  -40.5555  -45.8850 C.3       2 GLC5        0.0000 
     50 CA         -3.4970  -39.1520  -45.2460 C.3       4 GLP5        0.0000 
     51 CA         -6.6360  -42.5515  -44.4155 C.3       2 GLC5        0.0000 
     52 CA         -8.6490  -43.1745  -48.3655 C.3       2 GLC5        0.0000 
     53 CA         -7.0010  -42.7230  -47.8230 C.3       6 GLL5        0.0000 
     54 CA         -5.6075  -45.4280  -49.5685 C.3       2 GLC5        0.0000 
     55 CA         -6.1660  -43.9530  -48.1700 C.3       6 GLL5        0.0000 
     56 CA         -5.0490  -46.9030  -50.9670 C.3       4 GLP5        0.0000 
     57 CA         -7.9320  -44.3575  -49.0245 C.3       2 GLC5        0.0000 
     58 CA         -9.6980  -44.7620  -49.8790 C.3       4 GLP5        0.0000 
     59 CA         -5.3500  -47.8225  -46.7575 C.3       2 GLC5        0.0000 
     60 CA         -5.3860  -46.2550  -47.3970 C.3       6 GLL5        0.0000 
     61 CA         -5.3140  -49.3900  -46.1180 C.3       4 GLP5        0.0000 
     62 CA         -3.3285  -46.4170  -47.0955 C.3       2 GLC5        0.0000 
     63 CA         -1.2710  -46.5790  -46.7940 C.3       4 GLP5        0.0000 
     64 CA         -5.2175  -46.5790  -49.1820 C.3       2 GLC5        0.0000 
     65 CA        -11.9627  -42.9363  -45.1700 C.3       2 GLC5        0.0000 
     66 CA        -13.4898  -42.2380  -43.7580 C.3       2 GLC5        0.0000 
     67 CA        -15.4230  -41.5030  -44.6810 C.3       6 GLL5        0.0000 
     68 CA        -12.1040  -43.2240  -42.4930 C.3       4 GLP5        0.0000 
     69 CA        -17.3405  -41.6292  -43.8867 C.3       2 GLC5        0.0000 
     70 CA        -19.1540  -41.0630  -43.0800 C.3       4 GLP5        0.0000 
     71 CA        -15.1611  -41.5765  -42.9758 C.3       2 GLC5        0.0000 
     72 CA        -15.6310  -42.8880  -44.7060 C.3       6 GLL5        0.0000 
     73 CA        -15.0690  -41.0830  -41.0870 C.3       4 GLP5        0.0000 
     74 CA        -13.6567  -43.2707  -43.7708 C.3       2 GLC5        0.0000 
     75 CA        -13.4714  -39.9712  -47.3597 C.3       2 GLC5        0.0000 
     76 CA        -13.4790  -41.8670  -46.0450 C.3       6 GLL5        0.0000 
     77 CA        -13.0060  -39.4390  -49.1260 C.3       4 GLP5        0.0000 
     78 CA        -13.4367  -38.7227  -42.5328 C.3       2 GLC5        0.0000 
     79 CA        -11.6687  -39.3513  -43.4993 C.3       2 GLC5        0.0000 
     80 CA        -10.8672  -37.1893  -41.7248 C.3       2 GLC5        0.0000 
     81 CA        -11.9180  -37.4940  -43.8210 C.3       6 GLL5        0.0000 
     82 CA        -10.3950  -36.9990  -39.6650 C.3       4 GLP5        0.0000 
     83 CA        -11.2308  -35.5632  -43.6133 C.3       2 GLC5        0.0000 
     84 CA        -10.7610  -37.2650  -43.7480 C.3       6 GLL5        0.0000 
     85 CA        -10.3805  -39.0902  -43.3308 C.3       2 GLC5        0.0000 
     86 CA         -7.8515  -35.9612  -44.3218 C.3       2 GLC5        0.0000 
     87 CA         -6.8420  -34.4120  -45.0780 C.3       4 GLP5        0.0000 
     88 CA         -9.5670  -39.7810  -43.6418 C.3       2 GLC5        0.0000 
     89 CA         -9.2299  -39.9038  -46.9906 C.3       2 GLC5        0.0000 
     90 CA         -8.4830  -38.8670  -44.8790 C.3       6 GLL5        0.0000 
     91 CA        -10.6170  -39.6630  -48.3230 C.3       4 GLP5        0.0000 
     92 CA         -6.0143  -42.7385  -49.7208 C.3       2 GLC5        0.0000 
     93 CA         -5.4450  -42.1390  -51.4450 C.3       4 GLP5        0.0000 
     94 CA         -7.2595  -46.3325  -46.2875 C.3       2 GLC5        0.0000 
     95 CA         -6.1040  -44.9450  -46.9970 C.3       6 GLL5        0.0000 
     96 CA         -8.7740  -47.0650  -45.3780 C.3       4 GLP5        0.0000 
     97 CA         -4.9340  -46.0805  -45.3910 C.3       2 GLC5        0.0000 
     98 CA         -4.1230  -46.5610  -43.5850 C.3       4 GLP5        0.0000 
     99 CA         -4.2043  -44.1550  -46.9751 C.3       2 GLC5        0.0000 
@<TRIPOS>BOND
@<TRIPOS>SUBSTRUCTURE
     1 SEC2        1 GROUP        1 X    SEC  0     ROOT SEC X 2
     2 GLC5        4 GROUP        1 X    GLC  0     **** GLC X 6
     3 SEP2        3 GROUP        1 Y    SEP  0     ROOT SEP Y 9
     4 GLP5        6 GROUP        1 Y    GLP  0     **** GLP Y 13
     5 SEL2        2 GROUP        1 Z    SEL  0     ROOT SEL Z 16
     6 GLL5        5 GROUP        1 Z    GLL  0     **** GLL Z 20
@<TRIPOS>SET

