#    Name: 3rde_OYP_1_ligand
#    Modification time : Mon Apr  7 20:06:35 2014

@<TRIPOS>MOLECULE
3rde_OYP_1_ligand
   59    59     1     0     0
SMALL
NO_CHARGES


@<TRIPOS>ATOM
      1 C1        -13.4790  -41.8670  -46.0450 C.ar      1 OYP664      0.0000 
      2 O1        -14.6870  -44.9130  -48.2740 O.co2     1 OYP664      0.0000 
      3 C2        -14.3280  -41.0010  -45.3650 C.ar      1 OYP664      0.0000 
      4 O2        -16.8910  -44.6380  -48.2960 O.co2     1 OYP664      0.0000 
      5 C3        -15.4230  -41.5030  -44.6810 C.ar      1 OYP664      0.0000 
      6 O3        -13.5500  -39.1440  -44.2910 O.3       1 OYP664      0.0000 
      7 C4        -15.6310  -42.8880  -44.7060 C.ar      1 OYP664      0.0000 
      8 C5        -14.7880  -43.7470  -45.3910 C.ar      1 OYP664      0.0000 
      9 C6        -13.7240  -43.2400  -46.0910 C.ar      1 OYP664      0.0000 
     10 C7        -14.9950  -45.2400  -45.3870 C.3       1 OYP664      0.0000 
     11 C8        -16.0620  -45.6190  -46.3600 C.3       1 OYP664      0.0000 
     12 C9        -15.8950  -45.0240  -47.7120 C.2       1 OYP664      0.0000 
     13 C10       -13.9700  -39.5730  -45.4820 C.3       1 OYP664      0.0000 
     14 C11       -13.3450  -37.7450  -44.1100 C.3       1 OYP664      0.0000 
     15 C12       -11.9180  -37.4940  -43.8210 C.1       1 OYP664      0.0000 
     16 C13       -10.7610  -37.2650  -43.7480 C.1       1 OYP664      0.0000 
     17 C14        -9.3490  -36.9300  -43.5090 C.3       1 OYP664      0.0000 
     18 C15        -8.3730  -38.0910  -43.6220 C.3       1 OYP664      0.0000 
     19 C16        -8.4830  -38.8670  -44.8790 C.3       1 OYP664      0.0000 
     20 C17        -7.6380  -40.1650  -44.9960 C.3       1 OYP664      0.0000 
     21 C18        -7.6250  -40.7730  -46.3790 C.3       1 OYP664      0.0000 
     22 C19        -6.6500  -41.9590  -46.5240 C.3       1 OYP664      0.0000 
     23 C20        -7.0010  -42.7230  -47.8230 C.3       1 OYP664      0.0000 
     24 C21        -6.1660  -43.9530  -48.1700 C.3       1 OYP664      0.0000 
     25 C22        -6.1040  -44.9450  -46.9970 C.3       1 OYP664      0.0000 
     26 C23        -5.3860  -46.2550  -47.3970 C.3       1 OYP664      0.0000 
     27 H         -12.6442  -41.4861  -46.5297 H         1 OYP664      0.0000 
     28 H         -16.0565  -40.8948  -44.1773 H         1 OYP664      0.0000 
     29 H         -16.4487  -43.2781  -44.1902 H         1 OYP664      0.0000 
     30 H         -13.1130  -43.8488  -46.6414 H         1 OYP664      0.0000 
     31 H         -15.2790  -45.5616  -44.3818 H         1 OYP664      0.0000 
     32 H         -14.0575  -45.7343  -45.6539 H         1 OYP664      0.0000 
     33 H         -17.0508  -45.3213  -45.9476 H         1 OYP664      0.0000 
     34 H         -16.0950  -46.7269  -46.4482 H         1 OYP664      0.0000 
     35 H         -14.8638  -39.0334  -45.8544 H         1 OYP664      0.0000 
     36 H         -13.2032  -39.4843  -46.2776 H         1 OYP664      0.0000 
     37 H         -13.9516  -37.3607  -43.2771 H         1 OYP664      0.0000 
     38 H         -13.6317  -37.1833  -45.0109 H         1 OYP664      0.0000 
     39 H          -9.2314  -36.4792  -42.4947 H         1 OYP664      0.0000 
     40 H          -9.0212  -36.1345  -44.2201 H         1 OYP664      0.0000 
     41 H          -8.5283  -38.7621  -42.7505 H         1 OYP664      0.0000 
     42 H          -7.3423  -37.6906  -43.5157 H         1 OYP664      0.0000 
     43 H          -8.2145  -38.2184  -45.7529 H         1 OYP664      0.0000 
     44 H          -9.5520  -39.1516  -45.0598 H         1 OYP664      0.0000 
     45 H          -8.0342  -40.8965  -44.2722 H         1 OYP664      0.0000 
     46 H          -6.6069  -39.9302  -44.6836 H         1 OYP664      0.0000 
     47 H          -7.3482  -40.0044  -47.1176 H         1 OYP664      0.0000 
     48 H          -8.6367  -41.1223  -46.6382 H         1 OYP664      0.0000 
     49 H          -6.7623  -42.6193  -45.6835 H         1 OYP664      0.0000 
     50 H          -5.6435  -41.5885  -46.5921 H         1 OYP664      0.0000 
     51 H          -6.9472  -42.0002  -48.6734 H         1 OYP664      0.0000 
     52 H          -8.0761  -43.0222  -47.7673 H         1 OYP664      0.0000 
     53 H          -5.1515  -43.6417  -48.4244 H         1 OYP664      0.0000 
     54 H          -6.6028  -44.4546  -49.0351 H         1 OYP664      0.0000 
     55 H          -7.1163  -45.1823  -46.6735 H         1 OYP664      0.0000 
     56 H          -5.5667  -44.4874  -46.1678 H         1 OYP664      0.0000 
     57 H          -4.4442  -46.0881  -47.6888 H         1 OYP664      0.0000 
     58 H          -5.3469  -46.9040  -46.6372 H         1 OYP664      0.0000 
     59 H          -5.8497  -46.7167  -48.1532 H         1 OYP664      0.0000 
@<TRIPOS>BOND
     1    3    1 ar   
     2    9    1 ar   
     3   27    1 1    
     4   12    2 ar   
     5    5    3 ar   
     6   13    3 1    
     7   12    4 ar   
     8    7    5 ar   
     9   28    5 1    
    10   13    6 1    
    11   14    6 1    
    12    8    7 ar   
    13   29    7 1    
    14    9    8 ar   
    15   10    8 1    
    16   30    9 1    
    17   11   10 1    
    18   31   10 1    
    19   32   10 1    
    20   12   11 1    
    21   33   11 1    
    22   34   11 1    
    23   35   13 1    
    24   36   13 1    
    25   15   14 1    
    26   37   14 1    
    27   38   14 1    
    28   16   15 3    
    29   17   16 1    
    30   18   17 1    
    31   39   17 1    
    32   40   17 1    
    33   19   18 1    
    34   41   18 1    
    35   42   18 1    
    36   20   19 1    
    37   43   19 1    
    38   44   19 1    
    39   21   20 1    
    40   45   20 1    
    41   46   20 1    
    42   22   21 1    
    43   47   21 1    
    44   48   21 1    
    45   23   22 1    
    46   49   22 1    
    47   50   22 1    
    48   24   23 1    
    49   51   23 1    
    50   52   23 1    
    51   25   24 1    
    52   53   24 1    
    53   54   24 1    
    54   26   25 1    
    55   55   25 1    
    56   56   25 1    
    57   57   26 1    
    58   58   26 1    
    59   59   26 1    
@<TRIPOS>SUBSTRUCTURE
     1 OYP664      1 GROUP   
@<TRIPOS>SET

