#    Name: 3hfg_17R_2_INTS_M
#    Modification time : Tue Mar 25 14:15:16 2014

@<TRIPOS>MOLECULE
3hfg_17R_2_INTS_M
   60     0     6     0     0
SMALL
NO_CHARGES


@<TRIPOS>ATOM
      1 CA        -27.1310    4.1220   14.7850 C.3       2 GLC5        0.0000 
      2 CA        -25.0910    4.3470   14.3080 C.3       6 GLL5        0.0000 
      3 CA        -29.1710    3.8970   15.2620 C.3       4 GLP5        0.0000 
      4 CA        -23.4805    1.9395   11.3415 C.3       2 GLC5        0.0000 
      5 CA        -23.1290    1.2650   13.3890 C.3       6 GLL5        0.0000 
      6 CA        -23.8320    2.6140    9.2940 C.3       4 GLP5        0.0000 
      7 CA        -20.4905    3.1775   14.1550 C.3       2 GLC5        0.0000 
      8 CA        -22.6010    2.6350   13.8230 C.3       6 GLL5        0.0000 
      9 CA        -18.3800    3.7200   14.4870 C.3       4 GLP5        0.0000 
     10 N         -19.3785    4.9640   12.6530 N.am      1 SEC2        0.0000 
     11 N         -20.7870    4.6350   12.6570 N.am      5 SEL2        0.0000 
     12 N         -17.9700    5.2930   12.6490 N.am      3 SEP2        0.0000 
     13 CA        -20.8615    7.0750   12.2485 C.3       2 GLC5        0.0000 
     14 CA        -22.5650    6.3300   13.4270 C.3       6 GLL5        0.0000 
     15 CA        -19.1580    7.8200   11.0700 C.3       4 GLP5        0.0000 
     16 CA        -21.2145    7.1995   17.0240 C.3       2 GLC5        0.0000 
     17 CA        -22.9040    7.3130   15.6000 C.3       6 GLL5        0.0000 
     18 CA        -19.5250    7.0860   18.4480 C.3       4 GLP5        0.0000 
     19 CA        -28.0395   -1.2865   12.3025 C.3       2 GLC5        0.0000 
     20 CA        -26.2500   -2.5300   12.6100 C.3       6 GLL5        0.0000 
     21 CA        -29.8290   -0.0430   11.9950 C.3       4 GLP5        0.0000 
     22 CA        -27.6710    2.4760   15.4395 C.3       2 GLC5        0.0000 
     23 CA        -26.1710    1.0550   15.6170 C.3       6 GLL5        0.0000 
     24 CA        -26.4030   -2.0740   17.7740 C.3       2 GLC5        0.0000 
     25 CA        -26.2740   -0.9070   16.4800 C.3       6 GLL5        0.0000 
     26 CA        -26.5320   -3.2410   19.0680 C.3       4 GLP5        0.0000 
     27 CA        -23.4920   -1.9660   16.7980 C.3       2 GLC5        0.0000 
     28 CA        -24.3540   -0.0610   16.0450 C.3       6 GLL5        0.0000 
     29 CA        -22.6300   -3.8710   17.5510 C.3       4 GLP5        0.0000 
     30 CA        -23.1815    0.9575   17.1585 C.3       2 GLC5        0.0000 
     31 CA        -22.0090    1.9760   18.2720 C.3       4 GLP5        0.0000 
     32 CA        -26.6417    4.0367   12.0232 C.3       2 GLC5        0.0000 
     33 CA        -25.3160    2.3800   12.7250 C.3       6 GLL5        0.0000 
     34 CA        -28.2960    5.0040   11.2000 C.3       4 GLP5        0.0000 
     35 CA        -24.4097    2.8417   11.0702 C.3       2 GLC5        0.0000 
     36 CA        -24.6590    3.7590   12.9680 C.3       6 GLL5        0.0000 
     37 CA        -21.3515    1.0475   13.4040 C.3       2 GLC5        0.0000 
     38 CA        -19.8380    0.1450   13.2020 C.3       4 GLP5        0.0000 
     39 CA        -21.8712    8.8697   11.7688 C.3       2 GLC5        0.0000 
     40 CA        -22.8480    7.5450   12.8070 C.3       6 GLL5        0.0000 
     41 CA        -20.7400    9.6410   10.3410 C.3       4 GLP5        0.0000 
     42 CA        -22.8457   10.4802   14.9878 C.3       2 GLC5        0.0000 
     43 CA        -23.1570    8.6520   13.5860 C.3       6 GLL5        0.0000 
     44 CA        -22.5150   12.3650   15.6940 C.3       4 GLP5        0.0000 
     45 CA        -24.6011    9.2909   13.8644 C.3       2 GLC5        0.0000 
     46 CA        -23.1960    8.5390   14.9770 C.3       6 GLL5        0.0000 
     47 CA        -26.1030   10.2630   13.6420 C.3       4 GLP5        0.0000 
     48 CA        -27.3460   -0.1720   11.2852 C.3       2 GLC5        0.0000 
     49 CA        -25.1960   -0.5470   11.7910 C.3       6 GLL5        0.0000 
     50 CA        -29.2220    0.8320   10.9020 C.3       4 GLP5        0.0000 
     51 CA        -27.8113   -0.5810   16.4175 C.3       2 GLC5        0.0000 
     52 CA        -29.5400   -0.9270   16.8060 C.3       4 GLP5        0.0000 
     53 CA        -25.3851    0.7245   17.2630 C.3       2 GLC5        0.0000 
     54 CA        -25.5520    1.5970   18.4890 C.3       4 GLP5        0.0000 
     55 CA        -24.8560   -3.7816   11.6632 C.3       2 GLC5        0.0000 
     56 CA        -25.7440   -1.8050   11.5460 C.3       6 GLL5        0.0000 
     57 CA        -23.3250   -4.6090   11.0890 C.3       4 GLP5        0.0000 
     58 CA        -27.9070   -3.9216   12.5992 C.3       2 GLC5        0.0000 
     59 CA        -26.7770   -3.7410   12.3970 C.3       6 GLL5        0.0000 
     60 CA        -29.3090   -4.8340   12.3720 C.3       4 GLP5        0.0000 
@<TRIPOS>BOND
@<TRIPOS>SUBSTRUCTURE
     1 SEC2       10 GROUP        1 X    SEC  0     ROOT SEC X 2
     2 GLC5        1 GROUP        1 X    GLC  0     **** GLC X 6
     3 SEP2       12 GROUP        1 Y    SEP  0     ROOT SEP Y 9
     4 GLP5        3 GROUP        1 Y    GLP  0     **** GLP Y 13
     5 SEL2       11 GROUP        1 Z    SEL  0     ROOT SEL Z 16
     6 GLL5        2 GROUP        1 Z    GLL  0     **** GLL Z 20
@<TRIPOS>SET

