#    Name: 3hfg_17R_2_ligand
#    Modification time : Tue Mar 25 14:15:17 2014

@<TRIPOS>MOLECULE
3hfg_17R_2_ligand
   51    54     1     0     0
SMALL
NO_CHARGES


@<TRIPOS>ATOM
      1 C1        -25.0910    4.3470   14.3080 C.3       1 17R1        0.0000 
      2 C2        -24.6590    3.7590   12.9680 C.3       1 17R1        0.0000 
      3 C3        -25.3160    2.3800   12.7250 C.3       1 17R1        0.0000 
      4 N1        -24.6030    1.2430   13.3480 N.3       1 17R1        0.0000 
      5 C4        -23.1290    1.2650   13.3890 C.3       1 17R1        0.0000 
      6 C5        -22.6010    2.6350   13.8230 C.3       1 17R1        0.0000 
      7 N2        -23.1590    3.6660   12.8980 N.pl3     1 17R1        0.0000 
      8 S1        -22.1690    4.9560   12.3810 S.o2      1 17R1        0.0000 
      9 O1        -20.7870    4.6350   12.6570 O.2       1 17R1        0.0000 
     10 O2        -22.5850    5.2810   11.0370 O.2       1 17R1        0.0000 
     11 C6        -22.5650    6.3300   13.4270 C.ar      1 17R1        0.0000 
     12 C7        -22.8480    7.5450   12.8070 C.ar      1 17R1        0.0000 
     13 C8        -23.1570    8.6520   13.5860 C.ar      1 17R1        0.0000 
     14 C9        -23.1960    8.5390   14.9770 C.ar      1 17R1        0.0000 
     15 C10       -22.9040    7.3130   15.6000 C.ar      1 17R1        0.0000 
     16 C11       -22.5900    6.1910   14.8210 C.ar      1 17R1        0.0000 
     17 N3        -22.9600    7.2480   17.0170 N.pl3     1 17R1        0.0000 
     18 C12       -22.7080    6.1920   17.8630 C.2       1 17R1        0.0000 
     19 N4        -22.8680    6.5440   19.1200 N.2       1 17R1        0.0000 
     20 C13       -23.2250    7.8530   19.0160 C.2       1 17R1        0.0000 
     21 N5        -23.2950    8.3270   17.7700 N.2       1 17R1        0.0000 
     22 C14       -25.1490   -0.0110   13.0880 C.ar      1 17R1        0.0000 
     23 C15       -25.1960   -0.5470   11.7910 C.ar      1 17R1        0.0000 
     24 C16       -25.7440   -1.8050   11.5460 C.ar      1 17R1        0.0000 
     25 C17       -26.2500   -2.5300   12.6100 C.ar      1 17R1        0.0000 
     26 C18       -26.2160   -2.0250   13.9020 C.ar      1 17R1        0.0000 
     27 C19       -25.6630   -0.7560   14.1510 C.ar      1 17R1        0.0000 
     28 C20       -25.6110   -0.1810   15.5390 C.3       1 17R1        0.0000 
     29 F1        -26.1710    1.0550   15.6170 F         1 17R1        0.0000 
     30 F2        -26.2740   -0.9070   16.4800 F         1 17R1        0.0000 
     31 F3        -24.3540   -0.0610   16.0450 F         1 17R1        0.0000 
     32 F4        -26.7770   -3.7410   12.3970 F         1 17R1        0.0000 
     33 H         -25.0033    4.4314   12.1788 H         1 17R1        0.0000 
     34 H         -25.3910    2.2323   11.6293 H         1 17R1        0.0000 
     35 H         -26.3570    2.4331   13.1013 H         1 17R1        0.0000 
     36 H         -22.7134    1.0338   12.4002 H         1 17R1        0.0000 
     37 H         -22.7527    0.5126   14.0934 H         1 17R1        0.0000 
     38 H         -21.5207    2.6264   13.7702 H         1 17R1        0.0000 
     39 H         -22.9202    2.8273   14.8384 H         1 17R1        0.0000 
     40 H         -22.8278    7.6188   11.7859 H         1 17R1        0.0000 
     41 H         -23.3577    9.5570   13.1415 H         1 17R1        0.0000 
     42 H         -23.4392    9.3547   15.5530 H         1 17R1        0.0000 
     43 H         -22.3854    5.2983   15.2569 H         1 17R1        0.0000 
     44 H         -22.4441    5.3014   17.5362 H         1 17R1        0.0000 
     45 H         -23.4207    8.4157   19.8325 H         1 17R1        0.0000 
     46 H         -24.8149    0.0066   11.0041 H         1 17R1        0.0000 
     47 H         -25.7692   -2.1801   10.5973 H         1 17R1        0.0000 
     48 H         -26.5937   -2.5731   14.6847 H         1 17R1        0.0000 
     49 H         -24.8331    3.7569   15.0730 H         1 17R1        0.0000 
     50 H         -24.6735    5.2405   14.4734 H         1 17R1        0.0000 
     51 H         -26.0819    4.4730   14.3562 H         1 17R1        0.0000 
@<TRIPOS>BOND
     1    2    1 1    
     2   49    1 1    
     3   50    1 1    
     4   51    1 1    
     5    3    2 1    
     6    7    2 1    
     7   33    2 1    
     8    4    3 1    
     9   34    3 1    
    10   35    3 1    
    11    5    4 1    
    12   22    4 1    
    13    6    5 1    
    14   36    5 1    
    15   37    5 1    
    16    7    6 1    
    17   38    6 1    
    18   39    6 1    
    19    8    7 1    
    20    9    8 2    
    21   10    8 2    
    22   11    8 1    
    23   12   11 ar   
    24   16   11 ar   
    25   13   12 ar   
    26   40   12 1    
    27   14   13 ar   
    28   41   13 1    
    29   15   14 ar   
    30   42   14 1    
    31   16   15 ar   
    32   17   15 1    
    33   43   16 1    
    34   18   17 1    
    35   21   17 1    
    36   19   18 2    
    37   44   18 1    
    38   20   19 1    
    39   21   20 2    
    40   45   20 1    
    41   23   22 ar   
    42   27   22 ar   
    43   24   23 ar   
    44   46   23 1    
    45   25   24 ar   
    46   47   24 1    
    47   26   25 ar   
    48   32   25 1    
    49   27   26 ar   
    50   48   26 1    
    51   28   27 1    
    52   29   28 1    
    53   30   28 1    
    54   31   28 1    
@<TRIPOS>SUBSTRUCTURE
     1 17R1        1 GROUP   
@<TRIPOS>SET

