#    Name: 3n2a_ADP_1_INTS_M
#    Modification time : Tue Mar 25 00:33:15 2014

@<TRIPOS>MOLECULE
3n2a_ADP_1_INTS_M
   78     0    15     0     0
SMALL
NO_CHARGES


@<TRIPOS>ATOM
      1 Zn         56.1140   56.7895   19.5425 Zn        4 ZIC7        0.0000 
      2 Zn         55.8160   57.3390   20.3600 Zn       14 ZIL7        0.0000 
      3 Zn         56.4120   56.2400   18.7250 Zn        9 ZIP7        0.0000 
      4 N          56.5480   58.5960   20.3590 N.am      2 SEC2        0.0000 
      5 N          55.8160   57.3390   20.3600 N.am     12 SEL2        0.0000 
      6 N          57.2800   59.8530   20.3580 N.am      7 SEP2        0.0000 
      7 NZ         55.2960   55.3590   22.1095 N.4       3 LYC4        0.0000 
      8 NZ         53.8040   55.9800   20.9640 N.4      13 LYL4        0.0000 
      9 NZ         56.7880   54.7380   23.2550 N.4       8 LYP4        0.0000 
     10 NZ         56.0385   55.8145   23.0305 N.4       3 LYC4        0.0000 
     11 NZ         55.2890   56.8910   22.8060 N.4      13 LYL4        0.0000 
     12 N          55.9585   58.1640   22.9845 N.am      2 SEC2        0.0000 
     13 N          55.2890   56.8910   22.8060 N.am     12 SEL2        0.0000 
     14 N          56.6280   59.4370   23.1630 N.am      7 SEP2        0.0000 
     15 N          56.0385   55.8145   23.0305 N.am      2 SEC2        0.0000 
     16 N          56.7880   54.7380   23.2550 N.am      7 SEP2        0.0000 
     17 N          54.9390   61.6285   20.2605 N.am      2 SEC2        0.0000 
     18 N          53.8460   60.8400   20.7940 N.am     12 SEL2        0.0000 
     19 N          56.0320   62.4170   19.7270 N.am      7 SEP2        0.0000 
     20 N          53.9030   62.1470   21.0570 N.am      2 SEC2        0.0000 
     21 N          53.9600   63.4540   21.3200 N.am      7 SEP2        0.0000 
     22 NZ         52.8870   59.3180   17.7695 N.4       3 LYC4        0.0000 
     23 NZ         53.4670   58.9590   18.9990 N.4      13 LYL4        0.0000 
     24 NZ         53.1560   59.2280   15.6130 N.4       8 LYP4        0.0000 
     25 N          52.8870   59.3180   17.7695 N.am      2 SEC2        0.0000 
     26 N          53.4670   58.9590   18.9990 N.am     12 SEL2        0.0000 
     27 N          52.3070   59.6770   16.5400 N.am      7 SEP2        0.0000 
     28 N          53.8650   58.7655   17.4875 N.am      2 SEC2        0.0000 
     29 N          54.2630   58.5720   15.9760 N.am      7 SEP2        0.0000 
     30 N          53.9300   58.7835   22.8655 N.am      2 SEC2        0.0000 
     31 N          53.8440   58.3550   21.4670 N.am     12 SEL2        0.0000 
     32 N          54.0160   59.2120   24.2640 N.am      7 SEP2        0.0000 
     33 CA         50.8970   59.8235   18.9940 C.3       5 GLC5        0.0000 
     34 CA         51.0030   58.3230   20.4550 C.3      15 GLL5        0.0000 
     35 CA         50.7910   61.3240   17.5330 C.3      10 GLP5        0.0000 
     36 CA         49.9100   60.5645   19.1945 C.3       5 GLC5        0.0000 
     37 CA         49.0290   59.8050   20.8560 C.3      15 GLL5        0.0000 
     38 O          47.1645   60.5215   19.3105 O.2       1 ALC1        0.0000 
     39 O          48.2890   59.8590   19.6130 O.2      11 ALL1        0.0000 
     40 O          46.0400   61.1840   19.0080 O.2       6 ALP1        0.0000 
     41 CA         47.1440   61.5695   22.5490 C.3       5 GLC5        0.0000 
     42 CA         48.2010   60.0400   22.0540 C.3      15 GLL5        0.0000 
     43 CA         46.0870   63.0990   23.0440 C.3      10 GLP5        0.0000 
     44 O          46.1120   59.2935   20.9685 O.2       1 ALC1        0.0000 
     45 O          47.0420   59.1430   21.9130 O.2      11 ALL1        0.0000 
     46 O          45.1820   59.4440   20.0240 O.2       6 ALP1        0.0000 
     47 CA         50.3915   58.5635   24.5635 C.3       5 GLC5        0.0000 
     48 CA         49.0170   59.4580   23.1950 C.3      15 GLL5        0.0000 
     49 CA         51.7660   57.6690   25.9320 C.3      10 GLP5        0.0000 
     50 CA         47.4525   60.9140   23.6715 C.3       5 GLC5        0.0000 
     51 CA         45.8880   62.3700   24.1480 C.3      10 GLP5        0.0000 
     52 N          52.5655   62.6060   24.3340 N.am      2 SEC2        0.0000 
     53 N          51.6600   61.5480   24.5890 N.am     12 SEL2        0.0000 
     54 N          53.4710   63.6640   24.0790 N.am      7 SEP2        0.0000 
     55 CA         52.7340   60.9310   24.8320 C.3       5 GLC5        0.0000 
     56 CA         50.8740   61.3700   25.6740 C.3      15 GLL5        0.0000 
     57 CA         54.5940   60.4920   23.9900 C.3      10 GLP5        0.0000 
     58 CA         50.5390   63.0530   24.4095 C.3       5 GLC5        0.0000 
     59 CA         50.2040   64.7360   23.1450 C.3      10 GLP5        0.0000 
     60 O          53.1110   63.1430   26.8520 O.2       1 ALC1        0.0000 
     61 O          51.8890   62.5530   27.5420 O.2      11 ALL1        0.0000 
     62 O          54.3330   63.7330   26.1620 O.2       6 ALP1        0.0000 
     63 CA         50.3095   59.1415   26.6840 C.3       5 GLC5        0.0000 
     64 CA         48.8530   60.6140   27.4360 C.3      15 GLL5        0.0000 
     65 CA         49.2595   59.3000   28.3990 C.3       5 GLC5        0.0000 
     66 CA         49.6660   57.9860   29.3620 C.3      10 GLP5        0.0000 
     67 CA         47.6000   59.1215   26.6340 C.3       5 GLC5        0.0000 
     68 CA         46.3470   57.6290   25.8320 C.3      10 GLP5        0.0000 
     69 CA         47.3250   61.3370   27.0130 C.3       5 GLC5        0.0000 
     70 CA         45.7970   62.0600   26.5900 C.3      10 GLP5        0.0000 
     71 CA         47.7665   61.3065   25.9225 C.3       5 GLC5        0.0000 
     72 CA         49.7360   60.5530   25.2550 C.3      15 GLL5        0.0000 
     73 CA         49.4412   58.0559   19.3020 C.3       5 GLC5        0.0000 
     74 CA         49.6530   58.4540   21.1410 C.3      15 GLL5        0.0000 
     75 CA         49.2040   57.0150   17.7770 C.3      10 GLP5        0.0000 
     76 CA         47.7540   58.2785   23.6457 C.3       5 GLC5        0.0000 
     77 CA         46.8990   56.8080   24.6670 C.3      10 GLP5        0.0000 
     78 CA         51.0359   59.3679   25.8754 C.3       5 GLC5        0.0000 
@<TRIPOS>BOND
@<TRIPOS>SUBSTRUCTURE
     1 ALC1       38 GROUP        1 X    ALC  0     ROOT ALC X 1
     2 SEC2        4 GROUP        1 X    SEC  0     **** SEC X 2
     3 LYC4        7 GROUP        1 X    LYC  0     **** LYC X 4
     4 ZIC7        1 GROUP        1 X    ZIC  0     **** ZIC X 5
     5 GLC5       33 GROUP        1 X    GLC  0     **** GLC X 6
     6 ALP1       40 GROUP        1 Y    ALP  0     ROOT ALP Y 8
     7 SEP2        6 GROUP        1 Y    SEP  0     **** SEP Y 9
     8 LYP4        9 GROUP        1 Y    LYP  0     **** LYP Y 11
     9 ZIP7        3 GROUP        1 Y    ZIP  0     **** ZIP Y 12
    10 GLP5       35 GROUP        1 Y    GLP  0     **** GLP Y 13
    11 ALL1       39 GROUP        1 Z    ALL  0     ROOT ALL Z 15
    12 SEL2        5 GROUP        1 Z    SEL  0     **** SEL Z 16
    13 LYL4        8 GROUP        1 Z    LYL  0     **** LYL Z 18
    14 ZIL7        2 GROUP        1 Z    ZIL  0     **** ZIL Z 19
    15 GLL5       34 GROUP        1 Z    GLL  0     **** GLL Z 20
@<TRIPOS>SET

