#    Name: 3n2a_ADP_1_ligand
#    Modification time : Tue Mar 25 00:33:15 2014

@<TRIPOS>MOLECULE
3n2a_ADP_1_ligand
   39    41     1     0     0
SMALL
NO_CHARGES


@<TRIPOS>ATOM
      1 PB         54.7920   57.0690   21.3830 P.3       1 ADP1001     0.0000 
      2 O1B        55.8160   57.3390   20.3600 O.co2     1 ADP1001     0.0000 
      3 O2B        53.8040   55.9800   20.9640 O.co2     1 ADP1001     0.0000 
      4 O3B        55.2890   56.8910   22.8060 O.co2     1 ADP1001     0.0000 
      5 PA         53.3660   59.4740   20.4030 P.3       1 ADP1001     0.0000 
      6 O1A        53.8460   60.8400   20.7940 O.co2     1 ADP1001     0.0000 
      7 O2A        53.4670   58.9590   18.9990 O.co2     1 ADP1001     0.0000 
      8 O3A        53.8440   58.3550   21.4670 O.3       1 ADP1001     0.0000 
      9 O5'        51.7870   59.5160   20.7370 O.3       1 ADP1001     0.0000 
     10 C5'        51.0030   58.3230   20.4550 C.3       1 ADP1001     0.0000 
     11 C4'        49.6530   58.4540   21.1410 C.3       1 ADP1001     0.0000 
     12 O4'        49.7860   58.4410   22.5750 O.3       1 ADP1001     0.0000 
     13 C3'        49.0290   59.8050   20.8560 C.3       1 ADP1001     0.0000 
     14 O3'        48.2890   59.8590   19.6130 O.3       1 ADP1001     0.0000 
     15 C2'        48.2010   60.0400   22.0540 C.3       1 ADP1001     0.0000 
     16 O2'        47.0420   59.1430   21.9130 O.3       1 ADP1001     0.0000 
     17 C1'        49.0170   59.4580   23.1950 C.3       1 ADP1001     0.0000 
     18 N9         49.9180   60.3240   23.9620 N.pl3     1 ADP1001     0.0000 
     19 C8         51.0790   60.8830   23.5550 C.2       1 ADP1001     0.0000 
     20 N7         51.6600   61.5480   24.5890 N.2       1 ADP1001     0.0000 
     21 C5         50.8740   61.3700   25.6740 C.ar      1 ADP1001     0.0000 
     22 C6         50.8770   61.7910   27.0910 C.ar      1 ADP1001     0.0000 
     23 N6         51.8890   62.5530   27.5420 N.pl3     1 ADP1001     0.0000 
     24 N1         49.8620   61.4020   27.8920 N.ar      1 ADP1001     0.0000 
     25 C2         48.8530   60.6140   27.4360 C.ar      1 ADP1001     0.0000 
     26 N3         48.7750   60.1770   26.1500 N.ar      1 ADP1001     0.0000 
     27 C4         49.7360   60.5530   25.2550 C.ar      1 ADP1001     0.0000 
     28 H          51.4978   57.4298   20.8339 H         1 ADP1001     0.0000 
     29 H          50.8368   58.2066   19.3849 H         1 ADP1001     0.0000 
     30 H          48.9893   57.6971   20.8098 H         1 ADP1001     0.0000 
     31 H          49.8447   60.5315   20.8706 H         1 ADP1001     0.0000 
     32 H          47.9661   60.9988   22.2057 H         1 ADP1001     0.0000 
     33 H          48.3053   58.9578   23.8774 H         1 ADP1001     0.0000 
     34 H          51.4483   60.8216   22.6571 H         1 ADP1001     0.0000 
     35 H          51.8663   62.7840   28.5146 H         1 ADP1001     0.0000 
     36 H          52.5741   62.8207   26.8645 H         1 ADP1001     0.0000 
     37 H          48.0907   60.3260   28.1137 H         1 ADP1001     0.0000 
     38 H          47.5152   60.4646   19.7987 H         1 ADP1001     0.0000 
     39 H          46.5103   59.5243   21.1567 H         1 ADP1001     0.0000 
@<TRIPOS>BOND
     1    2    1 ar   
     2    3    1 ar   
     3    4    1 ar   
     4    8    1 1    
     5    6    5 ar   
     6    7    5 ar   
     7    8    5 1    
     8    9    5 1    
     9   10    9 1    
    10   11   10 1    
    11   28   10 1    
    12   29   10 1    
    13   12   11 1    
    14   13   11 1    
    15   30   11 1    
    16   17   12 1    
    17   14   13 1    
    18   15   13 1    
    19   31   13 1    
    20   38   14 1    
    21   16   15 1    
    22   17   15 1    
    23   32   15 1    
    24   39   16 1    
    25   18   17 1    
    26   33   17 1    
    27   19   18 1    
    28   27   18 1    
    29   20   19 2    
    30   34   19 1    
    31   21   20 1    
    32   22   21 ar   
    33   27   21 ar   
    34   23   22 1    
    35   24   22 ar   
    36   35   23 1    
    37   36   23 1    
    38   25   24 ar   
    39   26   25 ar   
    40   37   25 1    
    41   27   26 ar   
@<TRIPOS>SUBSTRUCTURE
     1 ADP1001     1 GROUP   
@<TRIPOS>SET

