#    Name: 4IIX_1_CAVITY_N1_ALL.mol2
#    Modification time : Tue Mar 11 05:33:39 2014

@<TRIPOS>MOLECULE
4IIX_1_CAVITY_N1_ALL.mol2
  132     0     7     0     0
SMALL
NO_CHARGES


@<TRIPOS>ATOM
      1 NZ          3.5080    3.9911   22.5599 N.2       4 LYS4        0.0000 
      2 N           1.5524    4.4692   21.8912 N.2       2 ALA2        0.0000 
      3 N           2.1195    3.6922   23.0422 N.2       2 ALA2        0.0000 
      4 NZ          2.6865    2.9153   24.1932 N.2       4 LYS4        0.0000 
      5 NZ          3.2536    2.1383   25.3442 N.2       4 LYS4        0.0000 
      6 CZ          0.7309    3.3933   23.5245 C.ar      5 PHE5        0.0000 
      7 CA          1.2980    2.6163   24.6755 C.3       6 GLY6        0.0000 
      8 CA          1.8650    1.8394   25.8265 C.3       6 GLY6        0.0000 
      9 CA          2.4321    1.0624   26.9774 C.3       6 GLY6        0.0000 
     10 CA          2.9991    0.2854   28.1284 C.3       6 GLY6        0.0000 
     11 OG          3.5662   -0.4915   29.2794 O.2       1 SER1        0.0000 
     12 OG          4.1332   -1.2685   30.4304 O.2       1 SER1        0.0000 
     13 OD1         4.7003   -2.0455   31.5814 O.3       3 ASP3        0.0000 
     14 CA         -0.0906    2.3174   25.1577 C.3       6 GLY6        0.0000 
     15 DU          0.4765    1.5404   26.3087 H         7 CUB7        0.0000 
     16 CA          1.0435    0.7635   27.4597 C.3       6 GLY6        0.0000 
     17 N           1.6106   -0.0135   28.6107 N.2       2 ALA2        0.0000 
     18 N           2.1776   -0.7905   29.7617 N.2       2 ALA2        0.0000 
     19 DU          2.7447   -1.5674   30.9127 H         7 CUB7        0.0000 
     20 OD1         3.3117   -2.3444   32.0637 O.3       3 ASP3        0.0000 
     21 OD1         3.8788   -3.1214   33.2147 O.3       3 ASP3        0.0000 
     22 CA         -1.4791    2.0185   25.6400 C.3       6 GLY6        0.0000 
     23 CA         -0.9120    1.2415   26.7910 C.3       6 GLY6        0.0000 
     24 DU         -0.3450    0.4645   27.9420 H         7 CUB7        0.0000 
     25 DU          0.2220   -0.3124   29.0930 H         7 CUB7        0.0000 
     26 N           0.7891   -1.0894   30.2440 N.2       2 ALA2        0.0000 
     27 N           1.3561   -1.8664   31.3950 N.2       2 ALA2        0.0000 
     28 N           1.9232   -2.6433   32.5460 N.2       2 ALA2        0.0000 
     29 NZ          2.4902   -3.4203   33.6970 N.2       4 LYS4        0.0000 
     30 O           3.0573   -4.1973   34.8480 O.2       2 ALA2        0.0000 
     31 CA         -1.7335    0.1656   28.4243 C.3       6 GLY6        0.0000 
     32 O          -1.1665   -0.6114   29.5753 O.2       2 ALA2        0.0000 
     33 O          -0.5994   -1.3883   30.7263 O.2       2 ALA2        0.0000 
     34 N           2.6661    1.6675   23.3609 N.2       2 ALA2        0.0000 
     35 CA          1.8446    0.5916   24.9942 C.3       6 GLY6        0.0000 
     36 N           4.1128   -2.5163   29.5982 N.2       2 ALA2        0.0000 
     37 OD1         4.6798   -3.2932   30.7492 O.3       3 ASP3        0.0000 
     38 OD1         5.2469   -4.0702   31.9002 O.3       3 ASP3        0.0000 
     39 OG          0.4561    0.2926   25.4765 O.2       1 SER1        0.0000 
     40 CA          1.0231   -0.4843   26.6275 C.3       6 GLY6        0.0000 
     41 N           2.1572   -2.0383   28.9295 N.2       2 ALA2        0.0000 
     42 N           2.7242   -2.8152   30.0805 N.2       2 ALA2        0.0000 
     43 DU          3.2913   -3.5922   31.2315 H         7 CUB7        0.0000 
     44 O           3.8583   -4.3691   32.3825 O.2       2 ALA2        0.0000 
     45 CA         -0.9325   -0.0063   25.9588 C.3       6 GLY6        0.0000 
     46 CA         -0.3654   -0.7833   27.1098 C.3       6 GLY6        0.0000 
     47 CA          0.2016   -1.5602   28.2608 C.3       6 GLY6        0.0000 
     48 CA          0.7687   -2.3372   29.4118 C.3       6 GLY6        0.0000 
     49 N           1.3357   -3.1142   30.5628 N.2       2 ALA2        0.0000 
     50 N           1.9028   -3.8911   31.7138 N.2       2 ALA2        0.0000 
     51 O           2.4698   -4.6681   32.8647 O.2       2 ALA2        0.0000 
     52 O          -1.7540   -1.0822   27.5921 O.2       2 ALA2        0.0000 
     53 O          -1.1869   -1.8592   28.7431 O.2       2 ALA2        0.0000 
     54 N           1.0813   -4.9670   33.3470 N.2       2 ALA2        0.0000 
     55 O           2.7038   -4.0630   29.2482 O.2       2 ALA2        0.0000 
     56 N           3.2709   -4.8400   30.3992 N.2       2 ALA2        0.0000 
     57 CZ         -0.9529   -1.2541   25.1266 C.ar      5 PHE5        0.0000 
     58 CA         -0.3859   -2.0310   26.2775 C.3       6 GLY6        0.0000 
     59 O           1.3153   -4.3619   29.7305 O.2       2 ALA2        0.0000 
     60 OG          1.8823   -5.1389   30.8815 O.2       1 SER1        0.0000 
     61 N           4.9374    6.7857   23.7421 N.2       2 ALA2        0.0000 
     62 N           2.9818    7.2637   23.0734 N.2       2 ALA2        0.0000 
     63 O           3.5489    6.4867   24.2244 O.2       2 ALA2        0.0000 
     64 CZ          2.1603    6.1878   24.7067 C.ar      5 PHE5        0.0000 
     65 O           2.7274    5.4108   25.8577 O.2       2 ALA2        0.0000 
     66 CZ          1.3388    5.1119   26.3399 C.ar      5 PHE5        0.0000 
     67 O           1.9059    4.3349   27.4909 O.2       2 ALA2        0.0000 
     68 O           2.4729    3.5580   28.6419 O.2       2 ALA2        0.0000 
     69 O           3.0400    2.7810   29.7929 O.2       2 ALA2        0.0000 
     70 CZ         -0.0497    4.8130   26.8222 C.ar      5 PHE5        0.0000 
     71 DU          0.5174    4.0360   27.9732 H         7 CUB7        0.0000 
     72 DU          1.0844    3.2590   29.1242 H         7 CUB7        0.0000 
     73 DU          1.6514    2.4821   30.2752 H         7 CUB7        0.0000 
     74 DU          2.2185    1.7051   31.4262 H         7 CUB7        0.0000 
     75 CZ         -1.4382    4.5140   27.3045 C.ar      5 PHE5        0.0000 
     76 CA         -0.8712    3.7371   28.4555 C.3       6 GLY6        0.0000 
     77 DU         -0.3041    2.9601   29.6065 H         7 CUB7        0.0000 
     78 DU          0.8300    1.4062   31.9085 H         7 CUB7        0.0000 
     79 CA         -2.2597    3.4381   28.9378 C.3       6 GLY6        0.0000 
     80 DU         -1.6927    2.6612   30.0888 H         7 CUB7        0.0000 
     81 DU         -1.1256    1.8842   31.2398 H         7 CUB7        0.0000 
     82 CA         -3.0812    2.3622   30.5711 C.3       6 GLY6        0.0000 
     83 CA         -2.5142    1.5853   31.7221 C.3       6 GLY6        0.0000 
     84 N           4.3499    6.3148   21.7589 N.2       2 ALA2        0.0000 
     85 NZ          4.9170    5.5379   22.9099 N.2       4 LYS4        0.0000 
     86 N           2.9614    6.0159   22.2411 N.2       2 ALA2        0.0000 
     87 NZ          3.5284    5.2389   23.3921 N.2       4 LYS4        0.0000 
     88 CZ          1.5729    5.7170   22.7234 C.ar      5 PHE5        0.0000 
     89 CZ          2.1399    4.9400   23.8744 C.ar      5 PHE5        0.0000 
     90 NZ          2.7070    4.1630   25.0254 N.2       4 LYS4        0.0000 
     91 NZ          3.2740    3.3861   26.1764 N.2       4 LYS4        0.0000 
     92 NZ          3.8410    2.6091   27.3274 N.2       4 LYS4        0.0000 
     93 OG          4.4081    1.8321   28.4784 O.2       1 SER1        0.0000 
     94 N           5.5422    0.2782   30.7804 N.2       2 ALA2        0.0000 
     95 CZ          1.3184    3.8641   25.5077 C.ar      5 PHE5        0.0000 
     96 DU          1.8855    3.0871   26.6587 H         7 CUB7        0.0000 
     97 O           2.4525    2.3102   27.8097 O.2       2 ALA2        0.0000 
     98 OG          3.0196    1.5332   28.9607 O.2       1 SER1        0.0000 
     99 OG          3.5866    0.7562   30.1117 O.2       1 SER1        0.0000 
    100 OG          4.1536   -0.0207   31.2627 O.2       1 SER1        0.0000 
    101 CZ         -0.0701    3.5652   25.9900 C.ar      5 PHE5        0.0000 
    102 DU          0.4969    2.7882   27.1410 H         7 CUB7        0.0000 
    103 DU          1.0640    2.0112   28.2920 H         7 CUB7        0.0000 
    104 DU          1.6310    1.2343   29.4430 H         7 CUB7        0.0000 
    105 DU          2.1981    0.4573   30.5940 H         7 CUB7        0.0000 
    106 DU          2.7651   -0.3196   31.7449 H         7 CUB7        0.0000 
    107 OD1         3.3322   -1.0966   32.8959 O.3       3 ASP3        0.0000 
    108 CZ         -1.4587    3.2662   26.4723 C.ar      5 PHE5        0.0000 
    109 CA         -0.8916    2.4893   27.6233 C.3       6 GLY6        0.0000 
    110 DU         -0.3246    1.7123   28.7743 H         7 CUB7        0.0000 
    111 DU          0.2425    0.9353   29.9252 H         7 CUB7        0.0000 
    112 DU          0.8095    0.1584   31.0762 H         7 CUB7        0.0000 
    113 N           1.3766   -0.6186   32.2272 N.2       2 ALA2        0.0000 
    114 N           1.9436   -1.3955   33.3782 N.2       2 ALA2        0.0000 
    115 NZ          2.5107   -2.1725   34.5292 N.2       4 LYS4        0.0000 
    116 CA         -1.7131    1.4134   29.2565 C.3       6 GLY6        0.0000 
    117 O          -1.1461    0.6364   30.4075 O.2       2 ALA2        0.0000 
    118 CA         -0.5790   -0.1406   31.5585 C.3       6 GLY6        0.0000 
    119 CA         -2.5346    0.3375   30.8898 C.3       6 GLY6        0.0000 
    120 OG          2.2012    8.6834   26.3711 O.2       1 SER1        0.0000 
    121 CA          0.8127    8.3844   26.8534 C.3       6 GLY6        0.0000 
    122 N           3.0023    8.5115   23.9056 N.2       2 ALA2        0.0000 
    123 OG          3.5693    7.7345   25.0566 O.2       1 SER1        0.0000 
    124 CZ          1.6137    8.2125   24.3879 C.ar      5 PHE5        0.0000 
    125 CZ          2.1808    7.4356   25.5389 C.ar      5 PHE5        0.0000 
    126 O           2.7478    6.6586   26.6899 O.2       2 ALA2        0.0000 
    127 CZ          0.7922    7.1366   26.0212 C.ar      5 PHE5        0.0000 
    128 O           1.3593    6.3597   27.1722 O.2       2 ALA2        0.0000 
    129 CZ         -0.0293    6.0607   27.6545 C.ar      5 PHE5        0.0000 
    130 DU          0.5378    5.2838   28.8054 H         7 CUB7        0.0000 
    131 CZ         -1.4178    5.7618   28.1367 C.ar      5 PHE5        0.0000 
    132 DU         -2.2393    4.6859   29.7700 H         7 CUB7        0.0000 
@<TRIPOS>BOND
@<TRIPOS>SUBSTRUCTURE
     1 SER1       11 GROUP   
     2 ALA2        2 GROUP   
     3 ASP3       13 GROUP   
     4 LYS4        1 GROUP   
     5 PHE5        6 GROUP   
     6 GLY6        7 GROUP   
     7 CUB7       15 GROUP   
@<TRIPOS>SET

