#    Name: 4iix_1EG_1_INTS_M
#    Modification time : Tue Mar 25 04:04:34 2014

@<TRIPOS>MOLECULE
4iix_1EG_1_INTS_M
   52     0    12     0     0
SMALL
NO_CHARGES


@<TRIPOS>ATOM
      1 O           3.7165    9.0315   26.9400 O.2       1 ALC1        0.0000 
      2 O           2.1040    9.2520   26.8660 O.2       9 ALL1        0.0000 
      3 O           5.3290    8.8110   27.0140 O.2       5 ALP1        0.0000 
      4 CA          0.0065    4.9370   24.9610 C.3       4 GLC5        0.0000 
      5 CA          1.1030    4.0700   26.0260 C.3      12 GLL5        0.0000 
      6 CA         -1.0900    5.8040   23.8960 C.3       8 GLP5        0.0000 
      7 N           4.3255    5.0100   26.5450 N.am      2 SEC2        0.0000 
      8 N           3.4540    3.8400   25.6380 N.am     10 SEL2        0.0000 
      9 N           5.1970    6.1800   27.4520 N.am      6 SEP2        0.0000 
     10 N           4.5935    3.6180   25.1475 N.am      2 SEC2        0.0000 
     11 N           5.7330    3.3960   24.6570 N.am      6 SEP2        0.0000 
     12 N           4.5680    2.4585   25.2990 N.am      2 SEC2        0.0000 
     13 N           3.4030    1.5210   25.9410 N.am     10 SEL2        0.0000 
     14 O           2.9980    1.3020   24.3885 O.2       1 ALC1        0.0000 
     15 O           3.4030    1.5210   25.9410 O.2       9 ALL1        0.0000 
     16 O           2.5930    1.0830   22.8360 O.2       5 ALP1        0.0000 
     17 CA         -2.0425    0.8010   26.3935 C.3       4 GLC5        0.0000 
     18 CA          0.1730    0.6150   26.1530 C.3      12 GLL5        0.0000 
     19 CA         -4.2580    0.9870   26.6340 C.3       8 GLP5        0.0000 
     20 CA          0.2720   -0.6480   24.4055 C.3       4 GLC5        0.0000 
     21 CA          0.3710   -1.9110   22.6580 C.3       8 GLP5        0.0000 
     22 N          -2.8340   -1.6440   27.3160 N.am      2 SEC2        0.0000 
     23 N          -1.4680   -1.2310   27.2050 N.am     10 SEL2        0.0000 
     24 N          -4.2000   -2.0570   27.4270 N.am      6 SEP2        0.0000 
     25 N          -1.6955   -2.7110   30.1815 N.am      2 SEC2        0.0000 
     26 N          -0.4380   -3.0360   29.6560 N.am     10 SEL2        0.0000 
     27 N          -2.9530   -2.3860   30.7070 N.am      6 SEP2        0.0000 
     28 N          -0.5110   -4.4750   29.2365 N.am      2 SEC2        0.0000 
     29 N          -0.5840   -5.9140   28.8170 N.am      6 SEP2        0.0000 
     30 CA          1.1740   -3.4980   28.3560 C.3       4 GLC5        0.0000 
     31 CA          1.8600   -2.6830   29.8800 C.3      12 GLL5        0.0000 
     32 CA          0.4880   -4.3130   26.8320 C.3       8 GLP5        0.0000 
     33 O           3.0085   -1.9255   28.2035 O.2       1 ALC1        0.0000 
     34 O           2.7970   -1.5810   29.7380 O.2       9 ALL1        0.0000 
     35 O           3.2200   -2.2700   26.6690 O.2       5 ALP1        0.0000 
     36 NZ          5.5920   -2.8585   32.6010 N.4       3 LYC4        0.0000 
     37 NZ          4.4910   -2.7370   31.3310 N.4      11 LYL4        0.0000 
     38 NZ          6.6930   -2.9800   33.8710 N.4       7 LYP4        0.0000 
     39 N           5.5920   -2.8585   32.6010 N.am      2 SEC2        0.0000 
     40 N           4.4910   -2.7370   31.3310 N.am     10 SEL2        0.0000 
     41 N           6.6930   -2.9800   33.8710 N.am      6 SEP2        0.0000 
     42 NZ          5.8070   -3.7730   33.1615 N.4       3 LYC4        0.0000 
     43 NZ          4.9210   -4.5660   32.4520 N.4      11 LYL4        0.0000 
     44 N           5.0580   -5.3160   33.6595 N.am      2 SEC2        0.0000 
     45 N           4.9210   -4.5660   32.4520 N.am     10 SEL2        0.0000 
     46 N           5.1950   -6.0660   34.8670 N.am      6 SEP2        0.0000 
     47 N           5.8070   -3.7730   33.1615 N.am      2 SEC2        0.0000 
     48 CA         -0.5587    1.5402   24.2270 C.3       4 GLC5        0.0000 
     49 CA          1.0440    1.7780   25.6930 C.3      12 GLL5        0.0000 
     50 CA         -1.7260    1.8840   22.5310 C.3       8 GLP5        0.0000 
     51 CA          2.2717    0.0358   26.0340 C.3       4 GLC5        0.0000 
     52 CA          3.6350   -1.1940   25.9230 C.3       8 GLP5        0.0000 
@<TRIPOS>BOND
@<TRIPOS>SUBSTRUCTURE
     1 ALC1        1 GROUP        1 X    ALC  0     ROOT ALC X 1
     2 SEC2        7 GROUP        1 X    SEC  0     **** SEC X 2
     3 LYC4       36 GROUP        1 X    LYC  0     **** LYC X 4
     4 GLC5        4 GROUP        1 X    GLC  0     **** GLC X 6
     5 ALP1        3 GROUP        1 Y    ALP  0     ROOT ALP Y 8
     6 SEP2        9 GROUP        1 Y    SEP  0     **** SEP Y 9
     7 LYP4       38 GROUP        1 Y    LYP  0     **** LYP Y 11
     8 GLP5        6 GROUP        1 Y    GLP  0     **** GLP Y 13
     9 ALL1        2 GROUP        1 Z    ALL  0     ROOT ALL Z 15
    10 SEL2        8 GROUP        1 Z    SEL  0     **** SEL Z 16
    11 LYL4       37 GROUP        1 Z    LYL  0     **** LYL Z 18
    12 GLL5        5 GROUP        1 Z    GLL  0     **** GLL Z 20
@<TRIPOS>SET

