#    Name: 4iix_1EG_1_ligand
#    Modification time : Tue Mar 25 04:04:34 2014

@<TRIPOS>MOLECULE
4iix_1EG_1_ligand
   54    56     1     0     0
SMALL
NO_CHARGES


@<TRIPOS>ATOM
      1 O6         -1.2470    8.1370   29.7870 O.2       1 1EG401      0.0000 
      2 C6         -0.4520    7.7910   28.8850 C.2       1 1EG401      0.0000 
      3 N1          0.4090    8.6560   28.3330 N.2       1 1EG401      0.0000 
      4 C2          1.2710    8.3090   27.3560 C.2       1 1EG401      0.0000 
      5 N2          2.1040    9.2520   26.8660 N.pl3     1 1EG401      0.0000 
      6 N3          1.3490    7.0560   26.8450 N.pl3     1 1EG401      0.0000 
      7 C5         -0.4390    6.4040   28.3800 C.2       1 1EG401      0.0000 
      8 C4          0.5300    6.0970   27.3190 C.2       1 1EG401      0.0000 
      9 N7         -1.1100    5.2690   28.6460 N.2       1 1EG401      0.0000 
     10 C8         -0.6190    4.3160   27.8190 C.2       1 1EG401      0.0000 
     11 N9          0.3620    4.8190   27.0460 N.pl3     1 1EG401      0.0000 
     12 C1'         1.1030    4.0700   26.0260 C.3       1 1EG401      0.0000 
     13 O4'         0.2730    2.9690   25.6800 O.3       1 1EG401      0.0000 
     14 C2'         2.4150    3.5490   26.5720 C.3       1 1EG401      0.0000 
     15 O2'         3.4540    3.8400   25.6380 O.3       1 1EG401      0.0000 
     16 C3'         2.2440    2.0540   26.5810 C.3       1 1EG401      0.0000 
     17 O3'         3.4030    1.5210   25.9410 O.3       1 1EG401      0.0000 
     18 C4'         1.0440    1.7780   25.6930 C.3       1 1EG401      0.0000 
     19 C5'         0.1730    0.6150   26.1530 C.3       1 1EG401      0.0000 
     20 O5'        -0.3340    0.8270   27.4720 O.3       1 1EG401      0.0000 
     21 SBG        -0.8480   -0.4100   28.2210 S.o2      1 1EG401      0.0000 
     22 OAF        -1.4680   -1.2310   27.2050 O.2       1 1EG401      0.0000 
     23 OAG        -1.7500    0.0250   29.2550 O.2       1 1EG401      0.0000 
     24 NAQ         0.4200   -1.0840   28.7930 N.pl3     1 1EG401      0.0000 
     25 C           0.4880   -2.2660   29.4360 C.2       1 1EG401      0.0000 
     26 O          -0.4380   -3.0360   29.6560 O.2       1 1EG401      0.0000 
     27 CA          1.8600   -2.6830   29.8800 C.3       1 1EG401      0.0000 
     28 N           2.7970   -1.5810   29.7380 N.4       1 1EG401      0.0000 
     29 CB          1.7960   -3.1850   31.3210 C.3       1 1EG401      0.0000 
     30 CG          2.7540   -4.3540   31.5230 C.3       1 1EG401      0.0000 
     31 CD          4.1550   -3.8500   31.7860 C.2       1 1EG401      0.0000 
     32 OE1         4.4910   -2.7370   31.3310 O.co2     1 1EG401      0.0000 
     33 OE2         4.9210   -4.5660   32.4520 O.co2     1 1EG401      0.0000 
     34 H           1.6687   10.0468   26.4433 H         1 1EG401      0.0000 
     35 H           3.0822    9.0717   26.9694 H         1 1EG401      0.0000 
     36 H           2.0338    6.8413   26.0964 H         1 1EG401      0.0000 
     37 H          -0.9364    3.3899   27.7902 H         1 1EG401      0.0000 
     38 H           1.2905    4.6893   25.1791 H         1 1EG401      0.0000 
     39 H           2.5800    3.8995   27.5249 H         1 1EG401      0.0000 
     40 H           2.0852    1.7086   27.5340 H         1 1EG401      0.0000 
     41 H           1.4082    1.5647   24.6915 H         1 1EG401      0.0000 
     42 H           0.7836   -0.3033   26.0975 H         1 1EG401      0.0000 
     43 H          -0.6443    0.4980   25.4198 H         1 1EG401      0.0000 
     44 H           1.2907   -0.4959   28.6242 H         1 1EG401      0.0000 
     45 H           2.1739   -3.5228   29.2554 H         1 1EG401      0.0000 
     46 H           0.7813   -3.5078   31.5438 H         1 1EG401      0.0000 
     47 H           2.0676   -2.3757   31.9953 H         1 1EG401      0.0000 
     48 H           2.7508   -4.9764   30.6291 H         1 1EG401      0.0000 
     49 H           2.4150   -4.9510   32.3688 H         1 1EG401      0.0000 
     50 H           2.3475   -0.6946   29.8488 H         1 1EG401      0.0000 
     51 H           3.5286   -1.6256   30.4182 H         1 1EG401      0.0000 
     52 H           3.2331   -1.5779   28.8381 H         1 1EG401      0.0000 
     53 H           3.0134    3.8032   24.7411 H         1 1EG401      0.0000 
     54 H           3.1439    1.4181   24.9806 H         1 1EG401      0.0000 
@<TRIPOS>BOND
     1    2    1 2    
     2    3    2 1    
     3    7    2 1    
     4    4    3 2    
     5    5    4 1    
     6    6    4 1    
     7   34    5 1    
     8   35    5 1    
     9    8    6 1    
    10   36    6 1    
    11    8    7 2    
    12    9    7 1    
    13   11    8 1    
    14   10    9 2    
    15   11   10 1    
    16   37   10 1    
    17   12   11 1    
    18   13   12 1    
    19   14   12 1    
    20   38   12 1    
    21   18   13 1    
    22   15   14 1    
    23   16   14 1    
    24   39   14 1    
    25   53   15 1    
    26   17   16 1    
    27   18   16 1    
    28   40   16 1    
    29   54   17 1    
    30   19   18 1    
    31   41   18 1    
    32   20   19 1    
    33   42   19 1    
    34   43   19 1    
    35   21   20 1    
    36   22   21 2    
    37   23   21 2    
    38   24   21 1    
    39   25   24 am   
    40   44   24 1    
    41   26   25 2    
    42   27   25 1    
    43   28   27 1    
    44   29   27 1    
    45   45   27 1    
    46   50   28 1    
    47   51   28 1    
    48   52   28 1    
    49   30   29 1    
    50   46   29 1    
    51   47   29 1    
    52   31   30 1    
    53   48   30 1    
    54   49   30 1    
    55   32   31 ar   
    56   33   31 ar   
@<TRIPOS>SUBSTRUCTURE
     1 1EG401      1 GROUP   
@<TRIPOS>SET

