#    Name: 1d7u_LCS_1_INTS_M
#    Modification time : Mon Mar 24 21:33:42 2014

@<TRIPOS>MOLECULE
1d7u_LCS_1_INTS_M
   42     0     6     0     0
SMALL
NO_CHARGES


@<TRIPOS>ATOM
      1 CA         18.3885   54.9695   14.6735 C.3       2 GLC5        0.0000 
      2 CA         16.4760   53.8540   14.6280 C.3       6 GLL5        0.0000 
      3 CA         20.3010   56.0850   14.7190 C.3       4 GLP5        0.0000 
      4 CA         15.0800   56.4205   13.4145 C.3       2 GLC5        0.0000 
      5 CA         15.4580   54.8230   14.0900 C.3       6 GLL5        0.0000 
      6 CA         14.7020   58.0180   12.7390 C.3       4 GLP5        0.0000 
      7 N          14.0110   53.1930   17.0555 N.am      1 SEC2        0.0000 
      8 N          15.2540   53.5320   16.6390 N.am      5 SEL2        0.0000 
      9 N          12.7680   52.8540   17.4720 N.am      3 SEP2        0.0000 
     10 CA         17.7985   53.2715   17.8720 C.3       2 GLC5        0.0000 
     11 CA         17.3140   51.6690   17.5470 C.3       6 GLL5        0.0000 
     12 CA         18.2830   54.8740   18.1970 C.3       4 GLP5        0.0000 
     13 CA         19.3880   50.8340   13.4460 C.3       2 GLC5        0.0000 
     14 CA         18.5320   52.7300   14.2030 C.3       6 GLL5        0.0000 
     15 CA         20.2440   48.9380   12.6890 C.3       4 GLP5        0.0000 
     16 CA         19.9335   50.0770   14.2765 C.3       2 GLC5        0.0000 
     17 CA         19.6230   51.2160   15.8640 C.3       6 GLL5        0.0000 
     18 CA         21.4925   51.0660   14.7035 C.3       2 GLC5        0.0000 
     19 CA         23.3620   50.9160   13.5430 C.3       4 GLP5        0.0000 
     20 N          21.9490   49.4355   14.8455 N.am      1 SEC2        0.0000 
     21 N          21.6540   48.8810   16.0810 N.am      5 SEL2        0.0000 
     22 N          22.2440   49.9900   13.6100 N.am      3 SEP2        0.0000 
     23 CA         17.3560   53.2795   18.9145 C.3       2 GLC5        0.0000 
     24 CA         16.4290   51.6850   19.6320 C.3       6 GLL5        0.0000 
     25 CA         15.5545   50.6360   18.2385 C.3       2 GLC5        0.0000 
     26 CA         14.6800   49.5870   16.8450 C.3       4 GLP5        0.0000 
     27 N          13.0050   53.5595   20.5575 N.am      1 SEC2        0.0000 
     28 N          14.3250   52.5850   20.6210 N.am      5 SEL2        0.0000 
     29 N          11.6850   54.5340   20.4940 N.am      3 SEP2        0.0000 
     30 N          13.2330   53.0235   21.5370 N.am      1 SEC2        0.0000 
     31 N          12.1410   53.4620   22.4530 N.am      3 SEP2        0.0000 
     32 CA         18.4495   52.8500   20.1660 C.3       2 GLC5        0.0000 
     33 CA         17.5160   51.0170   20.1890 C.3       6 GLL5        0.0000 
     34 CA         19.3830   54.6830   20.1430 C.3       4 GLP5        0.0000 
     35 CA         15.7518   52.5336   13.7353 C.3       2 GLC5        0.0000 
     36 CA         15.3350   51.2830   12.3410 C.3       4 GLP5        0.0000 
     37 CA         15.8875   50.9140   16.8369 C.3       2 GLC5        0.0000 
     38 CA         19.3937   54.2545   14.7625 C.3       2 GLC5        0.0000 
     39 CA         18.4410   52.1180   15.4090 C.3       6 GLL5        0.0000 
     40 CA         20.6940   52.7070   16.2703 C.3       2 GLC5        0.0000 
     41 CA         22.3560   53.7470   16.9040 C.3       4 GLP5        0.0000 
     42 CA         16.9108   51.8535   13.5735 C.3       2 GLC5        0.0000 
@<TRIPOS>BOND
@<TRIPOS>SUBSTRUCTURE
     1 SEC2        7 GROUP        1 X    SEC  0     ROOT SEC X 2
     2 GLC5        1 GROUP        1 X    GLC  0     **** GLC X 6
     3 SEP2        9 GROUP        1 Y    SEP  0     ROOT SEP Y 9
     4 GLP5        3 GROUP        1 Y    GLP  0     **** GLP Y 13
     5 SEL2        8 GROUP        1 Z    SEL  0     ROOT SEL Z 16
     6 GLL5        2 GROUP        1 Z    GLL  0     **** GLL Z 20
@<TRIPOS>SET

