#    Name: 1d7u_LCS_1_ligand
#    Modification time : Mon Mar 24 21:33:42 2014

@<TRIPOS>MOLECULE
1d7u_LCS_1_ligand
   35    36     1     0     0
SMALL
NO_CHARGES


@<TRIPOS>ATOM
      1 N1         17.5480   53.5710   13.8570 N.ar      1 LCS500      0.0000 
      2 C2         16.4760   53.8540   14.6280 C.ar      1 LCS500      0.0000 
      3 C2A        15.4580   54.8230   14.0900 C.3       1 LCS500      0.0000 
      4 C3         16.3700   53.2300   15.9000 C.ar      1 LCS500      0.0000 
      5 O3         15.2540   53.5320   16.6390 O.3       1 LCS500      0.0000 
      6 C4         17.3820   52.3960   16.3210 C.ar      1 LCS500      0.0000 
      7 C4A        17.3140   51.6690   17.5470 C.3       1 LCS500      0.0000 
      8 C5         18.4410   52.1180   15.4090 C.ar      1 LCS500      0.0000 
      9 C6         18.5320   52.7300   14.2030 C.ar      1 LCS500      0.0000 
     10 C5A        19.6230   51.2160   15.8640 C.3       1 LCS500      0.0000 
     11 O4P        19.3670   49.8300   15.8430 O.3       1 LCS500      0.0000 
     12 P          20.3200   48.8390   16.7210 P.3       1 LCS500      0.0000 
     13 O1P        20.2480   49.2890   18.1250 O.co2     1 LCS500      0.0000 
     14 O2P        19.7670   47.3920   16.5690 O.co2     1 LCS500      0.0000 
     15 O3P        21.6540   48.8810   16.0810 O.co2     1 LCS500      0.0000 
     16 N          16.3610   51.9390   18.3370 N.4       1 LCS500      0.0000 
     17 CA         16.4290   51.6850   19.6320 C.3       1 LCS500      0.0000 
     18 C          15.4880   52.0100   20.5830 C.2       1 LCS500      0.0000 
     19 O          14.3250   52.5850   20.6210 O.2       1 LCS500      0.0000 
     20 ND         15.9420   51.5920   21.7260 N.am      1 LCS500      0.0000 
     21 OG         17.1910   50.9340   21.5140 O.3       1 LCS500      0.0000 
     22 CB         17.5160   51.0170   20.1890 C.3       1 LCS500      0.0000 
     23 H          18.3540   51.7777   18.0490 H         1 LCS500      0.0000 
     24 H          17.3529   50.5451   17.2626 H         1 LCS500      0.0000 
     25 H          19.3296   52.5505   13.5821 H         1 LCS500      0.0000 
     26 H          19.9118   51.5718   16.8859 H         1 LCS500      0.0000 
     27 H          20.4929   51.4898   15.2139 H         1 LCS500      0.0000 
     28 H          17.1063   52.9343   19.8911 H         1 LCS500      0.0000 
     29 H          15.5577   51.6748   22.6075 H         1 LCS500      0.0000 
     30 H          18.4398   51.5805   20.0314 H         1 LCS500      0.0000 
     31 H          17.6368   50.0285   19.7372 H         1 LCS500      0.0000 
     32 H          15.8599   55.7201   13.9065 H         1 LCS500      0.0000 
     33 H          15.0557   54.5012   13.2329 H         1 LCS500      0.0000 
     34 H          14.7048   54.9650   14.7322 H         1 LCS500      0.0000 
     35 H          15.2319   54.5310   16.6776 H         1 LCS500      0.0000 
@<TRIPOS>BOND
     1    2    1 ar   
     2    9    1 ar   
     3    3    2 1    
     4    4    2 ar   
     5   32    3 1    
     6   33    3 1    
     7   34    3 1    
     8    5    4 1    
     9    6    4 ar   
    10   35    5 1    
    11    7    6 1    
    12    8    6 ar   
    13   16    7 1    
    14   23    7 1    
    15   24    7 1    
    16    9    8 ar   
    17   10    8 1    
    18   25    9 1    
    19   11   10 1    
    20   26   10 1    
    21   27   10 1    
    22   12   11 1    
    23   13   12 ar   
    24   14   12 ar   
    25   15   12 ar   
    26   17   16 1    
    27   18   17 1    
    28   22   17 1    
    29   28   17 1    
    30   19   18 2    
    31   20   18 am   
    32   21   20 1    
    33   29   20 1    
    34   22   21 1    
    35   30   22 1    
    36   31   22 1    
@<TRIPOS>SUBSTRUCTURE
     1 LCS500      1 GROUP   
@<TRIPOS>SET

