#    Name: 2Y1X_5_CAVITY_N1_6.mol2
#    Modification time : Tue Mar 11 01:56:14 2014

@<TRIPOS>MOLECULE
2Y1X_5_CAVITY_N1_6.mol2
   69     0     6     0     0
SMALL
NO_CHARGES


@<TRIPOS>ATOM
      1 N          54.9077  -15.0748  -91.0358 N.2       2 ALA2        0.0000 
      2 N          53.4811  -14.6756  -90.8006 N.2       2 ALA2        0.0000 
      3 N          52.0544  -14.2765  -90.5654 N.2       2 ALA2        0.0000 
      4 N          53.0810  -16.1211  -90.7741 N.2       2 ALA2        0.0000 
      5 N          51.6543  -15.7219  -90.5390 N.2       2 ALA2        0.0000 
      6 N          52.6809  -17.5665  -90.7477 N.2       2 ALA2        0.0000 
      7 N          51.2543  -17.1673  -90.5125 N.2       2 ALA2        0.0000 
      8 N          52.2809  -19.0119  -90.7212 N.2       2 ALA2        0.0000 
      9 O          50.8542  -18.6127  -90.4860 O.2       2 ALA2        0.0000 
     10 CA         53.3075  -20.8565  -90.9299 C.3       5 GLY6        0.0000 
     11 NZ         51.8808  -20.4573  -90.6947 N.2       3 LYS4        0.0000 
     12 CA         52.9074  -22.3019  -90.9034 C.3       5 GLY6        0.0000 
     13 NZ         51.4807  -21.9027  -90.6682 N.2       3 LYS4        0.0000 
     14 CA         56.7873  -24.9449  -91.5824 C.3       5 GLY6        0.0000 
     15 CA         55.3607  -24.5457  -91.3473 C.3       5 GLY6        0.0000 
     16 CA         53.9340  -24.1465  -91.1121 C.3       5 GLY6        0.0000 
     17 CZ         52.5073  -23.7473  -90.8769 C.ar      4 PHE5        0.0000 
     18 OG         56.3872  -26.3903  -91.5560 O.2       1 SER1        0.0000 
     19 OG         54.9606  -25.9911  -91.3208 O.2       1 SER1        0.0000 
     20 CZ         53.5339  -25.5919  -91.0856 C.ar      4 PHE5        0.0000 
     21 CZ         54.5605  -27.4365  -91.2943 C.ar      4 PHE5        0.0000 
     22 NZ         53.6156  -17.7166  -84.8228 N.2       3 LYS4        0.0000 
     23 CA         52.1889  -17.3175  -84.5876 C.3       5 GLY6        0.0000 
     24 N          53.2155  -19.1621  -84.7963 N.2       2 ALA2        0.0000 
     25 OG         51.7888  -18.7629  -84.5612 O.2       1 SER1        0.0000 
     26 CA         50.3622  -18.3637  -84.3260 C.3       5 GLY6        0.0000 
     27 N          53.3819  -17.6791  -86.3040 N.2       2 ALA2        0.0000 
     28 N          52.9818  -19.1245  -86.2775 N.2       2 ALA2        0.0000 
     29 CA         51.5552  -18.7253  -86.0424 C.3       5 GLY6        0.0000 
     30 OG         52.5818  -20.5699  -86.2511 O.2       1 SER1        0.0000 
     31 O          56.3200  -24.8698  -94.5449 O.2       2 ALA2        0.0000 
     32 N          54.8933  -24.4706  -94.3097 N.2       2 ALA2        0.0000 
     33 CA         54.4933  -25.9160  -94.2832 C.3       5 GLY6        0.0000 
     34 N          53.5483  -16.1961  -87.8117 N.2       2 ALA2        0.0000 
     35 N          53.1482  -17.6416  -87.7852 N.2       2 ALA2        0.0000 
     36 N          54.1748  -19.4862  -87.9939 N.2       2 ALA2        0.0000 
     37 N          52.7482  -19.0870  -87.7588 N.2       2 ALA2        0.0000 
     38 CZ         51.3215  -18.6878  -87.5236 C.ar      4 PHE5        0.0000 
     39 CZ         52.3481  -20.5324  -87.7323 C.ar      4 PHE5        0.0000 
     40 O          53.7147  -14.7132  -89.3194 O.2       2 ALA2        0.0000 
     41 O          52.2881  -14.3140  -89.0842 O.2       2 ALA2        0.0000 
     42 N          54.7413  -16.5578  -89.5281 N.2       2 ALA2        0.0000 
     43 N          53.3146  -16.1586  -89.2929 N.2       2 ALA2        0.0000 
     44 CA         51.8880  -15.7594  -89.0578 C.3       5 GLY6        0.0000 
     45 N          54.3412  -18.0032  -89.5016 N.2       2 ALA2        0.0000 
     46 N          52.9146  -17.6040  -89.2665 N.2       2 ALA2        0.0000 
     47 CA         51.4879  -17.2048  -89.0313 C.3       5 GLY6        0.0000 
     48 N          53.9412  -19.4486  -89.4751 N.2       2 ALA2        0.0000 
     49 N          52.5145  -19.0494  -89.2400 N.2       2 ALA2        0.0000 
     50 CZ         51.0879  -18.6503  -89.0048 C.ar      4 PHE5        0.0000 
     51 CA         53.5411  -20.8940  -89.4487 C.3       5 GLY6        0.0000 
     52 CZ         52.1145  -20.4949  -89.2135 C.ar      4 PHE5        0.0000 
     53 CA         53.1411  -22.3395  -89.4222 C.3       5 GLY6        0.0000 
     54 CZ         51.7144  -21.9403  -89.1870 C.ar      4 PHE5        0.0000 
     55 CA         55.5943  -24.5832  -89.8661 C.3       5 GLY6        0.0000 
     56 CA         54.1677  -24.1841  -89.6309 C.3       5 GLY6        0.0000 
     57 OG         52.7410  -23.7849  -89.3957 O.2       1 SER1        0.0000 
     58 CZ         53.7676  -25.6295  -89.6044 C.ar      4 PHE5        0.0000 
     59 CA         55.5271  -23.0627  -92.8550 C.3       5 GLY6        0.0000 
     60 CA         54.1004  -22.6636  -92.6198 C.3       5 GLY6        0.0000 
     61 NZ         52.6737  -22.2644  -92.3846 N.2       3 LYS4        0.0000 
     62 CA         56.5537  -24.9073  -93.0637 C.3       5 GLY6        0.0000 
     63 DU         55.1270  -24.5082  -92.8285 H         6 CUB7        0.0000 
     64 CZ         53.7003  -24.1090  -92.5933 C.ar      4 PHE5        0.0000 
     65 CZ         52.2737  -23.7098  -92.3581 C.ar      4 PHE5        0.0000 
     66 O          56.1536  -26.3528  -93.0372 O.2       2 ALA2        0.0000 
     67 CA         54.7269  -25.9536  -92.8020 C.3       5 GLY6        0.0000 
     68 CZ         53.3003  -25.5544  -92.5668 C.ar      4 PHE5        0.0000 
     69 CZ         54.3269  -27.3990  -92.7755 C.ar      4 PHE5        0.0000 
@<TRIPOS>BOND
@<TRIPOS>SUBSTRUCTURE
     1 SER1       18 GROUP   
     2 ALA2        1 GROUP   
     3 LYS4       11 GROUP   
     4 PHE5       17 GROUP   
     5 GLY6       10 GROUP   
     6 CUB7       63 GROUP   
@<TRIPOS>SET

