#    Name: 2y1x_SAH_5_INTS_M
#    Modification time : Tue Mar 25 07:26:08 2014

@<TRIPOS>MOLECULE
2y1x_SAH_5_INTS_M
   93     0    12     0     0
SMALL
NO_CHARGES


@<TRIPOS>ATOM
      1 O          54.9370  -17.0405  -91.5920 O.2       1 ALC1        0.0000 
      2 O          54.9850  -15.7300  -91.0210 O.2       9 ALL1        0.0000 
      3 O          54.8890  -18.3510  -92.1630 O.2       5 ALP1        0.0000 
      4 O          55.3675  -14.7150  -92.2145 O.2       1 ALC1        0.0000 
      5 O          55.7500  -13.7000  -93.4080 O.2       5 ALP1        0.0000 
      6 CA         54.2165  -16.1715  -92.6555 C.3       4 GLC5        0.0000 
      7 CA         53.5680  -15.2460  -90.7250 C.3      12 GLL5        0.0000 
      8 CA         54.8650  -17.0970  -94.5860 C.3       8 GLP5        0.0000 
      9 CA         53.6450  -13.1755  -91.2050 C.3       4 GLC5        0.0000 
     10 CA         53.7220  -11.1050  -91.6850 C.3       8 GLP5        0.0000 
     11 CA         51.1450  -16.2490  -88.9895 C.3       4 GLC5        0.0000 
     12 CA         52.7100  -16.3940  -90.1570 C.3      12 GLL5        0.0000 
     13 CA         49.5800  -16.1040  -87.8220 C.3       8 GLP5        0.0000 
     14 CA         55.2155  -16.2555  -87.8995 C.3       4 GLC5        0.0000 
     15 CA         53.3820  -17.0380  -88.9120 C.3      12 GLL5        0.0000 
     16 CA         57.0490  -15.4730  -86.8870 C.3       8 GLP5        0.0000 
     17 NZ         54.3705  -13.6055  -87.7730 N.4       3 LYC4        0.0000 
     18 NZ         54.7300  -13.9020  -89.1060 N.4      11 LYL4        0.0000 
     19 NZ         53.4380  -12.1230  -86.3230 N.4       7 LYP4        0.0000 
     20 N          54.3705  -13.6055  -87.7730 N.am      2 SEC2        0.0000 
     21 N          54.7300  -13.9020  -89.1060 N.am     10 SEL2        0.0000 
     22 N          54.0110  -13.3090  -86.4400 N.am      6 SEP2        0.0000 
     23 N          53.8605  -12.6960  -88.2525 N.am      2 SEC2        0.0000 
     24 N          52.9910  -11.4900  -87.3990 N.am      6 SEP2        0.0000 
     25 NZ         52.8010  -12.4150  -88.5675 N.4       3 LYC4        0.0000 
     26 NZ         52.6110  -13.3400  -89.7360 N.4      11 LYL4        0.0000 
     27 N          52.8010  -12.4150  -88.5675 N.am      2 SEC2        0.0000 
     28 N          52.6110  -13.3400  -89.7360 N.am     10 SEL2        0.0000 
     29 CA         54.0940  -21.0705  -88.3400 C.3       4 GLC5        0.0000 
     30 CA         52.8950  -19.8090  -88.7800 C.3      12 GLL5        0.0000 
     31 CA         55.2930  -22.3320  -87.9000 C.3       8 GLP5        0.0000 
     32 CA         54.0150  -20.2840  -91.6635 C.3       4 GLC5        0.0000 
     33 CA         52.5840  -20.0520  -90.2660 C.3      12 GLL5        0.0000 
     34 CA         55.4460  -20.5160  -93.0610 C.3       8 GLP5        0.0000 
     35 CA         54.4140  -20.9245  -89.8170 C.3       4 GLC5        0.0000 
     36 CA         56.2440  -21.7970  -89.3680 C.3       8 GLP5        0.0000 
     37 CA         49.5815  -20.8360  -89.8175 C.3       4 GLC5        0.0000 
     38 CA         51.1050  -20.4620  -90.5700 C.3      12 GLL5        0.0000 
     39 CA         48.0580  -21.2100  -89.0650 C.3       8 GLP5        0.0000 
     40 N          49.3910  -18.7230  -91.6115 N.am      2 SEC2        0.0000 
     41 N          50.5850  -19.7660  -91.7020 N.am     10 SEL2        0.0000 
     42 N          48.1970  -17.6800  -91.5210 N.am      6 SEP2        0.0000 
     43 O          51.2775  -19.9015  -92.8810 O.2       1 ALC1        0.0000 
     44 O          50.5850  -19.7660  -91.7020 O.2       9 ALL1        0.0000 
     45 O          51.9700  -20.0370  -94.0600 O.2       5 ALP1        0.0000 
     46 CA         51.0125  -24.1025  -91.3885 C.3       4 GLC5        0.0000 
     47 CA         51.1950  -21.9500  -90.8580 C.3      12 GLL5        0.0000 
     48 CA         50.8300  -26.2550  -91.9190 C.3       8 GLP5        0.0000 
     49 CA         49.8520  -22.1500  -89.6380 C.3       4 GLC5        0.0000 
     50 CA         48.5090  -22.3500  -88.4180 C.3       8 GLP5        0.0000 
     51 O          50.2500  -22.0350  -92.9295 O.2       1 ALC1        0.0000 
     52 O          50.1950  -22.5620  -91.6700 O.2       9 ALL1        0.0000 
     53 O          50.3050  -21.5080  -94.1890 O.2       5 ALP1        0.0000 
     54 CA         54.0325  -21.2870  -92.2400 C.3       4 GLC5        0.0000 
     55 CA         52.6190  -22.0580  -91.4190 C.3      12 GLL5        0.0000 
     56 CA         54.4315  -21.9275  -90.3935 C.3       4 GLC5        0.0000 
     57 CA         53.3445  -26.1725  -93.7190 C.3       4 GLC5        0.0000 
     58 CA         55.0480  -26.2760  -92.3240 C.3      12 GLL5        0.0000 
     59 CA         51.6410  -26.0690  -95.1140 C.3       8 GLP5        0.0000 
     60 CA         55.0440  -27.1020  -94.2695 C.3       4 GLC5        0.0000 
     61 CA         55.0400  -27.9280  -96.2150 C.3       8 GLP5        0.0000 
     62 CA         57.1990  -26.3990  -92.9330 C.3       4 GLC5        0.0000 
     63 CA         59.3500  -26.5220  -93.5420 C.3       8 GLP5        0.0000 
     64 CA         56.8400  -26.4710  -91.0400 C.3       4 GLC5        0.0000 
     65 CA         58.6320  -26.6660  -89.7560 C.3       8 GLP5        0.0000 
     66 O          56.4530  -28.3975  -92.4710 O.2       1 ALC1        0.0000 
     67 O          55.5780  -27.4560  -91.8960 O.2       9 ALL1        0.0000 
     68 O          57.3280  -29.3390  -93.0460 O.2       5 ALP1        0.0000 
     69 N          56.2105  -26.4960  -94.6705 N.am      2 SEC2        0.0000 
     70 N          55.1750  -25.9470  -93.6700 N.am     10 SEL2        0.0000 
     71 N          57.2460  -27.0450  -95.6710 N.am      6 SEP2        0.0000 
     72 CA         55.0565  -22.6585  -93.6105 C.3       4 GLC5        0.0000 
     73 CA         54.6670  -24.8010  -94.1600 C.3      12 GLL5        0.0000 
     74 CA         55.8795  -24.2565  -95.8920 C.3       4 GLC5        0.0000 
     75 CA         57.0920  -23.7120  -97.6240 C.3       8 GLP5        0.0000 
     76 CA         53.9075  -23.3210  -95.4470 C.3       4 GLC5        0.0000 
     77 CA         53.1480  -21.8410  -96.7340 C.3       8 GLP5        0.0000 
     78 CA         53.1540  -25.4350  -94.6370 C.3       4 GLC5        0.0000 
     79 CA         54.8535  -26.3645  -95.1875 C.3       4 GLC5        0.0000 
     80 N          52.9545  -23.8285  -94.6880 N.am      2 SEC2        0.0000 
     81 N          53.9800  -23.8460  -93.3950 N.am     10 SEL2        0.0000 
     82 N          51.9290  -23.8110  -95.9810 N.am      6 SEP2        0.0000 
     83 CA         54.6675  -22.3515  -92.5985 C.3       4 GLC5        0.0000 
     84 CA         53.8890  -24.1870  -92.1360 C.3      12 GLL5        0.0000 
     85 CA         52.7650  -25.1280  -93.6250 C.3       4 GLC5        0.0000 
     86 CA         55.0665  -22.9920  -90.7520 C.3       4 GLC5        0.0000 
     87 CA         52.1555  -16.3345  -92.1005 C.3       4 GLC5        0.0000 
     88 CA         51.1720  -16.8490  -93.7600 C.3       8 GLP5        0.0000 
     89 CA         51.6127  -17.0205  -87.3843 C.3       4 GLC5        0.0000 
     90 CA         50.3780  -16.4060  -86.2700 C.3       8 GLP5        0.0000 
     91 CA         50.7775  -19.4588  -87.8438 C.3       4 GLC5        0.0000 
     92 CA         52.3130  -18.2320  -88.0850 C.3      12 GLL5        0.0000 
     93 CA         48.9510  -19.8970  -87.2550 C.3       8 GLP5        0.0000 
@<TRIPOS>BOND
@<TRIPOS>SUBSTRUCTURE
     1 ALC1        1 GROUP        1 X    ALC  0     ROOT ALC X 1
     2 SEC2       20 GROUP        1 X    SEC  0     **** SEC X 2
     3 LYC4       17 GROUP        1 X    LYC  0     **** LYC X 4
     4 GLC5        6 GROUP        1 X    GLC  0     **** GLC X 6
     5 ALP1        3 GROUP        1 Y    ALP  0     ROOT ALP Y 8
     6 SEP2       22 GROUP        1 Y    SEP  0     **** SEP Y 9
     7 LYP4       19 GROUP        1 Y    LYP  0     **** LYP Y 11
     8 GLP5        8 GROUP        1 Y    GLP  0     **** GLP Y 13
     9 ALL1        2 GROUP        1 Z    ALL  0     ROOT ALL Z 15
    10 SEL2       21 GROUP        1 Z    SEL  0     **** SEL Z 16
    11 LYL4       18 GROUP        1 Z    LYL  0     **** LYL Z 18
    12 GLL5        7 GROUP        1 Z    GLL  0     **** GLL Z 20
@<TRIPOS>SET

