#    Name: 2y1x_SAH_5_ligand
#    Modification time : Tue Mar 25 07:26:08 2014

@<TRIPOS>MOLECULE
2y1x_SAH_5_ligand
   45    47     1     0     0
SMALL
NO_CHARGES


@<TRIPOS>ATOM
      1 N          54.9850  -15.7300  -91.0210 N.4       1 SAH1001     0.0000 
      2 CA         53.5680  -15.2460  -90.7250 C.3       1 SAH1001     0.0000 
      3 CB         52.7100  -16.3940  -90.1570 C.3       1 SAH1001     0.0000 
      4 CG         53.3820  -17.0380  -88.9120 C.3       1 SAH1001     0.0000 
      5 SD         52.3130  -18.2320  -88.0850 S.3       1 SAH1001     0.0000 
      6 C          53.6480  -14.0290  -89.7530 C.2       1 SAH1001     0.0000 
      7 O          54.7300  -13.9020  -89.1060 O.co2     1 SAH1001     0.0000 
      8 OXT        52.6110  -13.3400  -89.7360 O.co2     1 SAH1001     0.0000 
      9 C5'        52.8950  -19.8090  -88.7800 C.3       1 SAH1001     0.0000 
     10 C4'        52.5840  -20.0520  -90.2660 C.3       1 SAH1001     0.0000 
     11 O4'        53.4280  -21.0920  -90.7420 O.3       1 SAH1001     0.0000 
     12 C3'        51.1050  -20.4620  -90.5700 C.3       1 SAH1001     0.0000 
     13 O3'        50.5850  -19.7660  -91.7020 O.3       1 SAH1001     0.0000 
     14 C2'        51.1950  -21.9500  -90.8580 C.3       1 SAH1001     0.0000 
     15 O2'        50.1950  -22.5620  -91.6700 O.3       1 SAH1001     0.0000 
     16 C1'        52.6190  -22.0580  -91.4190 C.3       1 SAH1001     0.0000 
     17 N9         53.2600  -23.3690  -91.2270 N.pl3     1 SAH1001     0.0000 
     18 C8         53.4170  -24.1300  -90.0880 C.2       1 SAH1001     0.0000 
     19 N7         54.0570  -25.2700  -90.2390 N.2       1 SAH1001     0.0000 
     20 C5         54.3700  -25.3250  -91.5400 C.ar      1 SAH1001     0.0000 
     21 C6         55.0480  -26.2760  -92.3240 C.ar      1 SAH1001     0.0000 
     22 N6         55.5780  -27.4560  -91.8960 N.pl3     1 SAH1001     0.0000 
     23 N1         55.1750  -25.9470  -93.6700 N.ar      1 SAH1001     0.0000 
     24 C2         54.6670  -24.8010  -94.1600 C.ar      1 SAH1001     0.0000 
     25 N3         53.9800  -23.8460  -93.3950 N.ar      1 SAH1001     0.0000 
     26 C4         53.8890  -24.1870  -92.1360 C.ar      1 SAH1001     0.0000 
     27 H          53.1253  -14.9021  -91.6504 H         1 SAH1001     0.0000 
     28 H          52.5810  -17.1571  -90.9192 H         1 SAH1001     0.0000 
     29 H          51.7370  -16.0066  -89.8685 H         1 SAH1001     0.0000 
     30 H          53.5906  -16.3272  -88.1406 H         1 SAH1001     0.0000 
     31 H          54.2441  -17.6195  -89.1618 H         1 SAH1001     0.0000 
     32 H          52.4252  -20.5364  -88.1228 H         1 SAH1001     0.0000 
     33 H          53.9608  -19.7730  -88.5690 H         1 SAH1001     0.0000 
     34 H          52.7831  -19.1326  -90.8123 H         1 SAH1001     0.0000 
     35 H          50.5467  -20.3229  -89.6812 H         1 SAH1001     0.0000 
     36 H          51.2688  -22.4389  -89.8532 H         1 SAH1001     0.0000 
     37 H          52.5828  -21.8165  -92.4756 H         1 SAH1001     0.0000 
     38 H          53.0489  -23.8026  -89.1990 H         1 SAH1001     0.0000 
     39 H          54.7822  -24.5829  -95.1961 H         1 SAH1001     0.0000 
     40 H          55.5573  -14.9987  -91.3920 H         1 SAH1001     0.0000 
     41 H          55.4407  -16.0702  -90.1984 H         1 SAH1001     0.0000 
     42 H          54.9913  -16.4744  -91.6887 H         1 SAH1001     0.0000 
     43 H          51.2180  -19.9750  -92.4474 H         1 SAH1001     0.0000 
     44 H          50.2818  -22.1213  -92.5634 H         1 SAH1001     0.0000 
     45 H          56.1811  -27.7524  -92.6365 H         1 SAH1001     0.0000 
@<TRIPOS>BOND
     1    2    1 1    
     2   40    1 1    
     3   41    1 1    
     4   42    1 1    
     5    3    2 1    
     6    6    2 1    
     7   27    2 1    
     8    4    3 1    
     9   28    3 1    
    10   29    3 1    
    11    5    4 1    
    12   30    4 1    
    13   31    4 1    
    14    9    5 1    
    15    7    6 ar   
    16    8    6 ar   
    17   10    9 1    
    18   32    9 1    
    19   33    9 1    
    20   11   10 1    
    21   12   10 1    
    22   34   10 1    
    23   16   11 1    
    24   13   12 1    
    25   14   12 1    
    26   35   12 1    
    27   43   13 1    
    28   15   14 1    
    29   16   14 1    
    30   36   14 1    
    31   44   15 1    
    32   17   16 1    
    33   37   16 1    
    34   18   17 1    
    35   26   17 1    
    36   19   18 2    
    37   38   18 1    
    38   20   19 1    
    39   21   20 ar   
    40   26   20 ar   
    41   22   21 1    
    42   23   21 ar   
    43   45   22 1    
    44   24   23 ar   
    45   25   24 ar   
    46   39   24 1    
    47   26   25 ar   
@<TRIPOS>SUBSTRUCTURE
     1 SAH1001     1 GROUP   
@<TRIPOS>SET

