#    Name: 4m48_21B_1_INTS_M
#    Modification time : Tue Apr  8 00:13:32 2014

@<TRIPOS>MOLECULE
4m48_21B_1_INTS_M
   53     0     3     0     0
SMALL
NO_CHARGES


@<TRIPOS>ATOM
      1 CA        -41.8040   -3.2130   51.5200 C.3       1 GLC5        0.0000 
      2 CA        -43.0980   -1.5900   52.1250 C.3       3 GLL5        0.0000 
      3 CA        -40.5100   -4.8360   50.9150 C.3       2 GLP5        0.0000 
      4 CA        -44.3680   -0.1990   50.9540 C.3       1 GLC5        0.0000 
      5 CA        -45.6380    1.1920   49.7830 C.3       2 GLP5        0.0000 
      6 CA        -41.9520   -1.4680   50.2890 C.3       1 GLC5        0.0000 
      7 CA        -40.8060   -1.3460   48.4530 C.3       2 GLP5        0.0000 
      8 CA        -44.8330   -2.4940   55.4560 C.3       1 GLC5        0.0000 
      9 CA        -42.9720   -2.5550   54.4310 C.3       3 GLL5        0.0000 
     10 CA        -46.6940   -2.4330   56.4810 C.3       2 GLP5        0.0000 
     11 CA        -34.8710   -3.7395   56.6230 C.3       1 GLC5        0.0000 
     12 CA        -36.9660   -3.9370   57.2800 C.3       3 GLL5        0.0000 
     13 CA        -32.7760   -3.5420   55.9660 C.3       2 GLP5        0.0000 
     14 CA        -34.6475   -3.2020   55.5450 C.3       1 GLC5        0.0000 
     15 CA        -36.5190   -2.8620   55.1240 C.3       3 GLL5        0.0000 
     16 CA        -36.0615   -1.7710   56.7820 C.3       1 GLC5        0.0000 
     17 CA        -35.6040   -0.6800   58.4400 C.3       2 GLP5        0.0000 
     18 CA        -37.5015   -1.6660   52.3285 C.3       1 GLC5        0.0000 
     19 CA        -37.1270   -2.2430   53.8760 C.3       3 GLL5        0.0000 
     20 CA        -37.8760   -1.0890   50.7810 C.3       2 GLP5        0.0000 
     21 CA        -34.6170    0.3615   53.7765 C.3       1 GLC5        0.0000 
     22 CA        -36.7100    0.2520   53.6860 C.3       3 GLL5        0.0000 
     23 CA        -32.5240    0.4710   53.8670 C.3       2 GLP5        0.0000 
     24 CA        -42.9940   -4.0435   55.7970 C.3       1 GLC5        0.0000 
     25 CA        -41.6120   -3.0090   54.9610 C.3       3 GLL5        0.0000 
     26 CA        -43.6960   -5.3050   56.8980 C.3       2 GLP5        0.0000 
     27 CA        -40.9988   -3.7717   53.4793 C.3       1 GLC5        0.0000 
     28 CA        -40.5480   -5.1980   52.2490 C.3       2 GLP5        0.0000 
     29 CA        -38.0622   -0.4000   56.9081 C.3       1 GLC5        0.0000 
     30 CA        -39.4070   -1.7540   55.3160 C.3       3 GLL5        0.0000 
     31 CA        -37.0950   -0.5860   58.6860 C.3       2 GLP5        0.0000 
     32 CA        -36.4495    1.0012   55.8657 C.3       1 GLC5        0.0000 
     33 CA        -38.2710    1.7950   54.7120 C.3       3 GLL5        0.0000 
     34 CA        -35.2080    0.3280   57.3880 C.3       2 GLP5        0.0000 
     35 CA        -38.1312   -1.7003   57.8053 C.3       1 GLC5        0.0000 
     36 CA        -38.7940   -2.6520   56.3600 C.3       3 GLL5        0.0000 
     37 CA        -39.3368   -2.3163   59.6677 C.3       1 GLC5        0.0000 
     38 CA        -39.5410   -2.9770   57.4890 C.3       3 GLL5        0.0000 
     39 CA        -39.3930   -1.2500   61.3450 C.3       2 GLP5        0.0000 
     40 CA        -37.7335   -2.3083   58.5643 C.3       1 GLC5        0.0000 
     41 CA        -39.0200   -3.7880   58.4920 C.3       3 GLL5        0.0000 
     42 CA        -39.5185   -5.6418   58.9638 C.3       1 GLC5        0.0000 
     43 CA        -40.6650   -7.2530   59.4850 C.3       2 GLP5        0.0000 
     44 CA        -37.1685   -5.6405   56.9038 C.3       1 GLC5        0.0000 
     45 CA        -37.7240   -4.2730   58.3930 C.3       3 GLL5        0.0000 
     46 CA        -36.9920   -7.1760   55.9710 C.3       2 GLP5        0.0000 
     47 CA        -37.1595   -2.0607   57.7293 C.3       1 GLC5        0.0000 
     48 CA        -36.9962   -5.0870   55.8327 C.3       1 GLC5        0.0000 
     49 CA        -37.4820   -3.1340   56.2650 C.3       3 GLL5        0.0000 
     50 CA        -36.1530    0.0260   55.6522 C.3       1 GLC5        0.0000 
     51 CA        -37.4860   -0.8040   54.1470 C.3       3 GLL5        0.0000 
     52 CA        -35.7472    2.0361   54.7234 C.3       1 GLC5        0.0000 
     53 CA        -34.2940    3.1090   55.4320 C.3       2 GLP5        0.0000 
@<TRIPOS>BOND
@<TRIPOS>SUBSTRUCTURE
     1 GLC5        1 GROUP        1 X    GLC  0     ROOT GLC X 6
     2 GLP5        3 GROUP        1 Y    GLP  0     ROOT GLP Y 13
     3 GLL5        2 GROUP        1 Z    GLL  0     ROOT GLL Z 20
@<TRIPOS>SET

