#    Name: 4m48_21B_1_ligand
#    Modification time : Tue Apr  8 00:13:32 2014

@<TRIPOS>MOLECULE
4m48_21B_1_ligand
   40    42     1     0     0
SMALL
NO_CHARGES


@<TRIPOS>ATOM
      1 C16       -43.0980   -1.5900   52.1250 C.3       1 21B704      0.0000 
      2 N         -43.0980   -2.7380   53.0010 N.4       1 21B704      0.0000 
      3 C15       -42.9720   -2.5550   54.4310 C.3       1 21B704      0.0000 
      4 C14       -41.6120   -3.0090   54.9610 C.3       1 21B704      0.0000 
      5 C13       -40.6070   -1.9090   54.7230 C.2       1 21B704      0.0000 
      6 C4        -39.4070   -1.7540   55.3160 C.2       1 21B704      0.0000 
      7 C3        -38.6270   -0.5640   54.8750 C.ar      1 21B704      0.0000 
      8 C17       -39.0420    0.7310   55.1650 C.ar      1 21B704      0.0000 
      9 C18       -38.2710    1.7950   54.7120 C.ar      1 21B704      0.0000 
     10 C         -37.1110    1.5540   53.9750 C.ar      1 21B704      0.0000 
     11 C5        -38.7940   -2.6520   56.3600 C.ar      1 21B704      0.0000 
     12 C10       -39.5410   -2.9770   57.4890 C.ar      1 21B704      0.0000 
     13 C9        -39.0200   -3.7880   58.4920 C.ar      1 21B704      0.0000 
     14 C8        -37.7240   -4.2730   58.3930 C.ar      1 21B704      0.0000 
     15 C7        -36.9660   -3.9370   57.2800 C.ar      1 21B704      0.0000 
     16 C6        -37.4820   -3.1340   56.2650 C.ar      1 21B704      0.0000 
     17 C11       -36.5190   -2.8620   55.1240 C.3       1 21B704      0.0000 
     18 C12       -37.1270   -2.2430   53.8760 C.3       1 21B704      0.0000 
     19 C2        -37.4860   -0.8040   54.1470 C.ar      1 21B704      0.0000 
     20 C1        -36.7100    0.2520   53.6860 C.ar      1 21B704      0.0000 
     21 H         -43.7511   -3.1214   54.9729 H         1 21B704      0.0000 
     22 H         -43.1041   -1.4932   54.7076 H         1 21B704      0.0000 
     23 H         -41.3084   -3.9057   54.4370 H         1 21B704      0.0000 
     24 H         -41.6938   -3.2110   56.0209 H         1 21B704      0.0000 
     25 H         -40.9401   -1.2011   53.9898 H         1 21B704      0.0000 
     26 H         -39.8941    0.8963   55.6988 H         1 21B704      0.0000 
     27 H         -38.5537    2.7616   54.9189 H         1 21B704      0.0000 
     28 H         -36.5450    2.3497   53.6410 H         1 21B704      0.0000 
     29 H         -40.5052   -2.6068   57.5837 H         1 21B704      0.0000 
     30 H         -39.5989   -4.0279   59.3091 H         1 21B704      0.0000 
     31 H         -37.3341   -4.8672   59.1265 H         1 21B704      0.0000 
     32 H         -35.9930   -4.2905   57.1998 H         1 21B704      0.0000 
     33 H         -36.0192   -3.8155   54.8419 H         1 21B704      0.0000 
     34 H         -35.7060   -2.1971   55.4921 H         1 21B704      0.0000 
     35 H         -38.0195   -2.7981   53.5992 H         1 21B704      0.0000 
     36 H         -36.4072   -2.2949   53.0632 H         1 21B704      0.0000 
     37 H         -35.8627    0.0788   53.1462 H         1 21B704      0.0000 
     38 H         -42.2505   -1.0647   52.2012 H         1 21B704      0.0000 
     39 H         -43.1933   -1.8550   51.1655 H         1 21B704      0.0000 
     40 H         -43.8502   -0.9646   52.3324 H         1 21B704      0.0000 
@<TRIPOS>BOND
     1    2    1 1    
     2   38    1 1    
     3   39    1 1    
     4   40    1 1    
     5    3    2 1    
     6    4    3 1    
     7   21    3 1    
     8   22    3 1    
     9    5    4 1    
    10   23    4 1    
    11   24    4 1    
    12    6    5 2    
    13   25    5 1    
    14    7    6 1    
    15   11    6 1    
    16    8    7 ar   
    17   19    7 ar   
    18    9    8 ar   
    19   26    8 1    
    20   10    9 ar   
    21   27    9 1    
    22   20   10 ar   
    23   28   10 1    
    24   12   11 ar   
    25   16   11 ar   
    26   13   12 ar   
    27   29   12 1    
    28   14   13 ar   
    29   30   13 1    
    30   15   14 ar   
    31   31   14 1    
    32   16   15 ar   
    33   32   15 1    
    34   17   16 1    
    35   18   17 1    
    36   33   17 1    
    37   34   17 1    
    38   19   18 1    
    39   35   18 1    
    40   36   18 1    
    41   20   19 ar   
    42   37   20 1    
@<TRIPOS>SUBSTRUCTURE
     1 21B704      1 GROUP   
@<TRIPOS>SET

