#    Name: 1vc2_NAD_1_INTS_M
#    Modification time : Tue Mar 25 07:40:00 2014

@<TRIPOS>MOLECULE
1vc2_NAD_1_INTS_M
   69     0     9     0     0
SMALL
NO_CHARGES


@<TRIPOS>ATOM
      1 N          36.1865   -3.5275  -56.2485 N.am      2 SEC2        0.0000 
      2 N          37.5560   -3.6240  -55.7360 N.am      8 SEL2        0.0000 
      3 N          34.8170   -3.4310  -56.7610 N.am      5 SEP2        0.0000 
      4 CA         34.8220   -4.0740  -50.7765 C.3       3 GLC5        0.0000 
      5 CA         36.3690   -3.5110  -51.9580 C.3       9 GLL5        0.0000 
      6 CA         33.2750   -4.6370  -49.5950 C.3       6 GLP5        0.0000 
      7 CA         35.7650   -2.4330  -53.3145 C.3       3 GLC5        0.0000 
      8 CA         37.2630   -2.2420  -52.0630 C.3       9 GLL5        0.0000 
      9 CA         34.2670   -2.6240  -54.5660 C.3       6 GLP5        0.0000 
     10 O          35.3955   -0.9030  -51.2785 O.2       1 ALC1        0.0000 
     11 O          36.4960   -1.0490  -52.3270 O.2       7 ALL1        0.0000 
     12 O          34.2950   -0.7570  -50.2300 O.2       4 ALP1        0.0000 
     13 CA         35.1400   -3.8075  -49.7235 C.3       3 GLC5        0.0000 
     14 CA         37.0050   -2.9780  -49.8520 C.3       9 GLL5        0.0000 
     15 CA         36.5975   -5.1010  -49.6440 C.3       3 GLC5        0.0000 
     16 CA         36.1900   -7.2240  -49.4360 C.3       6 GLP5        0.0000 
     17 CA         38.6195   -2.3660  -46.1865 C.3       3 GLC5        0.0000 
     18 CA         37.8060   -3.9070  -46.3910 C.3       9 GLL5        0.0000 
     19 CA         39.4330   -0.8250  -45.9820 C.3       6 GLP5        0.0000 
     20 CA         37.6200   -2.2585  -44.5210 C.3       3 GLC5        0.0000 
     21 CA         37.3170   -4.0370  -45.0310 C.3       9 GLL5        0.0000 
     22 CA         37.9230   -0.4800  -44.0110 C.3       6 GLP5        0.0000 
     23 CA         37.0440   -3.1725  -42.9815 C.3       3 GLC5        0.0000 
     24 CA         36.7710   -2.3080  -40.9320 C.3       6 GLP5        0.0000 
     25 CA         36.1635   -5.3165  -46.1810 C.3       3 GLC5        0.0000 
     26 CA         35.0100   -6.5960  -47.3310 C.3       6 GLP5        0.0000 
     27 CA         34.2345   -3.9500  -47.7290 C.3       3 GLC5        0.0000 
     28 CA         35.1940   -3.2630  -45.8630 C.3       9 GLL5        0.0000 
     29 CA         34.2850   -1.8500  -46.4100 C.3       3 GLC5        0.0000 
     30 CA         33.3760   -0.4370  -46.9570 C.3       6 GLP5        0.0000 
     31 CA         36.6215   -1.8280  -45.6970 C.3       3 GLC5        0.0000 
     32 CA         38.0490   -0.3930  -45.5310 C.3       6 GLP5        0.0000 
     33 CA         35.1020   -4.9295  -46.5970 C.3       3 GLC5        0.0000 
     34 CA         35.0745   -4.0445  -48.4765 C.3       3 GLC5        0.0000 
     35 CA         36.8740   -3.4520  -47.3580 C.3       9 GLL5        0.0000 
     36 CA         37.4615   -1.9225  -46.4445 C.3       3 GLC5        0.0000 
     37 N          34.7790   -6.0530  -56.7020 N.am      2 SEC2        0.0000 
     38 N          36.0160   -6.0770  -56.0500 N.am      8 SEL2        0.0000 
     39 N          33.5420   -6.0290  -57.3540 N.am      5 SEP2        0.0000 
     40 CA         35.4125   -8.6955  -55.8525 C.3       3 GLC5        0.0000 
     41 CA         36.7270   -8.4470  -54.1870 C.3       9 GLL5        0.0000 
     42 CA         34.0980   -8.9440  -57.5180 C.3       6 GLP5        0.0000 
     43 CA         35.5320  -10.2725  -56.5000 C.3       3 GLC5        0.0000 
     44 CA         36.9660  -11.6010  -55.4820 C.3       9 GLL5        0.0000 
     45 CA         35.6100   -9.9005  -57.6670 C.3       3 GLC5        0.0000 
     46 CA         37.1220  -10.8570  -57.8160 C.3       9 GLL5        0.0000 
     47 N          37.5280  -10.1635  -62.8010 N.am      2 SEC2        0.0000 
     48 N          37.0940  -10.2870  -61.4130 N.am      8 SEL2        0.0000 
     49 N          37.9620  -10.0400  -64.1890 N.am      5 SEP2        0.0000 
     50 CA         35.0270  -10.9775  -57.3940 C.3       3 GLC5        0.0000 
     51 CA         35.9560  -13.0110  -57.2700 C.3       9 GLL5        0.0000 
     52 CA         36.0010  -14.3660  -55.5075 C.3       3 GLC5        0.0000 
     53 CA         36.0460  -15.7210  -53.7450 C.3       6 GLP5        0.0000 
     54 CA         35.3627   -3.3330  -53.5293 C.3       3 GLC5        0.0000 
     55 CA         36.5480   -4.5730  -53.0270 C.3       9 GLL5        0.0000 
     56 CA         36.3242   -5.6330  -50.9642 C.3       3 GLC5        0.0000 
     57 CA         36.8490   -5.2938  -47.4198 C.3       3 GLC5        0.0000 
     58 CA         36.3580   -6.9080  -47.9650 C.3       6 GLP5        0.0000 
     59 CA         38.0491   -9.9143  -52.1890 C.3       3 GLC5        0.0000 
     60 CA         38.2320  -10.5260  -53.8290 C.3       9 GLL5        0.0000 
     61 CA         38.5950   -9.9700  -50.4480 C.3       6 GLP5        0.0000 
     62 CA         37.3065  -12.9473  -54.0599 C.3       3 GLC5        0.0000 
     63 CA         36.9790  -14.6830  -53.1150 C.3       6 GLP5        0.0000 
     64 CA         36.7520  -13.7665  -60.4697 C.3       3 GLC5        0.0000 
     65 CA         36.1450  -12.2490  -59.6310 C.3       9 GLL5        0.0000 
     66 CA         37.5640  -14.8330  -61.8150 C.3       6 GLP5        0.0000 
     67 CA         34.9005  -10.8265  -58.9729 C.3       3 GLC5        0.0000 
     68 CA         35.7350  -13.1510  -58.6180 C.3       9 GLL5        0.0000 
     69 CA         33.6810   -9.2480  -58.9370 C.3       6 GLP5        0.0000 
@<TRIPOS>BOND
@<TRIPOS>SUBSTRUCTURE
     1 ALC1       10 GROUP        1 X    ALC  0     ROOT ALC X 1
     2 SEC2        1 GROUP        1 X    SEC  0     **** SEC X 2
     3 GLC5        4 GROUP        1 X    GLC  0     **** GLC X 6
     4 ALP1       12 GROUP        1 Y    ALP  0     ROOT ALP Y 8
     5 SEP2        3 GROUP        1 Y    SEP  0     **** SEP Y 9
     6 GLP5        6 GROUP        1 Y    GLP  0     **** GLP Y 13
     7 ALL1       11 GROUP        1 Z    ALL  0     ROOT ALL Z 15
     8 SEL2        2 GROUP        1 Z    SEL  0     **** SEL Z 16
     9 GLL5        5 GROUP        1 Z    GLL  0     **** GLL Z 20
@<TRIPOS>SET

