#    Name: 1vc2_NAD_1_ligand
#    Modification time : Tue Mar 25 07:40:00 2014

@<TRIPOS>MOLECULE
1vc2_NAD_1_ligand
   70    74     1     0     0
SMALL
NO_CHARGES


@<TRIPOS>ATOM
      1 PA         38.4260   -4.4630  -54.9240 P.3       1 NAD336      0.0000 
      2 O1A        37.5560   -3.6240  -55.7360 O.co2     1 NAD336      0.0000 
      3 O2A        39.7700   -3.8860  -54.7710 O.co2     1 NAD336      0.0000 
      4 O5B        37.9410   -4.6680  -53.4180 O.3       1 NAD336      0.0000 
      5 C5B        36.5480   -4.5730  -53.0270 C.3       1 NAD336      0.0000 
      6 C4B        36.3690   -3.5110  -51.9580 C.3       1 NAD336      0.0000 
      7 O4B        36.7080   -4.0650  -50.6500 O.3       1 NAD336      0.0000 
      8 C3B        37.2630   -2.2420  -52.0630 C.3       1 NAD336      0.0000 
      9 O3B        36.4960   -1.0490  -52.3270 O.3       1 NAD336      0.0000 
     10 C2B        37.9910   -2.2390  -50.7190 C.3       1 NAD336      0.0000 
     11 O2B        38.2280   -0.8880  -50.2620 O.3       1 NAD336      0.0000 
     12 C1B        37.0050   -2.9780  -49.8520 C.3       1 NAD336      0.0000 
     13 N9A        37.5860   -3.4110  -48.5690 N.pl3     1 NAD336      0.0000 
     14 C8A        38.8720   -3.8440  -48.2750 C.2       1 NAD336      0.0000 
     15 N7A        39.0660   -4.1610  -46.9620 N.2       1 NAD336      0.0000 
     16 C5A        37.8060   -3.9070  -46.3910 C.ar      1 NAD336      0.0000 
     17 C6A        37.3170   -4.0370  -45.0310 C.ar      1 NAD336      0.0000 
     18 N6A        38.0770   -4.4490  -44.0190 N.pl3     1 NAD336      0.0000 
     19 N1A        35.9830   -3.6960  -44.8060 N.ar      1 NAD336      0.0000 
     20 C2A        35.1940   -3.2630  -45.8630 C.ar      1 NAD336      0.0000 
     21 N3A        35.5490   -3.1100  -47.1380 N.ar      1 NAD336      0.0000 
     22 C4A        36.8740   -3.4520  -47.3580 C.ar      1 NAD336      0.0000 
     23 O3         38.4470   -5.9060  -55.5520 O.3       1 NAD336      0.0000 
     24 PN         37.2770   -6.8200  -56.1860 P.3       1 NAD336      0.0000 
     25 O1N        37.6660   -7.0560  -57.5990 O.co2     1 NAD336      0.0000 
     26 O2N        36.0160   -6.0770  -56.0500 O.co2     1 NAD336      0.0000 
     27 O5D        37.2740   -8.2460  -55.5020 O.3       1 NAD336      0.0000 
     28 C5D        36.7270   -8.4470  -54.1870 C.3       1 NAD336      0.0000 
     29 C4D        36.8220   -9.9350  -53.8750 C.3       1 NAD336      0.0000 
     30 O4D        36.0990  -10.6450  -54.9280 O.3       1 NAD336      0.0000 
     31 C3D        38.2320  -10.5260  -53.8290 C.3       1 NAD336      0.0000 
     32 O3D        38.4290  -11.4940  -52.7860 O.3       1 NAD336      0.0000 
     33 C2D        38.3720  -11.1180  -55.2260 C.3       1 NAD336      0.0000 
     34 O2D        39.3910  -12.1470  -55.2530 O.3       1 NAD336      0.0000 
     35 C1D        36.9660  -11.6010  -55.4820 C.3       1 NAD336      0.0000 
     36 N1N        36.6620  -11.8290  -56.9290 N.pl3     1 NAD336      0.0000 
     37 C2N        37.1220  -10.8570  -57.8160 C.ar      1 NAD336      0.0000 
     38 C3N        36.8650  -11.0690  -59.1680 C.ar      1 NAD336      0.0000 
     39 C7N        37.3280  -10.0670  -60.2350 C.2       1 NAD336      0.0000 
     40 O7N        37.0940  -10.2870  -61.4130 O.2       1 NAD336      0.0000 
     41 N7N        37.9830   -8.9700  -59.8660 N.am      1 NAD336      0.0000 
     42 C4N        36.1450  -12.2490  -59.6310 C.ar      1 NAD336      0.0000 
     43 C5N        35.7350  -13.1510  -58.6180 C.ar      1 NAD336      0.0000 
     44 C6N        35.9560  -13.0110  -57.2700 C.ar      1 NAD336      0.0000 
     45 H          36.1856   -5.5285  -52.6273 H         1 NAD336      0.0000 
     46 H          35.9160   -4.3088  -53.8842 H         1 NAD336      0.0000 
     47 H          35.3378   -3.1781  -51.9288 H         1 NAD336      0.0000 
     48 H          37.9953   -2.4539  -52.8261 H         1 NAD336      0.0000 
     49 H          38.8645   -2.8204  -50.8205 H         1 NAD336      0.0000 
     50 H          36.1563   -2.3515  -49.7094 H         1 NAD336      0.0000 
     51 H          39.5795   -3.9127  -48.9677 H         1 NAD336      0.0000 
     52 H          39.0278   -4.6640  -44.2419 H         1 NAD336      0.0000 
     53 H          37.6287   -4.5064  -43.1270 H         1 NAD336      0.0000 
     54 H          34.1612   -3.0242  -45.5960 H         1 NAD336      0.0000 
     55 H          35.6821   -8.1553  -54.1378 H         1 NAD336      0.0000 
     56 H          37.2878   -7.9047  -53.4316 H         1 NAD336      0.0000 
     57 H          36.3309  -10.1307  -52.9300 H         1 NAD336      0.0000 
     58 H          38.9195   -9.6941  -53.7720 H         1 NAD336      0.0000 
     59 H          38.5750  -10.3029  -55.8897 H         1 NAD336      0.0000 
     60 H          36.8507  -12.5551  -54.9470 H         1 NAD336      0.0000 
     61 H          37.6154  -10.0426  -57.4944 H         1 NAD336      0.0000 
     62 H          38.1738   -8.8793  -58.8886 H         1 NAD336      0.0000 
     63 H          38.2256   -8.3348  -60.5992 H         1 NAD336      0.0000 
     64 H          35.9661  -12.3911  -60.5849 H         1 NAD336      0.0000 
     65 H          35.2037  -14.0188  -58.9524 H         1 NAD336      0.0000 
     66 H          35.6625  -13.6550  -56.5881 H         1 NAD336      0.0000 
     67 H          35.7812   -1.0410  -51.6277 H         1 NAD336      0.0000 
     68 H          37.6484   -0.3138  -50.8403 H         1 NAD336      0.0000 
     69 H          39.1471  -11.1079  -52.2070 H         1 NAD336      0.0000 
     70 H          39.4013  -12.5252  -54.3273 H         1 NAD336      0.0000 
@<TRIPOS>BOND
     1    2    1 ar   
     2    3    1 ar   
     3    4    1 1    
     4   23    1 1    
     5    5    4 1    
     6    6    5 1    
     7   45    5 1    
     8   46    5 1    
     9    7    6 1    
    10    8    6 1    
    11   47    6 1    
    12   12    7 1    
    13    9    8 1    
    14   10    8 1    
    15   48    8 1    
    16   67    9 1    
    17   11   10 1    
    18   12   10 1    
    19   49   10 1    
    20   68   11 1    
    21   13   12 1    
    22   50   12 1    
    23   14   13 1    
    24   22   13 1    
    25   15   14 2    
    26   51   14 1    
    27   16   15 1    
    28   17   16 ar   
    29   22   16 ar   
    30   18   17 1    
    31   19   17 ar   
    32   52   18 1    
    33   53   18 1    
    34   20   19 ar   
    35   21   20 ar   
    36   54   20 1    
    37   22   21 ar   
    38   24   23 1    
    39   25   24 ar   
    40   26   24 ar   
    41   27   24 1    
    42   28   27 1    
    43   29   28 1    
    44   55   28 1    
    45   56   28 1    
    46   30   29 1    
    47   31   29 1    
    48   57   29 1    
    49   35   30 1    
    50   32   31 1    
    51   33   31 1    
    52   58   31 1    
    53   69   32 1    
    54   34   33 1    
    55   35   33 1    
    56   59   33 1    
    57   70   34 1    
    58   36   35 1    
    59   60   35 1    
    60   37   36 ar   
    61   44   36 ar   
    62   38   37 ar   
    63   61   37 1    
    64   39   38 1    
    65   42   38 ar   
    66   40   39 2    
    67   41   39 am   
    68   62   41 1    
    69   63   41 1    
    70   43   42 ar   
    71   64   42 1    
    72   44   43 ar   
    73   65   43 1    
    74   66   44 1    
@<TRIPOS>SUBSTRUCTURE
     1 NAD336      1 GROUP   
@<TRIPOS>SET

