#    Name: 4ivy_1GT_2_INTS_M
#    Modification time : Tue Mar 25 04:45:21 2014

@<TRIPOS>MOLECULE
4ivy_1GT_2_INTS_M
   76     0     9     0     0
SMALL
NO_CHARGES


@<TRIPOS>ATOM
      1 CA         14.8510   12.8490   31.6320 C.3       3 GLC5        0.0000 
      2 CA         14.7090   11.1980   31.4590 C.3       9 GLL5        0.0000 
      3 CA         14.9930   14.5000   31.8050 C.3       6 GLP5        0.0000 
      4 CA         16.4795    8.7315   30.9325 C.3       3 GLC5        0.0000 
      5 CA         14.6720    8.6120   30.9100 C.3       9 GLL5        0.0000 
      6 CA         18.2870    8.8510   30.9550 C.3       6 GLP5        0.0000 
      7 CA         12.5840    6.8665   28.8105 C.3       3 GLC5        0.0000 
      8 CA         13.8440    7.4320   30.3320 C.3       9 GLL5        0.0000 
      9 CA         11.3240    6.3010   27.2890 C.3       6 GLP5        0.0000 
     10 CA         14.1120    8.4515   28.6535 C.3       3 GLC5        0.0000 
     11 CA         14.3800    9.4710   26.9750 C.3       6 GLP5        0.0000 
     12 N           5.3420    8.1095   35.4035 N.am      2 SEC2        0.0000 
     13 N           5.7680    6.9200   35.1390 N.am      8 SEL2        0.0000 
     14 N           4.9160    9.2990   35.6680 N.am      5 SEP2        0.0000 
     15 O           5.7840    5.8825   35.8650 O.2       1 ALC1        0.0000 
     16 O           5.7680    6.9200   35.1390 O.2       7 ALL1        0.0000 
     17 O           5.8000    4.8450   36.5910 O.2       4 ALP1        0.0000 
     18 O           4.7380    6.2090   35.8145 O.2       1 ALC1        0.0000 
     19 O           3.7080    5.4980   36.4900 O.2       4 ALP1        0.0000 
     20 CA          6.7370    8.8565   32.4550 C.3       3 GLC5        0.0000 
     21 CA          7.3940    7.2800   33.1820 C.3       9 GLL5        0.0000 
     22 CA          6.0800   10.4330   31.7280 C.3       6 GLP5        0.0000 
     23 CA          7.5560    7.2425   30.6740 C.3       3 GLC5        0.0000 
     24 CA          8.7660    7.0760   32.5600 C.3       9 GLL5        0.0000 
     25 CA          6.3460    7.4090   28.7880 C.3       6 GLP5        0.0000 
     26 CA          8.6425    9.0470   32.1710 C.3       3 GLC5        0.0000 
     27 CA          8.5190   11.0180   31.7820 C.3       6 GLP5        0.0000 
     28 CA         14.3075    2.4110   35.0705 C.3       3 GLC5        0.0000 
     29 CA         12.9980    2.7550   33.3870 C.3       9 GLL5        0.0000 
     30 CA         15.6170    2.0670   36.7540 C.3       6 GLP5        0.0000 
     31 CA         15.1990    1.2995   32.6490 C.3       3 GLC5        0.0000 
     32 CA         14.1900    3.0800   32.5120 C.3       9 GLL5        0.0000 
     33 CA         16.2080   -0.4810   32.7860 C.3       6 GLP5        0.0000 
     34 CA         16.1775    2.6330   32.7535 C.3       3 GLC5        0.0000 
     35 CA         18.1650    2.1860   32.9950 C.3       6 GLP5        0.0000 
     36 CA         17.3195    1.9185   30.7430 C.3       3 GLC5        0.0000 
     37 CA         16.4620    3.6150   30.9860 C.3       9 GLL5        0.0000 
     38 CA         18.1770    0.2220   30.5000 C.3       6 GLP5        0.0000 
     39 CA         17.1945    7.3695   31.1015 C.3       3 GLC5        0.0000 
     40 CA         16.1020    5.8880   31.2480 C.3       9 GLL5        0.0000 
     41 CA         13.4150    3.6915   28.6605 C.3       3 GLC5        0.0000 
     42 CA         15.0960    4.7720   29.5100 C.3       9 GLL5        0.0000 
     43 CA         11.7340    2.6110   27.8110 C.3       6 GLP5        0.0000 
     44 CA         15.9665    6.2550   28.0705 C.3       3 GLC5        0.0000 
     45 CA         16.8370    7.7380   26.6310 C.3       6 GLP5        0.0000 
     46 CA         13.1253   11.2503   32.6155 C.3       3 GLC5        0.0000 
     47 CA         14.0600   10.0930   30.7790 C.3       9 GLL5        0.0000 
     48 CA         11.8660   11.8550   34.1120 C.3       6 GLP5        0.0000 
     49 CA         16.3357    9.7483   31.0370 C.3       3 GLC5        0.0000 
     50 CA         12.7563   10.8577   30.0230 C.3       3 GLC5        0.0000 
     51 CA         11.1280   11.0700   28.9270 C.3       6 GLP5        0.0000 
     52 CA         14.3730    9.4117   28.9098 C.3       3 GLC5        0.0000 
     53 CA          9.2160    3.9010   35.4715 C.3       3 GLC5        0.0000 
     54 CA          9.5160    5.7510   34.7000 C.3       9 GLL5        0.0000 
     55 CA          9.5690    1.9570   35.9440 C.3       6 GLP5        0.0000 
     56 CA          8.0785    4.0405   34.0105 C.3       3 GLC5        0.0000 
     57 CA          7.2940    2.2360   33.0220 C.3       6 GLP5        0.0000 
     58 CA          7.7543    6.8287   36.8840 C.3       3 GLC5        0.0000 
     59 CA          8.2100    5.9390   35.2980 C.3       9 GLL5        0.0000 
     60 CA          7.8500    7.3270   38.8520 C.3       6 GLP5        0.0000 
     61 CA          7.0901    5.5263   32.4330 C.3       3 GLC5        0.0000 
     62 CA          7.1070    6.7220   34.5340 C.3       9 GLL5        0.0000 
     63 CA          6.1720    4.0140   31.6570 C.3       6 GLP5        0.0000 
     64 CA         11.0155    2.5900   34.6947 C.3       3 GLC5        0.0000 
     65 CA         11.9260    3.6910   33.5040 C.3       9 GLL5        0.0000 
     66 CA         17.0747    3.1680   31.9582 C.3       3 GLC5        0.0000 
     67 CA         16.7166    5.3880   32.9054 C.3       3 GLC5        0.0000 
     68 CA         15.5070    4.6850   30.8570 C.3       9 GLL5        0.0000 
     69 CA         17.3900    5.7570   34.7260 C.3       6 GLP5        0.0000 
     70 CA         15.3966    4.1960   28.4469 C.3       3 GLC5        0.0000 
     71 CA         15.2530    3.9310   26.6780 C.3       6 GLP5        0.0000 
     72 CA         17.4361    4.3085   29.3964 C.3       3 GLC5        0.0000 
     73 CA         19.3320    4.1560   28.5770 C.3       6 GLP5        0.0000 
     74 CA         11.3582    4.0630   31.0740 C.3       3 GLC5        0.0000 
     75 CA         13.1490    5.3340   31.8860 C.3       9 GLL5        0.0000 
     76 CA         10.1640    3.2810   29.6440 C.3       6 GLP5        0.0000 
@<TRIPOS>BOND
@<TRIPOS>SUBSTRUCTURE
     1 ALC1       15 GROUP        1 X    ALC  0     ROOT ALC X 1
     2 SEC2       12 GROUP        1 X    SEC  0     **** SEC X 2
     3 GLC5        1 GROUP        1 X    GLC  0     **** GLC X 6
     4 ALP1       17 GROUP        1 Y    ALP  0     ROOT ALP Y 8
     5 SEP2       14 GROUP        1 Y    SEP  0     **** SEP Y 9
     6 GLP5        3 GROUP        1 Y    GLP  0     **** GLP Y 13
     7 ALL1       16 GROUP        1 Z    ALL  0     ROOT ALL Z 15
     8 SEL2       13 GROUP        1 Z    SEL  0     **** SEL Z 16
     9 GLL5        2 GROUP        1 Z    GLL  0     **** GLL Z 20
@<TRIPOS>SET

