#    Name: 4ivy_1GT_2_ligand
#    Modification time : Tue Mar 25 04:45:21 2014

@<TRIPOS>MOLECULE
4ivy_1GT_2_ligand
   38    40     1     0     0
SMALL
NO_CHARGES


@<TRIPOS>ATOM
      1 C01        14.7090   11.1980   31.4590 C.2       1 1GT601      0.0000 
      2 C02        14.0600   10.0930   30.7790 C.2       1 1GT601      0.0000 
      3 C03        14.6720    8.6120   30.9100 C.3       1 1GT601      0.0000 
      4 C04        13.8440    7.4320   30.3320 C.3       1 1GT601      0.0000 
      5 N05        12.9290    6.6620   31.2930 N.pl3     1 1GT601      0.0000 
      6 N06        11.6770    7.1570   31.7610 N.2       1 1GT601      0.0000 
      7 C07        11.0670    6.1780   32.6550 C.2       1 1GT601      0.0000 
      8 C08         9.8110    6.3340   33.2900 C.ar      1 1GT601      0.0000 
      9 C09         9.5160    5.7510   34.7000 C.ar      1 1GT601      0.0000 
     10 C10         8.2100    5.9390   35.2980 C.ar      1 1GT601      0.0000 
     11 C11         7.1070    6.7220   34.5340 C.ar      1 1GT601      0.0000 
     12 O12         5.7680    6.9200   35.1390 O.3       1 1GT601      0.0000 
     13 C13         7.3940    7.2800   33.1820 C.ar      1 1GT601      0.0000 
     14 C14         8.7660    7.0760   32.5600 C.ar      1 1GT601      0.0000 
     15 O15         9.0550    7.6120   31.2550 O.3       1 1GT601      0.0000 
     16 C16        11.9860    5.0210   32.7400 C.ar      1 1GT601      0.0000 
     17 C17        11.9260    3.6910   33.5040 C.ar      1 1GT601      0.0000 
     18 C18        12.9980    2.7550   33.3870 C.ar      1 1GT601      0.0000 
     19 C19        14.1900    3.0800   32.5120 C.ar      1 1GT601      0.0000 
     20 C20        14.2490    4.3750   31.7700 C.ar      1 1GT601      0.0000 
     21 C21        15.5070    4.6850   30.8570 C.3       1 1GT601      0.0000 
     22 F22        16.4620    3.6150   30.9860 F         1 1GT601      0.0000 
     23 F23        16.1020    5.8880   31.2480 F         1 1GT601      0.0000 
     24 F24        15.0960    4.7720   29.5100 F         1 1GT601      0.0000 
     25 C25        13.1490    5.3340   31.8860 C.ar      1 1GT601      0.0000 
     26 H          13.2527   10.1777   30.2282 H         1 1GT601      0.0000 
     27 H          14.8585    8.4317   31.9883 H         1 1GT601      0.0000 
     28 H          15.6693    8.6285   30.4251 H         1 1GT601      0.0000 
     29 H          14.5545    6.7115   29.8602 H         1 1GT601      0.0000 
     30 H          13.2271    7.8250   29.4885 H         1 1GT601      0.0000 
     31 H          10.2489    5.2596   35.1509 H         1 1GT601      0.0000 
     32 H           7.9745    5.5843   36.1959 H         1 1GT601      0.0000 
     33 H           6.7054    7.7814   32.6826 H         1 1GT601      0.0000 
     34 H          11.1200    3.5248   34.0686 H         1 1GT601      0.0000 
     35 H          12.9970    1.8764   33.8668 H         1 1GT601      0.0000 
     36 H          14.9312    2.4238   32.4368 H         1 1GT601      0.0000 
     37 H           5.4424    5.9992   35.3537 H         1 1GT601      0.0000 
     38 H          10.0119    7.9007   31.2829 H         1 1GT601      0.0000 
@<TRIPOS>BOND
     1    2    1 2    
     2    3    2 1    
     3   26    2 1    
     4    4    3 1    
     5   27    3 1    
     6   28    3 1    
     7    5    4 1    
     8   29    4 1    
     9   30    4 1    
    10    6    5 1    
    11   25    5 1    
    12    7    6 2    
    13    8    7 1    
    14   16    7 1    
    15    9    8 ar   
    16   14    8 ar   
    17   10    9 ar   
    18   31    9 1    
    19   11   10 ar   
    20   32   10 1    
    21   12   11 1    
    22   13   11 ar   
    23   37   12 1    
    24   14   13 ar   
    25   33   13 1    
    26   15   14 1    
    27   38   15 1    
    28   17   16 ar   
    29   25   16 ar   
    30   18   17 ar   
    31   34   17 1    
    32   19   18 ar   
    33   35   18 1    
    34   20   19 ar   
    35   36   19 1    
    36   21   20 1    
    37   25   20 ar   
    38   22   21 1    
    39   23   21 1    
    40   24   21 1    
@<TRIPOS>SUBSTRUCTURE
     1 1GT601      1 GROUP   
@<TRIPOS>SET

