#    Name: 1Q83_1_CAVITY_N1_6.mol2
#    Modification time : Tue Mar 11 03:10:32 2014

@<TRIPOS>MOLECULE
1Q83_1_CAVITY_N1_6.mol2
  133     0     6     0     0
SMALL
NO_CHARGES


@<TRIPOS>ATOM
      1 NZ         44.2212   28.3114   13.4865 N.2       3 LYS4        0.0000 
      2 N          44.1660   27.3864   11.5783 N.2       2 ALA2        0.0000 
      3 N          43.2315   28.2609   12.3605 N.2       2 ALA2        0.0000 
      4 N          44.1109   26.4613    9.6701 N.2       2 ALA2        0.0000 
      5 N          43.1763   27.3358   10.4523 N.2       2 ALA2        0.0000 
      6 CZ         42.2418   28.2103   11.2345 C.ar      4 PHE5        0.0000 
      7 N          43.1212   26.4108    8.5441 N.2       2 ALA2        0.0000 
      8 CZ         42.1866   27.2853    9.3263 C.ar      4 PHE5        0.0000 
      9 CZ         41.2520   28.1598   10.1085 C.ar      4 PHE5        0.0000 
     10 N          36.2822   22.5050    4.7396 N.2       2 ALA2        0.0000 
     11 CZ         35.3477   23.3795    5.5218 C.ar      4 PHE5        0.0000 
     12 CA         34.4131   24.2540    6.3040 C.3       5 GLY6        0.0000 
     13 CA         34.3579   23.3290    4.3958 C.3       5 GLY6        0.0000 
     14 CA         33.4234   24.2035    5.1780 C.3       5 GLY6        0.0000 
     15 N          43.5359   26.1687   12.1868 N.2       2 ALA2        0.0000 
     16 CZ         42.6014   27.0432   12.9690 C.ar      4 PHE5        0.0000 
     17 CA         43.4808   25.2437   10.2786 C.3       5 GLY6        0.0000 
     18 N          42.5462   26.1182   11.0608 N.2       2 ALA2        0.0000 
     19 CZ         41.6117   26.9927   11.8430 C.ar      4 PHE5        0.0000 
     20 CA         41.5565   26.0676    9.9348 C.3       5 GLY6        0.0000 
     21 CZ         40.6219   26.9421   10.7170 C.ar      4 PHE5        0.0000 
     22 CZ         40.5668   26.0171    8.8088 C.ar      4 PHE5        0.0000 
     23 CZ         39.6322   26.8916    9.5910 C.ar      4 PHE5        0.0000 
     24 OG         38.6976   27.7661   10.3732 O.2       1 SER1        0.0000 
     25 OG         34.8830   24.9371   11.8549 O.2       1 SER1        0.0000 
     26 O          36.6970   22.2630    8.3824 O.2       2 ALA2        0.0000 
     27 O          35.7624   23.1375    9.1645 O.2       2 ALA2        0.0000 
     28 OG         34.8279   24.0120    9.9467 O.2       1 SER1        0.0000 
     29 O          36.6418   21.3379    6.4742 O.2       2 ALA2        0.0000 
     30 O          35.7073   22.2124    7.2563 O.2       2 ALA2        0.0000 
     31 DU         34.7727   23.0869    8.0385 H         6 CUB7        0.0000 
     32 CZ         33.8381   23.9614    8.8207 C.ar      4 PHE5        0.0000 
     33 N          35.6521   21.2874    5.3482 N.2       2 ALA2        0.0000 
     34 N          34.7176   22.1619    6.1303 N.2       2 ALA2        0.0000 
     35 CA         33.7830   23.0364    6.9125 C.3       5 GLY6        0.0000 
     36 CZ         32.8484   23.9109    7.6947 C.ar      4 PHE5        0.0000 
     37 CA         33.7278   22.1113    5.0043 C.3       5 GLY6        0.0000 
     38 CA         32.7933   22.9858    5.7865 C.3       5 GLY6        0.0000 
     39 CA         40.2963   23.6323   11.1519 C.3       5 GLY6        0.0000 
     40 CZ         39.3617   24.5068   11.9340 C.ar      4 PHE5        0.0000 
     41 CA         39.3066   23.5818   10.0259 C.3       5 GLY6        0.0000 
     42 CZ         38.3720   24.4563   10.8080 C.ar      4 PHE5        0.0000 
     43 O          37.3823   24.4057    9.6820 O.2       2 ALA2        0.0000 
     44 CZ         36.4477   25.2802   10.4642 C.ar      4 PHE5        0.0000 
     45 CZ         35.5131   26.1547   11.2464 C.ar      4 PHE5        0.0000 
     46 O          36.3925   24.3551    8.5560 O.2       2 ALA2        0.0000 
     47 CZ         35.4580   25.2297    9.3382 C.ar      4 PHE5        0.0000 
     48 CZ         34.5234   26.1042   10.1204 C.ar      4 PHE5        0.0000 
     49 O          36.3374   23.4301    6.6478 O.2       2 ALA2        0.0000 
     50 O          35.4028   24.3046    7.4300 O.2       2 ALA2        0.0000 
     51 CZ         34.4683   25.1791    8.2122 C.ar      4 PHE5        0.0000 
     52 CZ         41.1969   27.2347    8.2003 C.ar      4 PHE5        0.0000 
     53 O          35.5343   31.5567   10.9853 O.2       2 ALA2        0.0000 
     54 CA         35.4792   30.6316    9.0771 C.3       5 GLY6        0.0000 
     55 CA         34.5446   31.5061    9.8593 C.3       5 GLY6        0.0000 
     56 CA         34.4894   30.5811    7.9511 C.3       5 GLY6        0.0000 
     57 CZ         38.6425   26.8410    8.4650 C.ar      4 PHE5        0.0000 
     58 OG         37.7079   27.7155    9.2472 O.2       1 SER1        0.0000 
     59 OG         36.7733   28.5900   10.0294 O.2       1 SER1        0.0000 
     60 OG         35.8388   29.4645   10.8116 O.2       1 SER1        0.0000 
     61 O          34.9042   30.3390   11.5938 O.2       2 ALA2        0.0000 
     62 DU         36.7182   27.6650    8.1212 H         6 CUB7        0.0000 
     63 DU         35.7836   28.5395    8.9034 H         6 CUB7        0.0000 
     64 CA         34.8491   29.4140    9.6856 C.3       5 GLY6        0.0000 
     65 CZ         36.6630   26.7399    6.2130 C.ar      4 PHE5        0.0000 
     66 CZ         34.7939   28.4889    7.7774 C.ar      4 PHE5        0.0000 
     67 CA         33.8593   29.3634    8.5596 C.3       5 GLY6        0.0000 
     68 CZ         35.6733   26.6893    5.0870 C.ar      4 PHE5        0.0000 
     69 N          34.7387   27.5639    5.8692 N.2       2 ALA2        0.0000 
     70 CA         33.8042   28.4384    6.6514 C.3       5 GLY6        0.0000 
     71 CZ         36.5527   24.8898    2.3966 C.ar      4 PHE5        0.0000 
     72 CA         35.6181   25.7643    3.1788 C.3       5 GLY6        0.0000 
     73 CA         34.6836   26.6388    3.9610 C.3       5 GLY6        0.0000 
     74 N          41.9161   24.9005   11.6694 N.2       2 ALA2        0.0000 
     75 CA         40.9264   24.8500   10.5433 C.3       5 GLY6        0.0000 
     76 CZ         39.9918   25.7245   11.3255 C.ar      4 PHE5        0.0000 
     77 CZ         39.0021   25.6739   10.1995 C.ar      4 PHE5        0.0000 
     78 CZ         38.0675   26.5484   10.9817 C.ar      4 PHE5        0.0000 
     79 NZ         39.9706   20.3225   11.5867 N.2       3 LYS4        0.0000 
     80 CZ         39.0361   21.1970   12.3689 C.ar      4 PHE5        0.0000 
     81 O          39.9155   19.3974    9.6785 O.2       2 ALA2        0.0000 
     82 CA         38.9809   20.2719   10.4607 C.3       5 GLY6        0.0000 
     83 CZ         38.0463   21.1464   11.2429 C.ar      4 PHE5        0.0000 
     84 CA         37.9912   20.2214    9.3347 C.3       5 GLY6        0.0000 
     85 CZ         37.0566   21.0959   10.1169 C.ar      4 PHE5        0.0000 
     86 CZ         36.1221   21.9704   10.8991 C.ar      4 PHE5        0.0000 
     87 N          37.0015   20.1708    8.2087 N.2       2 ALA2        0.0000 
     88 CZ         36.0669   21.0453    8.9909 C.ar      4 PHE5        0.0000 
     89 OG         35.1323   21.9198    9.7731 O.2       1 SER1        0.0000 
     90 N          35.0772   20.9948    7.8649 N.2       2 ALA2        0.0000 
     91 DU         34.1426   21.8693    8.6471 H         6 CUB7        0.0000 
     92 N          35.0220   20.0697    5.9567 N.2       2 ALA2        0.0000 
     93 O          34.0874   20.9442    6.7389 O.2       2 ALA2        0.0000 
     94 DU         33.1529   21.8187    7.5210 H         6 CUB7        0.0000 
     95 CZ         32.2183   22.6932    8.3032 C.ar      4 PHE5        0.0000 
     96 O          33.0977   20.8937    5.6129 O.2       2 ALA2        0.0000 
     97 CZ         32.1632   21.7682    6.3950 C.ar      4 PHE5        0.0000 
     98 CA         31.2286   22.6427    7.1772 C.3       5 GLY6        0.0000 
     99 CZ         38.3508   19.0543   11.0692 C.ar      4 PHE5        0.0000 
    100 CZ         37.3611   19.0037    9.9432 C.ar      4 PHE5        0.0000 
    101 CZ         36.4265   19.8782   10.7254 C.ar      4 PHE5        0.0000 
    102 CZ         34.5022   20.7022   10.3816 C.ar      4 PHE5        0.0000 
    103 CZ         33.5125   20.6516    9.2556 C.ar      4 PHE5        0.0000 
    104 CZ         33.4573   19.7266    7.3474 C.ar      4 PHE5        0.0000 
    105 CZ         32.5228   20.6011    8.1296 C.ar      4 PHE5        0.0000 
    106 CZ         37.2380   27.0325    3.6963 C.ar      4 PHE5        0.0000 
    107 CA         33.4997   30.5305    6.8251 C.3       5 GLY6        0.0000 
    108 N          32.5100   30.4800    5.6990 N.2       2 ALA2        0.0000 
    109 CA         40.6007   21.5401   10.9782 C.3       5 GLY6        0.0000 
    110 NZ         39.6662   22.4147   11.7604 N.2       3 LYS4        0.0000 
    111 CZ         38.7316   23.2892   12.5426 C.ar      4 PHE5        0.0000 
    112 CA         38.6765   22.3641   10.6344 C.3       5 GLY6        0.0000 
    113 CZ         37.7419   23.2386   11.4166 C.ar      4 PHE5        0.0000 
    114 CZ         36.8073   24.1131   12.1987 C.ar      4 PHE5        0.0000 
    115 CA         37.6867   22.3135    9.5084 C.3       5 GLY6        0.0000 
    116 OG         36.7522   23.1881   10.2906 O.2       1 SER1        0.0000 
    117 OG         35.8176   24.0626   11.0727 O.2       1 SER1        0.0000 
    118 CZ         38.0124   25.6234    9.0735 C.ar      4 PHE5        0.0000 
    119 CZ         37.0778   26.4979    9.8557 C.ar      4 PHE5        0.0000 
    120 OG         36.1432   27.3724   10.6379 O.2       1 SER1        0.0000 
    121 OG         35.2087   28.2469   11.4201 O.2       1 SER1        0.0000 
    122 CZ         37.0226   25.5728    7.9475 C.ar      4 PHE5        0.0000 
    123 DU         36.0881   26.4473    8.7297 H         6 CUB7        0.0000 
    124 CZ         35.1535   27.3218    9.5119 C.ar      4 PHE5        0.0000 
    125 CZ         34.2190   28.1963   10.2941 C.ar      4 PHE5        0.0000 
    126 CZ         36.0329   25.5222    6.8215 C.ar      4 PHE5        0.0000 
    127 CZ         35.0984   26.3968    7.6037 C.ar      4 PHE5        0.0000 
    128 CZ         35.9778   24.5972    4.9133 C.ar      4 PHE5        0.0000 
    129 CA         35.0432   25.4717    5.6955 C.3       5 GLY6        0.0000 
    130 CA         34.1086   26.3462    6.4777 C.3       5 GLY6        0.0000 
    131 N          35.9226   23.6721    3.0051 N.2       2 ALA2        0.0000 
    132 CA         34.9880   24.5466    3.7873 C.3       5 GLY6        0.0000 
    133 O          34.0535   25.4211    4.5695 O.2       2 ALA2        0.0000 
@<TRIPOS>BOND
@<TRIPOS>SUBSTRUCTURE
     1 SER1       24 GROUP   
     2 ALA2        2 GROUP   
     3 LYS4        1 GROUP   
     4 PHE5        6 GROUP   
     5 GLY6       12 GROUP   
     6 CUB7       31 GROUP   
@<TRIPOS>SET

