#    Name: 1q83_TZ5_1_INTS_M
#    Modification time : Mon Mar 24 23:12:42 2014

@<TRIPOS>MOLECULE
1q83_TZ5_1_INTS_M
   79     0     3     0     0
SMALL
NO_CHARGES


@<TRIPOS>ATOM
      1 CA         42.0640   21.9635   12.0415 C.3       1 GLC5        0.0000 
      2 CA         40.2920   22.9460   11.6000 C.3       3 GLL5        0.0000 
      3 CA         43.8360   20.9810   12.4830 C.3       2 GLP5        0.0000 
      4 CA         32.9360   29.3785    8.2260 C.3       1 GLC5        0.0000 
      5 CA         34.5990   28.5070    7.6820 C.3       3 GLL5        0.0000 
      6 CA         31.2730   30.2500    8.7700 C.3       2 GLP5        0.0000 
      7 CA         33.0380   27.1510    6.8925 C.3       1 GLC5        0.0000 
      8 CA         31.4770   25.7950    6.1030 C.3       2 GLP5        0.0000 
      9 CA         32.8345   27.5315    5.7530 C.3       1 GLC5        0.0000 
     10 CA         34.5100   28.0660    6.3530 C.3       3 GLL5        0.0000 
     11 CA         31.1590   26.9970    5.1530 C.3       2 GLP5        0.0000 
     12 CA         33.4170   26.4235    5.9930 C.3       1 GLC5        0.0000 
     13 CA         35.3570   27.0520    5.8830 C.3       3 GLL5        0.0000 
     14 CA         37.4435   23.7150    7.2450 C.3       1 GLC5        0.0000 
     15 CA         35.6220   23.5010    8.3590 C.3       3 GLL5        0.0000 
     16 CA         39.2650   23.9290    6.1310 C.3       2 GLP5        0.0000 
     17 CA         34.3420   22.1780   11.3670 C.3       1 GLC5        0.0000 
     18 CA         33.4440   22.7850    9.4740 C.3       3 GLL5        0.0000 
     19 CA         35.2400   21.5710   13.2600 C.3       2 GLP5        0.0000 
     20 CA         32.8345   19.9835    9.3630 C.3       1 GLC5        0.0000 
     21 CA         32.1100   22.0620    9.3630 C.3       3 GLL5        0.0000 
     22 CA         33.5590   17.9050    9.3630 C.3       2 GLP5        0.0000 
     23 CA         30.6640   20.9955    8.1405 C.3       1 GLC5        0.0000 
     24 CA         29.2180   19.9290    6.9180 C.3       2 GLP5        0.0000 
     25 CA         31.4905   24.4435   10.3025 C.3       1 GLC5        0.0000 
     26 CA         31.3560   22.3370   10.6500 C.3       3 GLL5        0.0000 
     27 CA         31.6250   26.5500    9.9550 C.3       2 GLP5        0.0000 
     28 CA         33.3535   21.9300   13.5605 C.3       1 GLC5        0.0000 
     29 CA         31.4670   22.2890   13.8610 C.3       3 GLL5        0.0000 
     30 CA         29.1995   23.8560   12.2510 C.3       1 GLC5        0.0000 
     31 CA         30.2140   23.1250   14.1090 C.3       3 GLL5        0.0000 
     32 CA         28.1850   24.5870   10.3930 C.3       2 GLP5        0.0000 
     33 CA         24.8955   22.8440   14.8870 C.3       1 GLC5        0.0000 
     34 CA         24.9380   22.8280   12.8140 C.3       3 GLL5        0.0000 
     35 CA         24.8530   22.8600   16.9600 C.3       2 GLP5        0.0000 
     36 CA         25.8350   22.8095   11.1855 C.3       1 GLC5        0.0000 
     37 CA         26.7320   22.7910    9.5570 C.3       2 GLP5        0.0000 
     38 CA         25.4850   23.9355   10.7415 C.3       1 GLC5        0.0000 
     39 CA         25.1060   24.1260   12.4510 C.3       3 GLL5        0.0000 
     40 CA         25.8640   23.7450    9.0320 C.3       2 GLP5        0.0000 
     41 CA         24.1175   18.7455   14.9345 C.3       1 GLC5        0.0000 
     42 CA         26.1340   18.8120   15.1710 C.3       3 GLL5        0.0000 
     43 CA         22.1010   18.6790   14.6980 C.3       2 GLP5        0.0000 
     44 CA         27.1645   16.2675   14.7330 C.3       1 GLC5        0.0000 
     45 CA         27.0180   17.9550   15.7610 C.3       3 GLL5        0.0000 
     46 CA         27.3110   14.5800   13.7050 C.3       2 GLP5        0.0000 
     47 CA         39.8860   23.9997   13.4307 C.3       1 GLC5        0.0000 
     48 CA         39.4220   24.3840   15.3720 C.3       2 GLP5        0.0000 
     49 CA         40.4451   23.0444    9.8344 C.3       1 GLC5        0.0000 
     50 CA         39.1050   22.2690   11.2770 C.3       3 GLL5        0.0000 
     51 CA         41.9930   23.2500    8.5740 C.3       2 GLP5        0.0000 
     52 CA         40.8939   24.3949    9.5770 C.3       1 GLC5        0.0000 
     53 CA         40.4080   24.2850   11.3790 C.3       3 GLL5        0.0000 
     54 CA         33.8610   25.0620    8.7848 C.3       1 GLC5        0.0000 
     55 CA         35.8120   24.5110    9.5120 C.3       3 GLL5        0.0000 
     56 CA         32.0050   26.1180    8.6340 C.3       2 GLP5        0.0000 
     57 CA         29.8215   22.6998   10.1318 C.3       1 GLC5        0.0000 
     58 CA         27.9100   23.2000   10.2570 C.3       2 GLP5        0.0000 
     59 CA         32.4814   24.2982    8.8603 C.3       1 GLC5        0.0000 
     60 CA         27.4765   24.5203   11.7785 C.3       1 GLC5        0.0000 
     61 CA         27.2380   24.1160   13.5150 C.3       3 GLL5        0.0000 
     62 CA         23.2290   23.6175   13.2853 C.3       1 GLC5        0.0000 
     63 CA         21.4360   23.7580   13.9380 C.3       2 GLP5        0.0000 
     64 CA         26.1320   24.3959   14.7423 C.3       1 GLC5        0.0000 
     65 CA         26.3270   24.5020   16.6770 C.3       2 GLP5        0.0000 
     66 CA         25.2285   26.1863   12.3530 C.3       1 GLC5        0.0000 
     67 CA         26.2980   24.7910   12.8130 C.3       3 GLL5        0.0000 
     68 CA         24.7550   27.9140   12.0740 C.3       2 GLP5        0.0000 
     69 CA         26.0493   18.5225   13.0648 C.3       1 GLC5        0.0000 
     70 CA         26.5130   20.1200   14.6760 C.3       3 GLL5        0.0000 
     71 CA         25.7750   17.5790   11.2060 C.3       2 GLP5        0.0000 
     72 CA         28.2106   22.2194   16.8559 C.3       1 GLC5        0.0000 
     73 CA         28.4560   19.8840   16.0930 C.3       3 GLL5        0.0000 
     74 CA         28.2340   23.8250   18.2170 C.3       2 GLP5        0.0000 
     75 CA         29.9590   18.4667   16.0865 C.3       1 GLC5        0.0000 
     76 CA         31.6900   17.6620   15.8690 C.3       2 GLP5        0.0000 
     77 CA         28.5360   16.6015   16.7570 C.3       1 GLC5        0.0000 
     78 CA         28.0000   18.6590   16.5150 C.3       3 GLL5        0.0000 
     79 CA         29.5630   14.8960   17.3760 C.3       2 GLP5        0.0000 
@<TRIPOS>BOND
@<TRIPOS>SUBSTRUCTURE
     1 GLC5        1 GROUP        1 X    GLC  0     ROOT GLC X 6
     2 GLP5        3 GROUP        1 Y    GLP  0     ROOT GLP Y 13
     3 GLL5        2 GROUP        1 Z    GLL  0     ROOT GLL Z 20
@<TRIPOS>SET

