#    Name: 1q83_TZ5_1_ligand
#    Modification time : Mon Mar 24 23:12:42 2014

@<TRIPOS>MOLECULE
1q83_TZ5_1_ligand
   95   102     1     0     0
SMALL
NO_CHARGES


@<TRIPOS>ATOM
      1 N2         38.9010   20.9180   11.4650 N.pl3     1 TZ51951     0.0000 
      2 C8         39.1050   22.2690   11.2770 C.ar      1 TZ51951     0.0000 
      3 C7         40.2920   22.9460   11.6000 C.ar      1 TZ51951     0.0000 
      4 C6         40.4080   24.2850   11.3790 C.ar      1 TZ51951     0.0000 
      5 C5         39.3830   25.1300   10.7970 C.ar      1 TZ51951     0.0000 
      6 C19        38.0960   23.0700   10.7510 C.ar      1 TZ51951     0.0000 
      7 C18        38.1150   24.4880   10.5410 C.ar      1 TZ51951     0.0000 
      8 N3         37.1640   25.1420    9.7080 N.pl3     1 TZ51951     0.0000 
      9 C11        37.4200   26.2990    9.0340 C.ar      1 TZ51951     0.0000 
     10 C12        36.3970   26.9140    8.1160 C.ar      1 TZ51951     0.0000 
     11 C13        35.5300   27.9320    8.5560 C.ar      1 TZ51951     0.0000 
     12 C14        34.5990   28.5070    7.6820 C.ar      1 TZ51951     0.0000 
     13 C15        34.5100   28.0660    6.3530 C.ar      1 TZ51951     0.0000 
     14 C16        35.3570   27.0520    5.8830 C.ar      1 TZ51951     0.0000 
     15 C17        36.2810   26.4960    6.7660 C.ar      1 TZ51951     0.0000 
     16 C10        38.6980   26.9340    9.1710 C.ar      1 TZ51951     0.0000 
     17 C9         38.9430   28.2670    8.6300 C.ar      1 TZ51951     0.0000 
     18 C4         39.6940   26.3720   10.0720 C.ar      1 TZ51951     0.0000 
     19 C3         40.8030   27.2530   10.3770 C.ar      1 TZ51951     0.0000 
     20 C2         40.9740   28.5160    9.8550 C.ar      1 TZ51951     0.0000 
     21 C1         40.0270   29.0850    8.9430 C.ar      1 TZ51951     0.0000 
     22 N1         40.1590   30.3490    8.3960 N.pl3     1 TZ51951     0.0000 
     23 C20        35.8120   24.5110    9.5120 C.3       1 TZ51951     0.0000 
     24 C21        35.6220   23.5010    8.3590 C.3       1 TZ51951     0.0000 
     25 C22        34.1670   23.0050    8.1460 C.3       1 TZ51951     0.0000 
     26 C23        33.4440   22.7850    9.4740 C.3       1 TZ51951     0.0000 
     27 C24        32.1100   22.0620    9.3630 C.3       1 TZ51951     0.0000 
     28 C25        31.3560   22.3370   10.6500 C.3       1 TZ51951     0.0000 
     29 C26        31.1550   21.2470   11.6500 C.2       1 TZ51951     0.0000 
     30 N4         31.1690   21.1640   12.9950 N.pl3     1 TZ51951     0.0000 
     31 N5         30.8620   19.9550   13.4210 N.2       1 TZ51951     0.0000 
     32 N6         30.6140   19.1340   12.4430 N.2       1 TZ51951     0.0000 
     33 C27        30.7900   19.9420   11.4160 C.2       1 TZ51951     0.0000 
     34 C28        31.4670   22.2890   13.8610 C.3       1 TZ51951     0.0000 
     35 C29        30.2140   23.1250   14.1090 C.3       1 TZ51951     0.0000 
     36 N7         29.3190   22.4800   15.0820 N.pl3     1 TZ51951     0.0000 
     37 C30        28.0830   22.0010   14.6850 C.ar      1 TZ51951     0.0000 
     38 C31        27.1280   22.7250   13.9170 C.ar      1 TZ51951     0.0000 
     39 C32        27.2380   24.1160   13.5150 C.3       1 TZ51951     0.0000 
     40 C33        25.9150   22.0810   13.5640 C.ar      1 TZ51951     0.0000 
     41 C34        24.9380   22.8280   12.8140 C.3       1 TZ51951     0.0000 
     42 C35        25.1060   24.1260   12.4510 C.3       1 TZ51951     0.0000 
     43 C36        26.2980   24.7910   12.8130 C.3       1 TZ51951     0.0000 
     44 N8         25.6220   20.8320   13.9560 N.ar      1 TZ51951     0.0000 
     45 C37        26.5130   20.1200   14.6760 C.ar      1 TZ51951     0.0000 
     46 C38        26.1340   18.8120   15.1710 C.ar      1 TZ51951     0.0000 
     47 C39        27.7540   20.6860   15.1080 C.ar      1 TZ51951     0.0000 
     48 C40        28.4560   19.8840   16.0930 C.ar      1 TZ51951     0.0000 
     49 C41        28.0000   18.6590   16.5150 C.ar      1 TZ51951     0.0000 
     50 C42        27.0180   17.9550   15.7610 C.ar      1 TZ51951     0.0000 
     51 H          39.6435   20.4189   11.9118 H         1 TZ51951     0.0000 
     52 H          38.0284   20.5551   11.1382 H         1 TZ51951     0.0000 
     53 H          41.0748   22.4063   12.0087 H         1 TZ51951     0.0000 
     54 H          41.3082   24.7825   11.6423 H         1 TZ51951     0.0000 
     55 H          37.1808   22.5778   10.4609 H         1 TZ51951     0.0000 
     56 H          35.5834   28.2552    9.5316 H         1 TZ51951     0.0000 
     57 H          33.9785   29.2544    8.0140 H         1 TZ51951     0.0000 
     58 H          33.8198   28.4888    5.7205 H         1 TZ51951     0.0000 
     59 H          35.2955   26.7331    4.9214 H         1 TZ51951     0.0000 
     60 H          36.9171   25.7417    6.4301 H         1 TZ51951     0.0000 
     61 H          38.2204   28.6205    7.9425 H         1 TZ51951     0.0000 
     62 H          41.5197   26.8720   11.0539 H         1 TZ51951     0.0000 
     63 H          41.7981   29.0863   10.1129 H         1 TZ51951     0.0000 
     64 H          40.9532   30.8775    8.6960 H         1 TZ51951     0.0000 
     65 H          39.4488   30.6244    7.7481 H         1 TZ51951     0.0000 
     66 H          35.0434   25.3225    9.3815 H         1 TZ51951     0.0000 
     67 H          35.5042   23.9985   10.4654 H         1 TZ51951     0.0000 
     68 H          36.2667   22.6245    8.5449 H         1 TZ51951     0.0000 
     69 H          35.9751   23.9628    7.4206 H         1 TZ51951     0.0000 
     70 H          34.1969   22.0694    7.5876 H         1 TZ51951     0.0000 
     71 H          33.6293   23.7477    7.5566 H         1 TZ51951     0.0000 
     72 H          33.2814   23.7677    9.9567 H         1 TZ51951     0.0000 
     73 H          34.1084   22.2124   10.1493 H         1 TZ51951     0.0000 
     74 H          32.2796   21.0068    9.2593 H         1 TZ51951     0.0000 
     75 H          31.5579   22.4506    8.5280 H         1 TZ51951     0.0000 
     76 H          30.3416   22.7657   10.3716 H         1 TZ51951     0.0000 
     77 H          31.8608   23.2142   11.1658 H         1 TZ51951     0.0000 
     78 H          30.6617   19.6239   10.4382 H         1 TZ51951     0.0000 
     79 H          32.2280   22.9410   13.4140 H         1 TZ51951     0.0000 
     80 H          31.8474   21.9498   14.8327 H         1 TZ51951     0.0000 
     81 H          29.6998   23.2688   13.1492 H         1 TZ51951     0.0000 
     82 H          30.5254   24.1147   14.4694 H         1 TZ51951     0.0000 
     83 H          29.6460   22.4039   16.0445 H         1 TZ51951     0.0000 
     84 H          28.2826   24.2171   12.9782 H         1 TZ51951     0.0000 
     85 H          27.5098   24.7160   14.4927 H         1 TZ51951     0.0000 
     86 H          23.9173   22.7056   13.3799 H         1 TZ51951     0.0000 
     87 H          24.6794   22.1841   11.8676 H         1 TZ51951     0.0000 
     88 H          24.2154   24.7611   12.8260 H         1 TZ51951     0.0000 
     89 H          24.9672   24.2394   11.3086 H         1 TZ51951     0.0000 
     90 H          26.7617   25.2375   11.8523 H         1 TZ51951     0.0000 
     91 H          26.0081   25.7636   13.3673 H         1 TZ51951     0.0000 
     92 H          25.1305   18.5446   15.0549 H         1 TZ51951     0.0000 
     93 H          29.3386   20.2818   16.4762 H         1 TZ51951     0.0000 
     94 H          28.3564   18.2280   17.3788 H         1 TZ51951     0.0000 
     95 H          27.0061   16.9891   15.6949 H         1 TZ51951     0.0000 
@<TRIPOS>BOND
     1    2    1 1    
     2   51    1 1    
     3   52    1 1    
     4    3    2 ar   
     5    6    2 ar   
     6    4    3 ar   
     7   53    3 1    
     8    5    4 ar   
     9   54    4 1    
    10    7    5 ar   
    11   18    5 1    
    12    7    6 ar   
    13   55    6 1    
    14    8    7 1    
    15    9    8 1    
    16   23    8 1    
    17   10    9 1    
    18   16    9 ar   
    19   11   10 ar   
    20   15   10 ar   
    21   12   11 ar   
    22   56   11 1    
    23   13   12 ar   
    24   57   12 1    
    25   14   13 ar   
    26   58   13 1    
    27   15   14 ar   
    28   59   14 1    
    29   60   15 1    
    30   17   16 ar   
    31   18   16 ar   
    32   21   17 ar   
    33   61   17 1    
    34   19   18 ar   
    35   20   19 ar   
    36   62   19 1    
    37   21   20 ar   
    38   63   20 1    
    39   22   21 1    
    40   64   22 1    
    41   65   22 1    
    42   24   23 1    
    43   66   23 1    
    44   67   23 1    
    45   25   24 1    
    46   68   24 1    
    47   69   24 1    
    48   26   25 1    
    49   70   25 1    
    50   71   25 1    
    51   27   26 1    
    52   72   26 1    
    53   73   26 1    
    54   28   27 1    
    55   74   27 1    
    56   75   27 1    
    57   29   28 1    
    58   76   28 1    
    59   77   28 1    
    60   30   29 1    
    61   33   29 2    
    62   31   30 1    
    63   34   30 1    
    64   32   31 2    
    65   33   32 1    
    66   78   33 1    
    67   35   34 1    
    68   79   34 1    
    69   80   34 1    
    70   36   35 1    
    71   81   35 1    
    72   82   35 1    
    73   37   36 1    
    74   83   36 1    
    75   38   37 ar   
    76   47   37 ar   
    77   39   38 1    
    78   40   38 ar   
    79   43   39 1    
    80   84   39 1    
    81   85   39 1    
    82   41   40 1    
    83   44   40 ar   
    84   42   41 1    
    85   86   41 1    
    86   87   41 1    
    87   43   42 1    
    88   88   42 1    
    89   89   42 1    
    90   90   43 1    
    91   91   43 1    
    92   45   44 ar   
    93   46   45 ar   
    94   47   45 ar   
    95   50   46 ar   
    96   92   46 1    
    97   48   47 ar   
    98   49   48 ar   
    99   93   48 1    
   100   50   49 ar   
   101   94   49 1    
   102   95   50 1    
@<TRIPOS>SUBSTRUCTURE
     1 TZ51951     1 GROUP   
@<TRIPOS>SET

