#    Name: 2YCW_1_CAVITY_N1_6.mol2
#    Modification time : Tue Mar 11 03:24:47 2014

@<TRIPOS>MOLECULE
2YCW_1_CAVITY_N1_6.mol2
  126     0     6     0     0
SMALL
NO_CHARGES


@<TRIPOS>ATOM
      1 NZ         58.6574   -8.3526   15.5635 N.2       3 LYS4        0.0000 
      2 DU         58.1395   -6.9927   15.1993 H         6 CUB7        0.0000 
      3 NZ         57.6216   -5.6329   14.8352 N.2       3 LYS4        0.0000 
      4 N          57.7683  -10.1992   16.1107 N.2       2 ALA2        0.0000 
      5 CA         57.2504   -8.8394   15.7465 C.3       5 GLY6        0.0000 
      6 O          56.7325   -7.4795   15.3824 O.2       2 ALA2        0.0000 
      7 DU         56.2146   -6.1197   15.0183 H         6 CUB7        0.0000 
      8 CZ         55.6968   -4.7598   14.6541 C.ar      4 PHE5        0.0000 
      9 N          54.8077   -6.6065   15.2013 N.2       2 ALA2        0.0000 
     10 N          54.2898   -5.2466   14.8372 N.2       2 ALA2        0.0000 
     11 CZ         53.7719   -3.8868   14.4730 C.ar      4 PHE5        0.0000 
     12 CZ         53.2540   -2.5269   14.1089 C.ar      4 PHE5        0.0000 
     13 N          52.3650   -4.3736   14.6561 N.2       2 ALA2        0.0000 
     14 N          51.8471   -3.0137   14.2920 N.2       2 ALA2        0.0000 
     15 N          50.9580   -4.8604   14.8392 N.2       2 ALA2        0.0000 
     16 N          50.4401   -3.5005   14.4751 N.2       2 ALA2        0.0000 
     17 CA         60.1599   -7.0563   18.2675 C.3       5 GLY6        0.0000 
     18 CA         59.7887  -10.2628   19.1789 C.3       5 GLY6        0.0000 
     19 CA         59.2709   -8.9029   18.8147 C.3       5 GLY6        0.0000 
     20 DU         58.7530   -7.5431   18.4506 H         6 CUB7        0.0000 
     21 CA         58.2351   -6.1832   18.0865 C.3       5 GLY6        0.0000 
     22 CZ         57.7172   -4.8234   17.7223 C.ar      4 PHE5        0.0000 
     23 CZ         57.8639   -9.3897   18.9978 C.ar      4 PHE5        0.0000 
     24 DU         57.3460   -8.0299   18.6337 H         6 CUB7        0.0000 
     25 N          56.8281   -6.6700   18.2695 N.2       2 ALA2        0.0000 
     26 CZ         56.3102   -5.3102   17.9054 C.ar      4 PHE5        0.0000 
     27 CZ         56.4570   -9.8765   19.1809 C.ar      4 PHE5        0.0000 
     28 CZ         55.9391   -8.5167   18.8167 C.ar      4 PHE5        0.0000 
     29 N          55.4212   -7.1568   18.4526 N.2       2 ALA2        0.0000 
     30 N          54.9033   -5.7970   18.0885 N.2       2 ALA2        0.0000 
     31 CA         54.5321   -9.0035   18.9998 C.3       5 GLY6        0.0000 
     32 CA         54.0142   -7.6436   18.6357 C.3       5 GLY6        0.0000 
     33 CA         53.4963   -6.2838   18.2715 C.3       5 GLY6        0.0000 
     34 CZ         52.9784   -4.9239   17.9074 C.ar      4 PHE5        0.0000 
     35 O          52.4606   -3.5641   17.5433 O.2       2 ALA2        0.0000 
     36 CZ         51.5715   -5.4107   18.0905 C.ar      4 PHE5        0.0000 
     37 O          51.0536   -4.0509   17.7263 O.2       2 ALA2        0.0000 
     38 CZ         49.6467   -4.5377   17.9094 C.ar      4 PHE5        0.0000 
     39 CZ         48.2397   -5.0245   18.0925 C.ar      4 PHE5        0.0000 
     40 O          47.7218   -3.6646   17.7283 O.2       2 ALA2        0.0000 
     41 CA         60.2077   -6.6515   19.7111 C.3       5 GLY6        0.0000 
     42 CA         59.8365   -9.8580   20.6224 C.3       5 GLY6        0.0000 
     43 DU         59.3186   -8.4981   20.2583 H         6 CUB7        0.0000 
     44 CA         58.8008   -7.1383   19.8942 C.3       5 GLY6        0.0000 
     45 N          58.2829   -5.7784   19.5300 N.2       2 ALA2        0.0000 
     46 CZ         57.9117   -8.9850   20.4414 C.ar      4 PHE5        0.0000 
     47 N          57.3938   -7.6251   20.0772 N.2       2 ALA2        0.0000 
     48 N          55.9869   -8.1119   20.2603 N.2       2 ALA2        0.0000 
     49 NZ         54.5799   -8.5987   20.4434 N.2       3 LYS4        0.0000 
     50 N          54.0620   -7.2389   20.0792 N.2       2 ALA2        0.0000 
     51 N          53.5441   -5.8790   19.7151 N.2       2 ALA2        0.0000 
     52 NZ         53.1730   -9.0855   20.6265 N.2       3 LYS4        0.0000 
     53 CZ         52.6551   -7.7257   20.2623 C.ar      4 PHE5        0.0000 
     54 CZ         52.1372   -6.3658   19.8982 C.ar      4 PHE5        0.0000 
     55 CZ         51.6193   -5.0060   19.5340 C.ar      4 PHE5        0.0000 
     56 CZ         51.1014   -3.6461   19.1699 C.ar      4 PHE5        0.0000 
     57 CZ         51.2481   -8.2125   20.4454 C.ar      4 PHE5        0.0000 
     58 CZ         50.7302   -6.8526   20.0813 C.ar      4 PHE5        0.0000 
     59 CZ         50.2123   -5.4928   19.7171 C.ar      4 PHE5        0.0000 
     60 O          49.6945   -4.1329   19.3530 O.2       2 ALA2        0.0000 
     61 CZ         48.8054   -5.9796   19.9002 C.ar      4 PHE5        0.0000 
     62 CZ         48.2875   -4.6197   19.5360 C.ar      4 PHE5        0.0000 
     63 O          47.7696   -3.2599   19.1719 O.2       2 ALA2        0.0000 
     64 CA         46.3627   -3.7467   19.3550 C.3       5 GLY6        0.0000 
     65 CA         59.5942   -6.1012   16.4598 C.3       5 GLY6        0.0000 
     66 CA         59.2231   -9.3077   17.3712 C.3       5 GLY6        0.0000 
     67 DU         58.7052   -7.9478   17.0070 H         6 CUB7        0.0000 
     68 CA         58.1873   -6.5880   16.6429 C.3       5 GLY6        0.0000 
     69 CZ         57.6694   -5.2281   16.2787 C.ar      4 PHE5        0.0000 
     70 N          57.8161   -9.7945   17.5542 N.2       2 ALA2        0.0000 
     71 DU         57.2982   -8.4346   17.1901 H         6 CUB7        0.0000 
     72 DU         56.7803   -7.0748   16.8260 H         6 CUB7        0.0000 
     73 CZ         56.2624   -5.7149   16.4618 C.ar      4 PHE5        0.0000 
     74 O          55.8913   -8.9214   17.3732 O.2       2 ALA2        0.0000 
     75 O          55.3734   -7.5616   17.0090 O.2       2 ALA2        0.0000 
     76 CA         54.8555   -6.2017   16.6449 C.3       5 GLY6        0.0000 
     77 CZ         54.3376   -4.8419   16.2808 C.ar      4 PHE5        0.0000 
     78 N          52.9307   -5.3287   16.4638 N.2       2 ALA2        0.0000 
     79 CZ         52.4128   -3.9688   16.0997 C.ar      4 PHE5        0.0000 
     80 CZ         51.8949   -2.6090   15.7355 C.ar      4 PHE5        0.0000 
     81 CZ         51.5237   -5.8155   16.6469 C.ar      4 PHE5        0.0000 
     82 N          51.0058   -4.4556   16.2828 N.2       2 ALA2        0.0000 
     83 N          50.4879   -3.0958   15.9186 N.2       2 ALA2        0.0000 
     84 CZ         49.5989   -4.9424   16.4658 C.ar      4 PHE5        0.0000 
     85 N          49.0810   -3.5826   16.1017 N.2       2 ALA2        0.0000 
     86 N          54.2420   -5.6514   13.3936 N.2       2 ALA2        0.0000 
     87 N          52.3172   -4.7784   13.2126 N.2       2 ALA2        0.0000 
     88 O          51.7993   -3.4185   12.8484 O.2       2 ALA2        0.0000 
     89 OG         50.3923   -3.9053   13.0315 O.2       1 SER1        0.0000 
     90 N          49.8745   -2.5455   12.6673 N.2       2 ALA2        0.0000 
     91 CA         50.3557   -4.2785   24.0478 C.3       5 GLY6        0.0000 
     92 CA         48.9488   -4.7653   24.2309 C.3       5 GLY6        0.0000 
     93 CZ         48.4309   -3.4054   23.8667 C.ar      4 PHE5        0.0000 
     94 CA         47.0239   -3.8922   24.0498 C.3       5 GLY6        0.0000 
     95 CA         46.5060   -2.5324   23.6857 C.3       5 GLY6        0.0000 
     96 N          59.8843   -9.4532   22.0660 N.2       2 ALA2        0.0000 
     97 O          59.3664   -8.0934   21.7019 O.2       2 ALA2        0.0000 
     98 O          58.8486   -6.7335   21.3377 O.2       2 ALA2        0.0000 
     99 OG         57.9595   -8.5802   21.8849 O.2       1 SER1        0.0000 
    100 OG         57.4416   -7.2203   21.5208 O.2       1 SER1        0.0000 
    101 N          54.1098   -6.8341   21.5228 N.2       2 ALA2        0.0000 
    102 NZ         52.7029   -7.3209   21.7059 N.2       3 LYS4        0.0000 
    103 N          52.1850   -5.9610   21.3417 N.2       2 ALA2        0.0000 
    104 CZ         51.6671   -4.6012   20.9776 C.ar      4 PHE5        0.0000 
    105 CA         51.2959   -7.8077   21.8890 C.3       5 GLY6        0.0000 
    106 CA         50.7780   -6.4478   21.5248 C.3       5 GLY6        0.0000 
    107 CA         50.2601   -5.0880   21.1607 C.3       5 GLY6        0.0000 
    108 CZ         49.7422   -3.7282   20.7965 C.ar      4 PHE5        0.0000 
    109 CZ         49.2244   -2.3683   20.4324 C.ar      4 PHE5        0.0000 
    110 CA         48.8532   -5.5748   21.3438 C.3       5 GLY6        0.0000 
    111 DU         48.3353   -4.2150   20.9796 H         6 CUB7        0.0000 
    112 CZ         47.8174   -2.8551   20.6155 C.ar      4 PHE5        0.0000 
    113 OG         46.9283   -4.7018   21.1627 O.2       1 SER1        0.0000 
    114 OG         46.4105   -3.3419   20.7985 O.2       1 SER1        0.0000 
    115 NZ         52.2328   -5.5563   22.7853 N.2       3 LYS4        0.0000 
    116 CZ         51.7149   -4.1964   22.4212 C.ar      4 PHE5        0.0000 
    117 NZ         50.8258   -6.0431   22.9684 N.2       3 LYS4        0.0000 
    118 DU         50.3079   -4.6832   22.6042 H         6 CUB7        0.0000 
    119 CZ         49.7900   -3.3234   22.2401 C.ar      4 PHE5        0.0000 
    120 CA         48.9010   -5.1700   22.7873 C.3       5 GLY6        0.0000 
    121 CZ         48.3831   -3.8102   22.4232 C.ar      4 PHE5        0.0000 
    122 CA         46.9761   -4.2970   22.6063 C.3       5 GLY6        0.0000 
    123 CZ         46.4583   -2.9371   22.2421 C.ar      4 PHE5        0.0000 
    124 CA         56.6847   -7.8843   13.9388 C.3       5 GLY6        0.0000 
    125 CA         56.1669   -6.5245   13.5747 C.3       5 GLY6        0.0000 
    126 N          54.7599   -7.0113   13.7578 N.2       2 ALA2        0.0000 
@<TRIPOS>BOND
@<TRIPOS>SUBSTRUCTURE
     1 SER1       89 GROUP   
     2 ALA2        4 GROUP   
     3 LYS4        1 GROUP   
     4 PHE5        8 GROUP   
     5 GLY6        5 GROUP   
     6 CUB7        2 GROUP   
@<TRIPOS>SET

