#    Name: 2ycw_CAU_1_INTS_M
#    Modification time : Tue Mar 25 08:41:41 2014

@<TRIPOS>MOLECULE
2ycw_CAU_1_INTS_M
   62     0    12     0     0
SMALL
NO_CHARGES


@<TRIPOS>ATOM
      1 N          54.8690   -5.1030   23.7720 N.am      2 SEC2        0.0000 
      2 N          53.6720   -5.9560   24.0350 N.am     10 SEL2        0.0000 
      3 N          56.0660   -4.2500   23.5090 N.am      6 SEP2        0.0000 
      4 N          55.0130   -6.7270   23.9900 N.am      2 SEC2        0.0000 
      5 N          56.3540   -7.4980   23.9450 N.am      6 SEP2        0.0000 
      6 O          53.8475   -7.2625   23.9630 O.2       1 ALC1        0.0000 
      7 O          53.6720   -5.9560   24.0350 O.2       9 ALL1        0.0000 
      8 O          54.0230   -8.5690   23.8910 O.2       5 ALP1        0.0000 
      9 O          55.0130   -6.7270   23.9900 O.2       1 ALC1        0.0000 
     10 O          56.3540   -7.4980   23.9450 O.2       5 ALP1        0.0000 
     11 CA         53.4055   -4.0885   24.5215 C.3       4 GLC5        0.0000 
     12 CA         52.9830   -5.4300   22.9100 C.3      12 GLL5        0.0000 
     13 CA         53.8280   -2.7470   26.1330 C.3       8 GLP5        0.0000 
     14 CA         53.1445   -3.8775   21.6205 C.3       4 GLC5        0.0000 
     15 CA         53.3060   -2.3250   20.3310 C.3       8 GLP5        0.0000 
     16 CA         52.5370   -8.2105   23.4000 C.3       4 GLC5        0.0000 
     17 CA         52.7710   -6.5610   21.9170 C.3      12 GLL5        0.0000 
     18 CA         52.3030   -9.8600   24.8830 C.3       8 GLP5        0.0000 
     19 OD1        54.0535   -7.7940   22.6595 O.co2     3 ASC3        0.0000 
     20 OD1        54.0840   -7.0190   21.4280 O.co2    11 ASL3        0.0000 
     21 OD1        54.0230   -8.5690   23.8910 O.co2     7 ASP3        0.0000 
     22 CA         54.9300  -10.8015   20.7305 C.3       4 GLC5        0.0000 
     23 CA         54.0500   -9.3730   20.7240 C.3      12 GLL5        0.0000 
     24 CA         55.8100  -12.2300   20.7370 C.3       8 GLP5        0.0000 
     25 CA         52.1345  -10.3300   20.3915 C.3       4 GLC5        0.0000 
     26 CA         50.2190  -11.2870   20.0590 C.3       8 GLP5        0.0000 
     27 CA         51.2360   -4.7345   25.3595 C.3       4 GLC5        0.0000 
     28 CA         51.6770   -4.8150   23.3620 C.3      12 GLL5        0.0000 
     29 CA         50.7950   -4.6540   27.3570 C.3       8 GLP5        0.0000 
     30 CA         52.6525   -3.2850   24.2670 C.3       4 GLC5        0.0000 
     31 CA         53.6280   -1.7550   25.1720 C.3       8 GLP5        0.0000 
     32 CA         52.0155   -3.1560   22.1360 C.3       4 GLC5        0.0000 
     33 CA         52.3540   -1.4970   20.9100 C.3       8 GLP5        0.0000 
     34 CA         48.6805   -6.1580   24.4415 C.3       4 GLC5        0.0000 
     35 CA         49.0700   -4.3670   23.8120 C.3      12 GLL5        0.0000 
     36 CA         48.2910   -7.9490   25.0710 C.3       8 GLP5        0.0000 
     37 O          45.0280   -4.3370   20.5875 O.2       1 ALC1        0.0000 
     38 O          46.6460   -3.8020   20.5830 O.2       9 ALL1        0.0000 
     39 O          43.4100   -4.8720   20.5920 O.2       5 ALP1        0.0000 
     40 CA         48.3665   -5.5865   16.0595 C.3       4 GLC5        0.0000 
     41 CA         48.4390   -3.9080   17.3630 C.3      12 GLL5        0.0000 
     42 CA         48.2940   -7.2650   14.7560 C.3       8 GLP5        0.0000 
     43 CA         53.2090   -8.4289   18.2599 C.3       4 GLC5        0.0000 
     44 CA         54.4900   -7.4650   19.0530 C.3      12 GLL5        0.0000 
     45 CA         52.2240   -8.8020   16.7310 C.3       8 GLP5        0.0000 
     46 CA         48.6123   -6.1947   22.2722 C.3       4 GLC5        0.0000 
     47 CA         49.5420   -4.3580   22.5020 C.3      12 GLL5        0.0000 
     48 CA         48.1370   -8.1300   22.5590 C.3       8 GLP5        0.0000 
     49 CA         48.9412   -4.1063   25.7677 C.3       4 GLC5        0.0000 
     50 CA         49.4840   -3.9410   27.5930 C.3       8 GLP5        0.0000 
     51 CA         45.5127   -3.4160   24.0983 C.3       4 GLC5        0.0000 
     52 CA         46.8320   -3.9820   23.0340 C.3      12 GLL5        0.0000 
     53 CA         43.7460   -2.7530   24.6430 C.3       8 GLP5        0.0000 
     54 CA         46.7134   -5.7175   23.2484 C.3       4 GLC5        0.0000 
     55 CA         47.7270   -4.1760   24.0730 C.3      12 GLL5        0.0000 
     56 CA         46.1430   -7.4100   23.8540 C.3       8 GLP5        0.0000 
     57 CA         45.2568   -4.0160   19.1305 C.3       4 GLC5        0.0000 
     58 CA         47.5050   -3.8790   19.5730 C.3      12 GLL5        0.0000 
     59 CA         43.0970   -4.2020   19.3740 C.3       8 GLP5        0.0000 
     60 CA         46.5763   -3.0568   16.3835 C.3       4 GLC5        0.0000 
     61 CA         47.3280   -3.7810   18.2010 C.3      12 GLL5        0.0000 
     62 CA         45.2690   -2.2690   14.9850 C.3       8 GLP5        0.0000 
@<TRIPOS>BOND
@<TRIPOS>SUBSTRUCTURE
     1 ALC1        6 GROUP        1 X    ALC  0     ROOT ALC X 1
     2 SEC2        1 GROUP        1 X    SEC  0     **** SEC X 2
     3 ASC3       19 GROUP        1 X    ASC  0     **** ASC X 3
     4 GLC5       11 GROUP        1 X    GLC  0     **** GLC X 6
     5 ALP1        8 GROUP        1 Y    ALP  0     ROOT ALP Y 8
     6 SEP2        3 GROUP        1 Y    SEP  0     **** SEP Y 9
     7 ASP3       21 GROUP        1 Y    ASP  0     **** ASP Y 10
     8 GLP5       13 GROUP        1 Y    GLP  0     **** GLP Y 13
     9 ALL1        7 GROUP        1 Z    ALL  0     ROOT ALL Z 15
    10 SEL2        2 GROUP        1 Z    SEL  0     **** SEL Z 16
    11 ASL3       20 GROUP        1 Z    ASL  0     **** ASL Z 17
    12 GLL5       12 GROUP        1 Z    GLL  0     **** GLL Z 20
@<TRIPOS>SET

