#    Name: 2ycw_CAU_1_ligand
#    Modification time : Tue Mar 25 08:41:41 2014

@<TRIPOS>MOLECULE
2ycw_CAU_1_ligand
   43    45     1     0     0
SMALL
NO_CHARGES


@<TRIPOS>ATOM
      1 O17        53.6720   -5.9560   24.0350 O.3       1 CAU400      0.0000 
      2 C16        52.9830   -5.4300   22.9100 C.3       1 CAU400      0.0000 
      3 C18        52.7710   -6.5610   21.9170 C.3       1 CAU400      0.0000 
      4 N19        54.0840   -7.0190   21.4280 N.4       1 CAU400      0.0000 
      5 C20        53.7460   -7.9200   20.3250 C.3       1 CAU400      0.0000 
      6 C21        54.0500   -9.3730   20.7240 C.3       1 CAU400      0.0000 
      7 C22        54.4900   -7.4650   19.0530 C.3       1 CAU400      0.0000 
      8 C15        51.6770   -4.8150   23.3620 C.3       1 CAU400      0.0000 
      9 O14        50.8750   -4.5360   22.2110 O.3       1 CAU400      0.0000 
     10 C13        49.5420   -4.3580   22.5020 C.ar      1 CAU400      0.0000 
     11 C12        49.0700   -4.3670   23.8120 C.ar      1 CAU400      0.0000 
     12 C11        47.7270   -4.1760   24.0730 C.ar      1 CAU400      0.0000 
     13 C10        46.8320   -3.9820   23.0340 C.ar      1 CAU400      0.0000 
     14 C8         47.2880   -3.9710   21.7320 C.ar      1 CAU400      0.0000 
     15 C9         48.6330   -4.1610   21.4690 C.ar      1 CAU400      0.0000 
     16 N7         46.6460   -3.8020   20.5830 N.pl3     1 CAU400      0.0000 
     17 C3         47.5050   -3.8790   19.5730 C.ar      1 CAU400      0.0000 
     18 C4         48.7740   -4.1080   20.0940 C.ar      1 CAU400      0.0000 
     19 C2         47.3280   -3.7810   18.2010 C.ar      1 CAU400      0.0000 
     20 C1         48.4390   -3.9080   17.3630 C.ar      1 CAU400      0.0000 
     21 C6         49.7130   -4.1340   17.8800 C.ar      1 CAU400      0.0000 
     22 C5         49.8780   -4.2340   19.2540 C.ar      1 CAU400      0.0000 
     23 H          53.5771   -4.6646   22.4256 H         1 CAU400      0.0000 
     24 H          52.1620   -6.1945   21.0937 H         1 CAU400      0.0000 
     25 H          52.2441   -7.3711   22.4162 H         1 CAU400      0.0000 
     26 H          52.6731   -7.8456   20.1226 H         1 CAU400      0.0000 
     27 H          51.9036   -3.9050   23.9247 H         1 CAU400      0.0000 
     28 H          51.1819   -5.5195   24.0362 H         1 CAU400      0.0000 
     29 H          49.7320   -4.5178   24.5899 H         1 CAU400      0.0000 
     30 H          47.3865   -4.1776   25.0488 H         1 CAU400      0.0000 
     31 H          45.8319   -3.8469   23.2348 H         1 CAU400      0.0000 
     32 H          45.6804   -3.6437   20.4924 H         1 CAU400      0.0000 
     33 H          46.4014   -3.6185   17.8042 H         1 CAU400      0.0000 
     34 H          48.3112   -3.8324   16.3380 H         1 CAU400      0.0000 
     35 H          50.5151   -4.2247   17.2520 H         1 CAU400      0.0000 
     36 H          50.8095   -4.4003   19.6525 H         1 CAU400      0.0000 
     37 H          55.0173   -9.5039   20.9410 H         1 CAU400      0.0000 
     38 H          53.5283   -9.6539   21.5295 H         1 CAU400      0.0000 
     39 H          53.8247  -10.0144   19.9906 H         1 CAU400      0.0000 
     40 H          55.4821   -7.4793   19.1779 H         1 CAU400      0.0000 
     41 H          54.2844   -8.0543   18.2717 H         1 CAU400      0.0000 
     42 H          54.2410   -6.5327   18.7906 H         1 CAU400      0.0000 
     43 H          54.1932   -6.7319   23.6796 H         1 CAU400      0.0000 
@<TRIPOS>BOND
     1    2    1 1    
     2   43    1 1    
     3    3    2 1    
     4    8    2 1    
     5   23    2 1    
     6    4    3 1    
     7   24    3 1    
     8   25    3 1    
     9    5    4 1    
    10    6    5 1    
    11    7    5 1    
    12   26    5 1    
    13   37    6 1    
    14   38    6 1    
    15   39    6 1    
    16   40    7 1    
    17   41    7 1    
    18   42    7 1    
    19    9    8 1    
    20   27    8 1    
    21   28    8 1    
    22   10    9 1    
    23   11   10 ar   
    24   15   10 ar   
    25   12   11 ar   
    26   29   11 1    
    27   13   12 ar   
    28   30   12 1    
    29   14   13 ar   
    30   31   13 1    
    31   15   14 ar   
    32   16   14 1    
    33   18   15 1    
    34   17   16 1    
    35   32   16 1    
    36   18   17 ar   
    37   19   17 ar   
    38   22   18 ar   
    39   20   19 ar   
    40   33   19 1    
    41   21   20 ar   
    42   34   20 1    
    43   22   21 ar   
    44   35   21 1    
    45   36   22 1    
@<TRIPOS>SUBSTRUCTURE
     1 CAU400      1 GROUP   
@<TRIPOS>SET

