#    Name: 2qei_CXX_1_INTS_M
#    Modification time : Mon Mar 24 21:52:05 2014

@<TRIPOS>MOLECULE
2qei_CXX_1_INTS_M
   54     0     9     0     0
SMALL
NO_CHARGES


@<TRIPOS>ATOM
      1 CA         24.3100   18.2210   20.7945 C.3       3 GLC5        0.0000 
      2 CA         24.7750   19.7330   21.9140 C.3       9 GLL5        0.0000 
      3 CA         23.8450   16.7090   19.6750 C.3       6 GLP5        0.0000 
      4 CA         22.8110   20.3535   21.2380 C.3       3 GLC5        0.0000 
      5 CA         20.8470   20.9740   20.5620 C.3       6 GLP5        0.0000 
      6 CA         24.9765   18.6100   19.7735 C.3       3 GLC5        0.0000 
      7 CA         25.9100   19.6400   21.1020 C.3       9 GLL5        0.0000 
      8 CA         24.0430   17.5800   18.4450 C.3       6 GLP5        0.0000 
      9 CA         28.8490   21.7005   17.9915 C.3       3 GLC5        0.0000 
     10 CA         28.8720   21.3440   19.8360 C.3       9 GLL5        0.0000 
     11 CA         28.8260   22.0570   16.1470 C.3       6 GLP5        0.0000 
     12 CA         26.9385   21.8270   19.0305 C.3       3 GLC5        0.0000 
     13 CA         25.0050   22.3100   18.2250 C.3       6 GLP5        0.0000 
     14 CA         31.1230   19.3930   23.3180 C.3       3 GLC5        0.0000 
     15 CA         29.6670   18.9570   24.4550 C.3       9 GLL5        0.0000 
     16 CA         32.5790   19.8290   22.1810 C.3       6 GLP5        0.0000 
     17 CA         30.8590   15.3600   23.5170 C.3       3 GLC5        0.0000 
     18 CA         30.7670   16.8200   24.8580 C.3       9 GLL5        0.0000 
     19 CA         30.9510   13.9000   22.1760 C.3       6 GLP5        0.0000 
     20 CA         31.8990   17.6980   23.7175 C.3       3 GLC5        0.0000 
     21 CA         33.0310   18.5760   22.5770 C.3       6 GLP5        0.0000 
     22 CA         30.4950   23.1205   18.1580 C.3       3 GLC5        0.0000 
     23 CA         29.7080   23.7330   20.1060 C.3       9 GLL5        0.0000 
     24 CA         31.2820   22.5080   16.2100 C.3       6 GLP5        0.0000 
     25 CA         30.8240   20.6325   23.3000 C.3       3 GLC5        0.0000 
     26 CA         29.0690   21.4360   24.4190 C.3       9 GLL5        0.0000 
     27 OD1        30.0630   17.1020   26.9845 O.co2     2 ASC3        0.0000 
     28 OD1        29.6790   17.7260   25.2830 O.co2     8 ASL3        0.0000 
     29 OD1        30.4470   16.4780   28.6860 O.co2     5 ASP3        0.0000 
     30 OD1        30.2065   18.0455   26.4415 O.co2     2 ASC3        0.0000 
     31 OD1        30.7340   18.3650   27.6000 O.co2     5 ASP3        0.0000 
     32 O          30.2065   18.0455   26.4415 O.2       1 ALC1        0.0000 
     33 O          29.6790   17.7260   25.2830 O.2       7 ALL1        0.0000 
     34 O          30.7340   18.3650   27.6000 O.2       4 ALP1        0.0000 
     35 CA         25.0092   22.0042   21.9432 C.3       3 GLC5        0.0000 
     36 CA         26.1040   21.0500   23.4870 C.3       9 GLL5        0.0000 
     37 CA         24.5170   23.2570   20.5860 C.3       6 GLP5        0.0000 
     38 CA         24.9297   21.4718   21.0470 C.3       3 GLC5        0.0000 
     39 CA         30.3955   20.3725   20.5078 C.3       3 GLC5        0.0000 
     40 CA         28.2940   20.0580   20.4790 C.3       9 GLL5        0.0000 
     41 CA         32.2080   20.0440   20.8580 C.3       6 GLP5        0.0000 
     42 CA         30.1567   25.4153   18.8563 C.3       3 GLC5        0.0000 
     43 CA         30.4370   26.5080   17.2580 C.3       6 GLP5        0.0000 
     44 CA         31.2608   23.3478   22.4600 C.3       3 GLC5        0.0000 
     45 CA         29.3890   23.8650   22.8670 C.3       9 GLL5        0.0000 
     46 CA         33.3110   23.4390   22.3830 C.3       6 GLP5        0.0000 
     47 CA         25.8605   21.9205   21.3158 C.3       3 GLC5        0.0000 
     48 CA         27.2530   20.9400   22.6520 C.3       9 GLL5        0.0000 
     49 CA         31.5734   23.8877   21.5896 C.3       3 GLC5        0.0000 
     50 CA         30.8131   20.9854   25.4615 C.3       3 GLC5        0.0000 
     51 CA         32.4350   21.4860   26.3090 C.3       6 GLP5        0.0000 
     52 CA         28.8798   22.2100   26.3630 C.3       3 GLC5        0.0000 
     53 CA         28.9600   20.1100   25.1630 C.3       9 GLL5        0.0000 
     54 CA         28.7450   23.6470   27.9350 C.3       6 GLP5        0.0000 
@<TRIPOS>BOND
@<TRIPOS>SUBSTRUCTURE
     1 ALC1       32 GROUP        1 X    ALC  0     ROOT ALC X 1
     2 ASC3       27 GROUP        1 X    ASC  0     **** ASC X 3
     3 GLC5        1 GROUP        1 X    GLC  0     **** GLC X 6
     4 ALP1       34 GROUP        1 Y    ALP  0     ROOT ALP Y 8
     5 ASP3       29 GROUP        1 Y    ASP  0     **** ASP Y 10
     6 GLP5        3 GROUP        1 Y    GLP  0     **** GLP Y 13
     7 ALL1       33 GROUP        1 Z    ALL  0     ROOT ALL Z 15
     8 ASL3       28 GROUP        1 Z    ASL  0     **** ASL Z 17
     9 GLL5        2 GROUP        1 Z    GLL  0     **** GLL Z 20
@<TRIPOS>SET

