#    Name: 2qei_CXX_1_ligand
#    Modification time : Mon Mar 24 21:52:05 2014

@<TRIPOS>MOLECULE
2qei_CXX_1_ligand
   46    48     1     0     0
SMALL
NO_CHARGES


@<TRIPOS>ATOM
      1 C1         26.1040   21.0500   23.4870 C.ar      1 CXX801      0.0000 
      2 C2         24.8990   20.4530   23.1140 C.ar      1 CXX801      0.0000 
      3 C3         24.7750   19.7330   21.9140 C.ar      1 CXX801      0.0000 
      4 C4         25.9100   19.6400   21.1020 C.ar      1 CXX801      0.0000 
      5 C5         28.2940   20.0580   20.4790 C.3       1 CXX801      0.0000 
      6 C6         28.8720   21.3440   19.8360 C.3       1 CXX801      0.0000 
      7 C8         30.0450   24.9120   20.8030 C.ar      1 CXX801      0.0000 
      8 C9         29.8820   24.9680   22.1700 C.ar      1 CXX801      0.0000 
      9 C10        29.3890   23.8650   22.8670 C.ar      1 CXX801      0.0000 
     10 C11        29.0320   22.6480   22.2070 C.ar      1 CXX801      0.0000 
     11 C13        27.1550   20.2280   21.4390 C.ar      1 CXX801      0.0000 
     12 C14        27.2530   20.9400   22.6520 C.ar      1 CXX801      0.0000 
     13 C17        29.6670   18.9570   24.4550 C.3       1 CXX801      0.0000 
     14 C18        30.7670   16.8200   24.8580 C.3       1 CXX801      0.0000 
     15 C7         29.7080   23.7330   20.1060 C.ar      1 CXX801      0.0000 
     16 C12        29.1980   22.5640   20.7270 C.ar      1 CXX801      0.0000 
     17 C15        29.0690   21.4360   24.4190 C.3       1 CXX801      0.0000 
     18 C16        28.9600   20.1100   25.1630 C.3       1 CXX801      0.0000 
     19 C19        28.3850   16.9790   25.2280 C.3       1 CXX801      0.0000 
     20 N1         28.5200   21.5370   23.0120 N.pl3     1 CXX801      0.0000 
     21 N2         29.6790   17.7260   25.2830 N.4       1 CXX801      0.0000 
     22 CL2        23.5390   20.6230   24.1760 Cl        1 CXX801      0.0000 
     23 H          26.1759   21.5739   24.3651 H         1 CXX801      0.0000 
     24 H          23.9045   19.3032   21.6522 H         1 CXX801      0.0000 
     25 H          25.8450   19.1132   20.2017 H         1 CXX801      0.0000 
     26 H          29.1356   19.5282   20.9884 H         1 CXX801      0.0000 
     27 H          27.9846   19.3762   19.6497 H         1 CXX801      0.0000 
     28 H          28.1614   21.6787   19.0315 H         1 CXX801      0.0000 
     29 H          29.8046   21.0619   19.2749 H         1 CXX801      0.0000 
     30 H          30.4087   25.7162   20.2812 H         1 CXX801      0.0000 
     31 H          30.1239   25.8275   22.6880 H         1 CXX801      0.0000 
     32 H          29.2725   23.9144   23.8951 H         1 CXX801      0.0000 
     33 H          30.6944   19.2682   24.2238 H         1 CXX801      0.0000 
     34 H          29.1554   18.7677   23.5020 H         1 CXX801      0.0000 
     35 H          29.8413   23.7163   19.0659 H         1 CXX801      0.0000 
     36 H          30.1549   21.7391   24.4016 H         1 CXX801      0.0000 
     37 H          28.5818   22.2327   25.0509 H         1 CXX801      0.0000 
     38 H          29.3878   20.2272   26.1701 H         1 CXX801      0.0000 
     39 H          27.8968   19.8547   25.2879 H         1 CXX801      0.0000 
     40 H          29.8629   18.0055   26.3297 H         1 CXX801      0.0000 
     41 H          31.6650   17.2509   24.9467 H         1 CXX801      0.0000 
     42 H          30.7882   15.9830   25.4048 H         1 CXX801      0.0000 
     43 H          30.6678   16.5433   23.9022 H         1 CXX801      0.0000 
     44 H          28.1605   16.6931   24.2964 H         1 CXX801      0.0000 
     45 H          28.4091   16.1525   25.7905 H         1 CXX801      0.0000 
     46 H          27.6211   17.5347   25.5561 H         1 CXX801      0.0000 
@<TRIPOS>BOND
     1    2    1 ar   
     2   12    1 ar   
     3   23    1 1    
     4    3    2 ar   
     5   22    2 1    
     6    4    3 ar   
     7   24    3 1    
     8   11    4 ar   
     9   25    4 1    
    10    6    5 1    
    11   11    5 1    
    12   26    5 1    
    13   27    5 1    
    14   16    6 1    
    15   28    6 1    
    16   29    6 1    
    17    8    7 ar   
    18   15    7 ar   
    19   30    7 1    
    20    9    8 ar   
    21   31    8 1    
    22   10    9 ar   
    23   32    9 1    
    24   16   10 ar   
    25   20   10 1    
    26   12   11 ar   
    27   20   12 1    
    28   18   13 1    
    29   21   13 1    
    30   33   13 1    
    31   34   13 1    
    32   21   14 1    
    33   41   14 1    
    34   42   14 1    
    35   43   14 1    
    36   16   15 ar   
    37   35   15 1    
    38   18   17 1    
    39   20   17 1    
    40   36   17 1    
    41   37   17 1    
    42   38   18 1    
    43   39   18 1    
    44   21   19 1    
    45   44   19 1    
    46   45   19 1    
    47   46   19 1    
    48   40   21 1    
@<TRIPOS>SUBSTRUCTURE
     1 CXX801      1 GROUP   
@<TRIPOS>SET

