#    Name: 4idg_NAD_1_INTS_M
#    Modification time : Tue Mar 25 03:43:48 2014

@<TRIPOS>MOLECULE
4idg_NAD_1_INTS_M
  104     0    12     0     0
SMALL
NO_CHARGES


@<TRIPOS>ATOM
      1 N           1.3840    6.9685   44.6950 N.am      2 SEC2        0.0000 
      2 N           0.7240    5.9130   43.9270 N.am     10 SEL2        0.0000 
      3 N           2.0440    8.0240   45.4630 N.am      6 SEP2        0.0000 
      4 CA          2.1005    9.3640   39.2915 C.3       4 GLC5        0.0000 
      5 CA          0.9400    7.9680   39.7020 C.3      12 GLL5        0.0000 
      6 CA          3.2610   10.7600   38.8810 C.3       8 GLP5        0.0000 
      7 CA          2.4325    8.1380   38.0385 C.3       4 GLC5        0.0000 
      8 CA          3.9250    8.3080   36.3750 C.3       8 GLP5        0.0000 
      9 N           1.9235    7.1100   37.0945 N.am      2 SEC2        0.0000 
     10 N           1.0740    7.9980   38.2310 N.am     10 SEL2        0.0000 
     11 N           2.7730    6.2220   35.9580 N.am      6 SEP2        0.0000 
     12 N          -1.9935    9.8415   40.9545 N.am      2 SEC2        0.0000 
     13 N          -0.5680    9.4320   40.7750 N.am     10 SEL2        0.0000 
     14 N          -3.4190   10.2510   41.1340 N.am      6 SEP2        0.0000 
     15 O          -1.0840   10.6190   39.6710 O.2       1 ALC1        0.0000 
     16 O          -0.5680    9.4320   40.7750 O.2       9 ALL1        0.0000 
     17 O          -1.6000   11.8060   38.5670 O.2       5 ALP1        0.0000 
     18 O          -0.1595   10.5520   40.2555 O.2       1 ALC1        0.0000 
     19 O           0.2490   11.6720   39.7360 O.2       5 ALP1        0.0000 
     20 O          -1.9050   10.5470   38.6760 O.2       1 ALC1        0.0000 
     21 O          -2.2100    9.2880   38.7850 O.2       9 ALL1        0.0000 
     22 CA          1.5655    9.7500   38.3515 C.3       4 GLC5        0.0000 
     23 CA         -0.1300    8.7400   37.8220 C.3      12 GLL5        0.0000 
     24 CA          1.8975    8.5240   37.0985 C.3       4 GLC5        0.0000 
     25 CA         -2.8385    9.0915   34.7235 C.3       4 GLC5        0.0000 
     26 CA         -1.1050    8.7090   34.3100 C.3      12 GLL5        0.0000 
     27 CA         -4.5720    9.4740   35.1370 C.3       8 GLP5        0.0000 
     28 CA         -2.5670   10.1490   34.0185 C.3       4 GLC5        0.0000 
     29 CA         -1.1420    9.4190   33.1120 C.3      12 GLL5        0.0000 
     30 CA         -3.9920   10.8790   34.9250 C.3       8 GLP5        0.0000 
     31 CA         -1.6370   11.1795   31.9800 C.3       4 GLC5        0.0000 
     32 CA         -2.1320   12.9400   30.8480 C.3       8 GLP5        0.0000 
     33 O          -2.2705    9.8795   30.8530 O.2       1 ALC1        0.0000 
     34 O          -1.7130    8.8680   31.9200 O.2       9 ALL1        0.0000 
     35 O          -2.8280   10.8910   29.7860 O.2       5 ALP1        0.0000 
     36 N          -0.3880   11.1675   31.6860 N.am      2 SEC2        0.0000 
     37 N          -0.6140   10.6710   33.0550 N.am     10 SEL2        0.0000 
     38 N          -0.1620   11.6640   30.3170 N.am      6 SEP2        0.0000 
     39 CA         -0.1285   12.6150   35.6020 C.3       4 GLC5        0.0000 
     40 CA         -0.0590   11.2660   34.1360 C.3      12 GLL5        0.0000 
     41 CA         -0.1980   13.9640   37.0680 C.3       8 GLP5        0.0000 
     42 CA         -2.0255   11.0725   34.5305 C.3       4 GLC5        0.0000 
     43 CA         -1.0955   12.1030   32.4920 C.3       4 GLC5        0.0000 
     44 CA          1.2240   10.8620   32.8355 C.3       4 GLC5        0.0000 
     45 CA          2.5070   10.4580   31.5350 C.3       8 GLP5        0.0000 
     46 CA         -2.2535   10.1155   35.1795 C.3       4 GLC5        0.0000 
     47 CA         -0.5150    9.3520   35.4340 C.3      12 GLL5        0.0000 
     48 NZ          2.7985    3.4040   45.2905 N.4       3 LYC4        0.0000 
     49 NZ          3.7600    3.7490   44.3500 N.4      11 LYL4        0.0000 
     50 NZ          1.4550    3.0280   47.5110 N.4       7 LYP4        0.0000 
     51 N           2.7985    3.4040   45.2905 N.am      2 SEC2        0.0000 
     52 N           3.7600    3.7490   44.3500 N.am     10 SEL2        0.0000 
     53 N           1.8370    3.0590   46.2310 N.am      6 SEP2        0.0000 
     54 N           4.3780    6.9220   44.6480 N.am      2 SEC2        0.0000 
     55 N           3.8270    6.1470   43.5950 N.am     10 SEL2        0.0000 
     56 N           4.9290    7.6970   45.7010 N.am      6 SEP2        0.0000 
     57 CA          6.2620    6.0435   43.0325 C.3       4 GLC5        0.0000 
     58 CA          5.4350    5.1450   41.2830 C.3      12 GLL5        0.0000 
     59 CA          7.0890    6.9420   44.7820 C.3       8 GLP5        0.0000 
     60 CA          6.4065    6.7990   40.3890 C.3       4 GLC5        0.0000 
     61 CA          7.3780    8.4530   39.4950 C.3       8 GLP5        0.0000 
     62 CA          6.6875    6.1605   39.1140 C.3       4 GLC5        0.0000 
     63 CA          6.0620    4.3800   40.1780 C.3      12 GLL5        0.0000 
     64 CA          7.3130    7.9410   38.0500 C.3       8 GLP5        0.0000 
     65 CA          7.9150    4.5115   39.2820 C.3       4 GLC5        0.0000 
     66 CA          9.7680    4.6430   38.3860 C.3       8 GLP5        0.0000 
     67 CA          4.3040    3.9015   37.3580 C.3       4 GLC5        0.0000 
     68 CA          5.0600    3.8540   39.2570 C.3      12 GLL5        0.0000 
     69 CA          3.5480    3.9490   35.4590 C.3       8 GLP5        0.0000 
     70 N           6.1695    3.2370   36.7560 N.am      2 SEC2        0.0000 
     71 N           5.6330    3.9640   37.9470 N.am     10 SEL2        0.0000 
     72 N           6.7060    2.5100   35.5650 N.am      6 SEP2        0.0000 
     73 N           4.7275    0.4950   38.2345 N.am      2 SEC2        0.0000 
     74 N           4.4230    1.7160   38.4480 N.am     10 SEL2        0.0000 
     75 N           5.0320   -0.7260   38.0210 N.am      6 SEP2        0.0000 
     76 CA          7.7770    2.4850   41.1675 C.3       4 GLC5        0.0000 
     77 CA          6.1660    2.0290   40.0020 C.3      12 GLL5        0.0000 
     78 CA          9.3880    2.9410   42.3330 C.3       8 GLP5        0.0000 
     79 N           4.4455   -1.9245   46.0760 N.am      2 SEC2        0.0000 
     80 N           4.8480   -0.7900   45.1690 N.am     10 SEL2        0.0000 
     81 N           4.0430   -3.0590   46.9830 N.am      6 SEP2        0.0000 
     82 N           5.6900   -0.7645   46.2835 N.am      2 SEC2        0.0000 
     83 N           6.5320   -0.7390   47.3980 N.am      6 SEP2        0.0000 
     84 CA          6.5620   -2.0430   44.4775 C.3       4 GLC5        0.0000 
     85 CA          6.0290   -1.2280   42.6050 C.3      12 GLL5        0.0000 
     86 CA          7.0950   -2.8580   46.3500 C.3       8 GLP5        0.0000 
     87 CA          0.7550    8.6119   41.8570 C.3       4 GLC5        0.0000 
     88 CA          1.3340    6.6590   40.2340 C.3      12 GLL5        0.0000 
     89 CA          1.1690    9.4540   43.7150 C.3       8 GLP5        0.0000 
     90 CA         -0.4123    7.5395   32.7045 C.3       4 GLC5        0.0000 
     91 CA          0.2990    6.0150   31.6980 C.3       8 GLP5        0.0000 
     92 CA          0.9049    9.2205   33.5062 C.3       4 GLC5        0.0000 
     93 CA          2.6290    9.2330   32.4400 C.3       8 GLP5        0.0000 
     94 CA          7.6787    4.5352   41.4402 C.3       4 GLC5        0.0000 
     95 CA          9.6090    4.3080   42.1500 C.3       8 GLP5        0.0000 
     96 CA          3.9567   -0.9261   41.5706 C.3       4 GLC5        0.0000 
     97 CA          5.4620    1.0380   42.0990 C.3      12 GLL5        0.0000 
     98 CA          2.1790   -1.4860   40.5730 C.3       8 GLP5        0.0000 
     99 CA          7.4355   -1.7690   39.6188 C.3       4 GLC5        0.0000 
    100 CA          6.6830   -1.3400   41.3860 C.3      12 GLL5        0.0000 
    101 CA          8.1670   -2.7420   38.2790 C.3       8 GLP5        0.0000 
    102 CA          8.3347   -0.1125   41.7831 C.3       4 GLC5        0.0000 
    103 CA          6.7250   -0.2520   40.5310 C.3      12 GLL5        0.0000 
    104 CA         10.1290    0.5430   42.3030 C.3       8 GLP5        0.0000 
@<TRIPOS>BOND
@<TRIPOS>SUBSTRUCTURE
     1 ALC1       15 GROUP        1 X    ALC  0     ROOT ALC X 1
     2 SEC2        1 GROUP        1 X    SEC  0     **** SEC X 2
     3 LYC4       48 GROUP        1 X    LYC  0     **** LYC X 4
     4 GLC5        4 GROUP        1 X    GLC  0     **** GLC X 6
     5 ALP1       17 GROUP        1 Y    ALP  0     ROOT ALP Y 8
     6 SEP2        3 GROUP        1 Y    SEP  0     **** SEP Y 9
     7 LYP4       50 GROUP        1 Y    LYP  0     **** LYP Y 11
     8 GLP5        6 GROUP        1 Y    GLP  0     **** GLP Y 13
     9 ALL1       16 GROUP        1 Z    ALL  0     ROOT ALL Z 15
    10 SEL2        2 GROUP        1 Z    SEL  0     **** SEL Z 16
    11 LYL4       49 GROUP        1 Z    LYL  0     **** LYL Z 18
    12 GLL5        5 GROUP        1 Z    GLL  0     **** GLL Z 20
@<TRIPOS>SET

