#    Name: 4idg_NAD_1_ligand
#    Modification time : Tue Mar 25 03:43:48 2014

@<TRIPOS>MOLECULE
4idg_NAD_1_ligand
   70    74     1     0     0
SMALL
NO_CHARGES


@<TRIPOS>ATOM
      1 PA          1.0120    5.4930   42.5120 P.3       1 NAD402      0.0000 
      2 O1A         0.7240    5.9130   43.9270 O.co2     1 NAD402      0.0000 
      3 O2A        -0.2310    4.8110   41.9020 O.co2     1 NAD402      0.0000 
      4 O5B         1.4180    6.7300   41.6290 O.3       1 NAD402      0.0000 
      5 C5B         1.3340    6.6590   40.2340 C.3       1 NAD402      0.0000 
      6 C4B         0.9400    7.9680   39.7020 C.3       1 NAD402      0.0000 
      7 O4B         1.0740    7.9980   38.2310 O.3       1 NAD402      0.0000 
      8 C3B        -0.4550    8.2260   40.0300 C.3       1 NAD402      0.0000 
      9 O3B        -0.5680    9.4320   40.7750 O.3       1 NAD402      0.0000 
     10 C2B        -1.1410    8.3240   38.7630 C.3       1 NAD402      0.0000 
     11 O2B        -2.2100    9.2880   38.7850 O.3       1 NAD402      0.0000 
     12 C1B        -0.1300    8.7400   37.8220 C.3       1 NAD402      0.0000 
     13 N9A        -0.5960    8.4660   36.4950 N.pl3     1 NAD402      0.0000 
     14 C8A        -1.2140    7.3340   36.0420 C.2       1 NAD402      0.0000 
     15 N7A        -1.5200    7.4760   34.7470 N.2       1 NAD402      0.0000 
     16 C5A        -1.1050    8.7090   34.3100 C.ar      1 NAD402      0.0000 
     17 C6A        -1.1420    9.4190   33.1120 C.ar      1 NAD402      0.0000 
     18 N6A        -1.7130    8.8680   31.9200 N.pl3     1 NAD402      0.0000 
     19 N1A        -0.6140   10.6710   33.0550 N.ar      1 NAD402      0.0000 
     20 C2A        -0.0590   11.2660   34.1360 C.ar      1 NAD402      0.0000 
     21 N3A        -0.0120   10.6090   35.3190 N.ar      1 NAD402      0.0000 
     22 C4A        -0.5150    9.3520   35.4340 C.ar      1 NAD402      0.0000 
     23 O3          2.1460    4.4620   42.5420 O.3       1 NAD402      0.0000 
     24 PN          3.5920    4.7100   43.1700 P.3       1 NAD402      0.0000 
     25 O1N         3.7600    3.7490   44.3500 O.co2     1 NAD402      0.0000 
     26 O2N         3.8270    6.1470   43.5950 O.co2     1 NAD402      0.0000 
     27 O5D         4.6510    4.2300   42.0560 O.3       1 NAD402      0.0000 
     28 C5D         5.4350    5.1450   41.2830 C.3       1 NAD402      0.0000 
     29 C4D         6.0620    4.3800   40.1780 C.3       1 NAD402      0.0000 
     30 O4D         6.7910    3.2050   40.6940 O.3       1 NAD402      0.0000 
     31 C3D         5.0600    3.8540   39.2570 C.3       1 NAD402      0.0000 
     32 O3D         5.6330    3.9640   37.9470 O.3       1 NAD402      0.0000 
     33 C2D         4.8660    2.4660   39.5840 C.3       1 NAD402      0.0000 
     34 O2D         4.4230    1.7160   38.4480 O.3       1 NAD402      0.0000 
     35 C1D         6.1660    2.0290   40.0020 C.3       1 NAD402      0.0000 
     36 N1N         6.1120    0.9300   40.8730 N.pl3     1 NAD402      0.0000 
     37 C2N         5.4620    1.0380   42.0990 C.ar      1 NAD402      0.0000 
     38 C3N         5.4180   -0.0470   42.9640 C.ar      1 NAD402      0.0000 
     39 C7N         4.6940    0.0970   44.2970 C.2       1 NAD402      0.0000 
     40 O7N         4.8480   -0.7900   45.1690 O.2       1 NAD402      0.0000 
     41 N7N         3.8080    1.2560   44.6180 N.am      1 NAD402      0.0000 
     42 C4N         6.0290   -1.2280   42.6050 C.ar      1 NAD402      0.0000 
     43 C5N         6.6830   -1.3400   41.3860 C.ar      1 NAD402      0.0000 
     44 C6N         6.7250   -0.2520   40.5310 C.ar      1 NAD402      0.0000 
     45 H           0.5938    5.9058   39.9102 H         1 NAD402      0.0000 
     46 H           2.2998    6.3680   39.7839 H         1 NAD402      0.0000 
     47 H           1.5593    8.7403   40.1298 H         1 NAD402      0.0000 
     48 H          -0.8422    7.3839   40.5834 H         1 NAD402      0.0000 
     49 H          -1.5062    7.3491   38.4740 H         1 NAD402      0.0000 
     50 H           0.0477    9.8006   37.9662 H         1 NAD402      0.0000 
     51 H          -1.3963    6.5523   36.5908 H         1 NAD402      0.0000 
     52 H          -1.6660    7.8733   31.8287 H         1 NAD402      0.0000 
     53 H          -2.1110    9.5241   31.2788 H         1 NAD402      0.0000 
     54 H           0.3313   12.2271   34.0588 H         1 NAD402      0.0000 
     55 H           6.2185    5.6040   41.8895 H         1 NAD402      0.0000 
     56 H           4.8145    5.9384   40.8613 H         1 NAD402      0.0000 
     57 H           6.7522    5.0078   39.6376 H         1 NAD402      0.0000 
     58 H           4.1659    4.4054   39.3385 H         1 NAD402      0.0000 
     59 H           4.1791    2.3833   40.4056 H         1 NAD402      0.0000 
     60 H           6.7766    1.8186   39.1270 H         1 NAD402      0.0000 
     61 H           5.0128    1.9261   42.3638 H         1 NAD402      0.0000 
     62 H           3.3450    1.2238   45.5038 H         1 NAD402      0.0000 
     63 H           3.7490    1.9710   43.9213 H         1 NAD402      0.0000 
     64 H           6.0029   -2.0399   43.2452 H         1 NAD402      0.0000 
     65 H           7.1322   -2.2245   41.1215 H         1 NAD402      0.0000 
     66 H           7.2237   -0.3336   39.6267 H         1 NAD402      0.0000 
     67 H          -0.1770   10.1383   40.1848 H         1 NAD402      0.0000 
     68 H          -1.7605   10.1752   38.6808 H         1 NAD402      0.0000 
     69 H           6.6188    4.0316   38.1007 H         1 NAD402      0.0000 
     70 H           4.6035    2.3068   37.6616 H         1 NAD402      0.0000 
@<TRIPOS>BOND
     1    2    1 ar   
     2    3    1 ar   
     3    4    1 1    
     4   23    1 1    
     5    5    4 1    
     6    6    5 1    
     7   45    5 1    
     8   46    5 1    
     9    7    6 1    
    10    8    6 1    
    11   47    6 1    
    12   12    7 1    
    13    9    8 1    
    14   10    8 1    
    15   48    8 1    
    16   67    9 1    
    17   11   10 1    
    18   12   10 1    
    19   49   10 1    
    20   68   11 1    
    21   13   12 1    
    22   50   12 1    
    23   14   13 1    
    24   22   13 1    
    25   15   14 2    
    26   51   14 1    
    27   16   15 1    
    28   17   16 ar   
    29   22   16 ar   
    30   18   17 1    
    31   19   17 ar   
    32   52   18 1    
    33   53   18 1    
    34   20   19 ar   
    35   21   20 ar   
    36   54   20 1    
    37   22   21 ar   
    38   24   23 1    
    39   25   24 ar   
    40   26   24 ar   
    41   27   24 1    
    42   28   27 1    
    43   29   28 1    
    44   55   28 1    
    45   56   28 1    
    46   30   29 1    
    47   31   29 1    
    48   57   29 1    
    49   35   30 1    
    50   32   31 1    
    51   33   31 1    
    52   58   31 1    
    53   69   32 1    
    54   34   33 1    
    55   35   33 1    
    56   59   33 1    
    57   70   34 1    
    58   36   35 1    
    59   60   35 1    
    60   37   36 ar   
    61   44   36 ar   
    62   38   37 ar   
    63   61   37 1    
    64   39   38 1    
    65   42   38 ar   
    66   40   39 2    
    67   41   39 am   
    68   62   41 1    
    69   63   41 1    
    70   43   42 ar   
    71   64   42 1    
    72   44   43 ar   
    73   65   43 1    
    74   66   44 1    
@<TRIPOS>SUBSTRUCTURE
     1 NAD402      1 GROUP   
@<TRIPOS>SET

