#    Name: 2pkr_NDP_11_INTS_M
#    Modification time : Mon Mar 24 19:11:30 2014

@<TRIPOS>MOLECULE
2pkr_NDP_11_INTS_M
   77     0    12     0     0
SMALL
NO_CHARGES


@<TRIPOS>ATOM
      1 N          36.3605   17.8815   36.8570 N.am      2 SEC2        0.0000 
      2 N          36.2440   17.1120   35.5810 N.am     10 SEL2        0.0000 
      3 N          36.4770   18.6510   38.1330 N.am      6 SEP2        0.0000 
      4 CA         35.2165   19.9565   34.5825 C.3       4 GLC5        0.0000 
      5 CA         34.8960   19.7210   32.6240 C.3      12 GLL5        0.0000 
      6 CA         35.5370   20.1920   36.5410 C.3       8 GLP5        0.0000 
      7 N          33.5680   20.1535   28.2740 N.am      2 SEC2        0.0000 
      8 N          33.9400   19.9520   29.9670 N.am     10 SEL2        0.0000 
      9 N          33.1960   20.3550   26.5810 N.am      6 SEP2        0.0000 
     10 CA         37.9275   21.2260   30.7080 C.3       4 GLC5        0.0000 
     11 CA         35.8230   20.6670   30.4680 C.3      12 GLL5        0.0000 
     12 CA         40.0320   21.7850   30.9480 C.3       8 GLP5        0.0000 
     13 N          35.9690   21.2000   26.1805 N.am      2 SEC2        0.0000 
     14 N          37.0240   21.2970   27.1050 N.am     10 SEL2        0.0000 
     15 N          34.9140   21.1030   25.2560 N.am      6 SEP2        0.0000 
     16 CA         38.2325   22.6225   28.5205 C.3       4 GLC5        0.0000 
     17 CA         36.6500   22.6670   27.3430 C.3      12 GLL5        0.0000 
     18 CA         39.8150   22.5780   29.6980 C.3       8 GLP5        0.0000 
     19 CA         35.7080   24.7895   25.1925 C.3       4 GLC5        0.0000 
     20 CA         36.6940   23.7460   26.4000 C.3      12 GLL5        0.0000 
     21 CA         34.7220   25.8330   23.9850 C.3       8 GLP5        0.0000 
     22 CA         37.9810   23.8410   28.2205 C.3       4 GLC5        0.0000 
     23 CA         39.2680   23.9360   30.0410 C.3       8 GLP5        0.0000 
     24 O          37.0825   24.6825   24.2820 O.2       1 ALC1        0.0000 
     25 O          37.1240   23.6100   25.1630 O.2       9 ALL1        0.0000 
     26 O          37.0410   25.7550   23.4010 O.2       5 ALP1        0.0000 
     27 CA         34.0705   24.9075   27.9415 C.3       4 GLC5        0.0000 
     28 CA         35.7930   25.1010   28.2280 C.3      12 GLL5        0.0000 
     29 CA         32.3480   24.7140   27.6550 C.3       8 GLP5        0.0000 
     30 CA         35.2575   25.4670   26.1065 C.3       4 GLC5        0.0000 
     31 CA         37.5305   24.5185   29.1345 C.3       4 GLC5        0.0000 
     32 CA         36.5300   23.5535   30.8050 C.3       4 GLC5        0.0000 
     33 CA         36.1850   22.7990   28.7140 C.3      12 GLL5        0.0000 
     34 CA         36.8750   24.3080   32.8960 C.3       8 GLP5        0.0000 
     35 CA         34.2665   23.7565   28.1845 C.3       4 GLC5        0.0000 
     36 CA         37.7265   23.3675   29.3775 C.3       4 GLC5        0.0000 
     37 N          39.3440   19.1820   38.0575 N.am      2 SEC2        0.0000 
     38 N          39.6750   18.7950   36.8620 N.am     10 SEL2        0.0000 
     39 N          39.0130   19.5690   39.2530 N.am      6 SEP2        0.0000 
     40 CA         41.7045   20.9865   34.2360 C.3       4 GLC5        0.0000 
     41 CA         41.7590   18.7960   34.3730 C.3      12 GLL5        0.0000 
     42 CA         41.6500   23.1770   34.0990 C.3       8 GLP5        0.0000 
     43 N          44.0535   20.5660   35.6835 N.am      2 SEC2        0.0000 
     44 N          43.8440   19.2090   35.4090 N.am     10 SEL2        0.0000 
     45 N          44.2630   21.9230   35.9580 N.am      6 SEP2        0.0000 
     46 CA         43.1440   18.5850   37.5950 C.3       4 GLC5        0.0000 
     47 CA         44.3470   18.0720   36.2020 C.3      12 GLL5        0.0000 
     48 CA         41.9410   19.0980   38.9880 C.3       8 GLP5        0.0000 
     49 CA         45.9895   18.7415   34.9295 C.3       4 GLC5        0.0000 
     50 CA         47.6320   19.4110   33.6570 C.3       8 GLP5        0.0000 
     51 CA         42.9065   17.6210   38.2705 C.3       4 GLC5        0.0000 
     52 CA         43.8720   16.1440   37.5530 C.3      12 GLL5        0.0000 
     53 N          43.0275   13.3565   41.3805 N.am      2 SEC2        0.0000 
     54 N          43.2470   14.4560   40.5320 N.am     10 SEL2        0.0000 
     55 N          42.8080   12.2570   42.2290 N.am      6 SEP2        0.0000 
     56 CA         45.7130   17.6055   41.4490 C.3       4 GLC5        0.0000 
     57 CA         45.0040   16.6350   39.7700 C.3      12 GLL5        0.0000 
     58 CA         46.4220   18.5760   43.1280 C.3       8 GLP5        0.0000 
     59 NZ         33.1985   19.7615   26.7290 N.4       3 LYC4        0.0000 
     60 NZ         32.7830   18.4910   27.9340 N.4      11 LYL4        0.0000 
     61 NZ         33.6140   21.0320   25.5240 N.4       7 LYP4        0.0000 
     62 CA         36.9372   22.1508   33.0433 C.3       4 GLC5        0.0000 
     63 CA         36.5580   19.8840   32.6340 C.3      12 GLL5        0.0000 
     64 CA         36.2683   20.0928   34.8657 C.3       4 GLC5        0.0000 
     65 CA         37.4410   20.1030   33.7470 C.3      12 GLL5        0.0000 
     66 CA         38.5157   20.8893   32.0692 C.3       4 GLC5        0.0000 
     67 CA         38.6355   22.3962   26.6193 C.3       4 GLC5        0.0000 
     68 CA         40.5990   21.5860   26.3670 C.3       8 GLP5        0.0000 
     69 CA         43.0453   18.9405   32.0796 C.3       4 GLC5        0.0000 
     70 CA         44.0780   18.2970   33.3770 C.3      12 GLL5        0.0000 
     71 CA         42.8350   19.3810   30.2860 C.3       8 GLP5        0.0000 
     72 CA         46.0975   18.6692   33.8240 C.3       4 GLC5        0.0000 
     73 CA         46.6570   15.9585   40.3333 C.3       4 GLC5        0.0000 
     74 CA         47.8210   14.9370   41.3890 C.3       8 GLP5        0.0000 
     75 CA         43.7989   17.7806   39.7470 C.3       4 GLC5        0.0000 
     76 CA         45.9820   17.3250   38.7850 C.3      12 GLL5        0.0000 
     77 CA         42.3800   18.7360   40.4280 C.3       8 GLP5        0.0000 
@<TRIPOS>BOND
@<TRIPOS>SUBSTRUCTURE
     1 ALC1       24 GROUP        1 X    ALC  0     ROOT ALC X 1
     2 SEC2        1 GROUP        1 X    SEC  0     **** SEC X 2
     3 LYC4       59 GROUP        1 X    LYC  0     **** LYC X 4
     4 GLC5        4 GROUP        1 X    GLC  0     **** GLC X 6
     5 ALP1       26 GROUP        1 Y    ALP  0     ROOT ALP Y 8
     6 SEP2        3 GROUP        1 Y    SEP  0     **** SEP Y 9
     7 LYP4       61 GROUP        1 Y    LYP  0     **** LYP Y 11
     8 GLP5        6 GROUP        1 Y    GLP  0     **** GLP Y 13
     9 ALL1       25 GROUP        1 Z    ALL  0     ROOT ALL Z 15
    10 SEL2        2 GROUP        1 Z    SEL  0     **** SEL Z 16
    11 LYL4       60 GROUP        1 Z    LYL  0     **** LYL Z 18
    12 GLL5        5 GROUP        1 Z    GLL  0     **** GLL Z 20
@<TRIPOS>SET

