#    Name: 2pkr_NDP_11_ligand
#    Modification time : Mon Mar 24 19:11:30 2014

@<TRIPOS>MOLECULE
2pkr_NDP_11_ligand
   74    78     1     0     0
SMALL
NO_CHARGES


@<TRIPOS>ATOM
      1 PA         37.3870   17.2790   34.5260 P.3       1 NDP375      0.0000 
      2 O1A        36.7570   16.6570   33.2910 O.co2     1 NDP375      0.0000 
      3 O2A        36.2440   17.1120   35.5810 O.co2     1 NDP375      0.0000 
      4 O5B        37.7080   19.0490   34.5880 O.3       1 NDP375      0.0000 
      5 C5B        37.4410   20.1030   33.7470 C.3       1 NDP375      0.0000 
      6 C4B        36.5580   19.8840   32.6340 C.3       1 NDP375      0.0000 
      7 O4B        36.7400   20.9960   31.4370 O.3       1 NDP375      0.0000 
      8 C3B        34.8960   19.7210   32.6240 C.3       1 NDP375      0.0000 
      9 O3B        34.1110   20.2910   33.8170 O.3       1 NDP375      0.0000 
     10 C2B        34.7320   20.1080   31.0880 C.3       1 NDP375      0.0000 
     11 O2B        33.9400   19.9520   29.9670 O.3       1 NDP375      0.0000 
     12 C1B        35.8230   20.6670   30.4680 C.3       1 NDP375      0.0000 
     13 N9A        36.2540   21.4710   29.2600 N.pl3     1 NDP375      0.0000 
     14 C8A        36.7970   20.7620   28.1950 C.2       1 NDP375      0.0000 
     15 N7A        37.0240   21.2970   27.1050 N.2       1 NDP375      0.0000 
     16 C5A        36.6500   22.6670   27.3430 C.ar      1 NDP375      0.0000 
     17 C6A        36.6940   23.7460   26.4000 C.ar      1 NDP375      0.0000 
     18 N6A        37.1240   23.6100   25.1630 N.pl3     1 NDP375      0.0000 
     19 N1A        36.2450   25.0440   26.9730 N.ar      1 NDP375      0.0000 
     20 C2A        35.7930   25.1010   28.2280 C.ar      1 NDP375      0.0000 
     21 N3A        35.6980   24.0390   29.1950 N.ar      1 NDP375      0.0000 
     22 C4A        36.1850   22.7990   28.7140 C.ar      1 NDP375      0.0000 
     23 O3         38.6220   17.0900   35.1560 O.3       1 NDP375      0.0000 
     24 PN         39.8530   17.3670   36.1200 P.3       1 NDP375      0.0000 
     25 O1N        40.0530   16.0870   36.7770 O.co2     1 NDP375      0.0000 
     26 O2N        39.6750   18.7950   36.8620 O.co2     1 NDP375      0.0000 
     27 O5D        41.1250   17.4730   34.9320 O.3       1 NDP375      0.0000 
     28 C5D        41.7590   18.7960   34.3730 C.3       1 NDP375      0.0000 
     29 C4D        43.1070   18.6100   34.3660 C.3       1 NDP375      0.0000 
     30 O4D        43.8440   19.2090   35.4090 O.3       1 NDP375      0.0000 
     31 C3D        44.0780   18.2970   33.3770 C.3       1 NDP375      0.0000 
     32 O3D        43.4610   17.6370   32.2250 O.3       1 NDP375      0.0000 
     33 C2D        45.0480   17.5580   34.6050 C.3       1 NDP375      0.0000 
     34 O2D        45.4040   16.4890   34.7410 O.3       1 NDP375      0.0000 
     35 C1D        44.3470   18.0720   36.2020 C.3       1 NDP375      0.0000 
     36 N1N        44.8310   16.8250   36.7340 N.pl3     1 NDP375      0.0000 
     37 C2N        43.8720   16.1440   37.5530 C.2       1 NDP375      0.0000 
     38 C3N        43.9030   16.0160   38.9240 C.2       1 NDP375      0.0000 
     39 C7N        42.8960   15.1260   39.5380 C.2       1 NDP375      0.0000 
     40 O7N        43.2470   14.4560   40.5320 O.2       1 NDP375      0.0000 
     41 N7N        41.6610   15.1090   38.8180 N.am      1 NDP375      0.0000 
     42 C4N        45.0040   16.6350   39.7700 C.3       1 NDP375      0.0000 
     43 C5N        45.9820   17.3250   38.7850 C.2       1 NDP375      0.0000 
     44 C6N        45.8470   17.3600   37.4630 C.2       1 NDP375      0.0000 
     45 P2B        33.3200   18.5820   29.3400 P.3       1 NDP375      0.0000 
     46 O1X        32.7830   18.4910   27.9340 O.co2     1 NDP375      0.0000 
     47 O2X        34.1690   17.4130   29.8120 O.co2     1 NDP375      0.0000 
     48 O3X        32.0440   18.8600   30.3530 O.co2     1 NDP375      0.0000 
     49 H          38.4204   20.5421   33.3369 H         1 NDP375      0.0000 
     50 H          37.0362   20.9964   34.3456 H         1 NDP375      0.0000 
     51 H          36.8734   18.9372   32.0262 H         1 NDP375      0.0000 
     52 H          34.8340   18.5759   32.5992 H         1 NDP375      0.0000 
     53 H          34.2489   21.3875   31.3630 H         1 NDP375      0.0000 
     54 H          36.4790   19.5613   30.1373 H         1 NDP375      0.0000 
     55 H          36.9995   19.7315   28.3920 H         1 NDP375      0.0000 
     56 H          37.3875   22.6854   24.8879 H         1 NDP375      0.0000 
     57 H          37.1479   24.4437   24.6113 H         1 NDP375      0.0000 
     58 H          35.4409   26.0618   28.6056 H         1 NDP375      0.0000 
     59 H          41.4177   19.5926   35.0332 H         1 NDP375      0.0000 
     60 H          41.3197   18.9440   33.3871 H         1 NDP375      0.0000 
     61 H          43.1473   17.4017   34.9561 H         1 NDP375      0.0000 
     62 H          44.6203   19.2084   33.1880 H         1 NDP375      0.0000 
     63 H          45.9284   18.3946   34.6608 H         1 NDP375      0.0000 
     64 H          45.6635   18.6545   36.2204 H         1 NDP375      0.0000 
     65 H          43.0545   15.6952   37.0244 H         1 NDP375      0.0000 
     66 H          40.9385   14.5308   39.1972 H         1 NDP375      0.0000 
     67 H          41.6232   15.6767   37.9956 H         1 NDP375      0.0000 
     68 H          45.5300   15.8732   40.3055 H         1 NDP375      0.0000 
     69 H          44.5939   17.3729   40.4265 H         1 NDP375      0.0000 
     70 H          46.7923   17.7789   39.2875 H         1 NDP375      0.0000 
     71 H          46.6256   17.8677   36.8933 H         1 NDP375      0.0000 
     72 H          34.7793   20.3586   34.5578 H         1 NDP375      0.0000 
     73 H          44.1960   17.5496   31.5526 H         1 NDP375      0.0000 
     74 H          46.3689   16.5024   34.4788 H         1 NDP375      0.0000 
@<TRIPOS>BOND
     1    2    1 ar   
     2    3    1 ar   
     3    4    1 1    
     4   23    1 1    
     5    5    4 1    
     6    6    5 1    
     7   49    5 1    
     8   50    5 1    
     9    7    6 1    
    10    8    6 1    
    11   51    6 1    
    12   12    7 1    
    13    9    8 1    
    14   10    8 1    
    15   52    8 1    
    16   72    9 1    
    17   11   10 1    
    18   12   10 1    
    19   53   10 1    
    20   45   11 1    
    21   13   12 1    
    22   54   12 1    
    23   14   13 1    
    24   22   13 1    
    25   15   14 2    
    26   55   14 1    
    27   16   15 1    
    28   17   16 ar   
    29   22   16 ar   
    30   18   17 1    
    31   19   17 ar   
    32   56   18 1    
    33   57   18 1    
    34   20   19 ar   
    35   21   20 ar   
    36   58   20 1    
    37   22   21 ar   
    38   24   23 1    
    39   25   24 ar   
    40   26   24 ar   
    41   27   24 1    
    42   28   27 1    
    43   29   28 1    
    44   59   28 1    
    45   60   28 1    
    46   30   29 1    
    47   31   29 1    
    48   61   29 1    
    49   35   30 1    
    50   32   31 1    
    51   33   31 1    
    52   62   31 1    
    53   73   32 1    
    54   34   33 1    
    55   35   33 1    
    56   63   33 1    
    57   74   34 1    
    58   36   35 1    
    59   64   35 1    
    60   37   36 1    
    61   44   36 1    
    62   38   37 2    
    63   65   37 1    
    64   39   38 1    
    65   42   38 1    
    66   40   39 2    
    67   41   39 am   
    68   66   41 1    
    69   67   41 1    
    70   43   42 1    
    71   68   42 1    
    72   69   42 1    
    73   44   43 2    
    74   70   43 1    
    75   71   44 1    
    76   46   45 ar   
    77   47   45 ar   
    78   48   45 ar   
@<TRIPOS>SUBSTRUCTURE
     1 NDP375      1 GROUP   
@<TRIPOS>SET

