#    Name: 3bqm_BQM_1_INTS_M
#    Modification time : Mon Mar 24 19:57:14 2014

@<TRIPOS>MOLECULE
3bqm_BQM_1_INTS_M
   92     0     9     0     0
SMALL
NO_CHARGES


@<TRIPOS>ATOM
      1 CA         21.5490  -13.2925  -31.0220 C.3       3 GLC5        0.0000 
      2 CA         19.9490  -14.3100  -30.3440 C.3       9 GLL5        0.0000 
      3 CA         23.1490  -12.2750  -31.7000 C.3       6 GLP5        0.0000 
      4 CA         19.1340  -12.8740  -31.6440 C.3       3 GLC5        0.0000 
      5 CA         18.3190  -11.4380  -32.9440 C.3       6 GLP5        0.0000 
      6 CA         18.0460  -14.5915  -33.6290 C.3       3 GLC5        0.0000 
      7 CA         18.5920  -14.6080  -31.7900 C.3       9 GLL5        0.0000 
      8 CA         17.5000  -14.5750  -35.4680 C.3       6 GLP5        0.0000 
      9 CA         22.1580  -16.0300  -30.4830 C.3       3 GLC5        0.0000 
     10 CA         21.5280  -15.4160  -28.7310 C.3       9 GLL5        0.0000 
     11 CA         22.7880  -16.6440  -32.2350 C.3       6 GLP5        0.0000 
     12 CA         21.2390  -14.8950  -25.6060 C.3       3 GLC5        0.0000 
     13 CA         20.4590  -16.1440  -26.9950 C.3       9 GLL5        0.0000 
     14 CA         22.0190  -13.6460  -24.2170 C.3       6 GLP5        0.0000 
     15 CA         17.1500  -15.6340  -33.7710 C.3       3 GLC5        0.0000 
     16 CA         16.8000  -16.6930  -32.0740 C.3       9 GLL5        0.0000 
     17 CA         15.5040  -15.2340  -33.0105 C.3       3 GLC5        0.0000 
     18 CA         14.2080  -13.7750  -33.9470 C.3       6 GLP5        0.0000 
     19 O          12.8325  -21.5830  -33.5930 O.2       1 ALC1        0.0000 
     20 O          13.6210  -20.6880  -32.4060 O.2       7 ALL1        0.0000 
     21 O          12.0440  -22.4780  -34.7800 O.2       4 ALP1        0.0000 
     22 CA         15.9670  -22.2045  -34.5065 C.3       3 GLC5        0.0000 
     23 CA         15.1300  -20.3170  -34.1880 C.3       9 GLL5        0.0000 
     24 CA         16.8040  -24.0920  -34.8250 C.3       6 GLP5        0.0000 
     25 CA         22.3975  -17.7075  -28.1270 C.3       3 GLC5        0.0000 
     26 CA         20.3930  -18.5760  -27.6230 C.3       9 GLL5        0.0000 
     27 CA         24.4020  -16.8390  -28.6310 C.3       6 GLP5        0.0000 
     28 CA         20.6265  -20.9895  -29.0945 C.3       3 GLC5        0.0000 
     29 CA         20.6190  -19.8770  -27.4140 C.3       9 GLL5        0.0000 
     30 CA         20.6340  -22.1020  -30.7750 C.3       6 GLP5        0.0000 
     31 N          22.3650  -18.9965  -24.5690 N.am      2 SEC2        0.0000 
     32 N          22.3060  -19.4680  -25.8790 N.am      8 SEL2        0.0000 
     33 N          22.4240  -18.5250  -23.2590 N.am      5 SEP2        0.0000 
     34 CA         25.2860  -23.8720  -25.6380 C.3       3 GLC5        0.0000 
     35 CA         23.3450  -23.0120  -25.3330 C.3       9 GLL5        0.0000 
     36 CA         27.2270  -24.7320  -25.9430 C.3       6 GLP5        0.0000 
     37 CA         24.4085  -22.3195  -26.8525 C.3       3 GLC5        0.0000 
     38 CA         25.4720  -21.6270  -28.3720 C.3       6 GLP5        0.0000 
     39 CA         23.9625  -24.4405  -26.7990 C.3       3 GLC5        0.0000 
     40 CA         24.5800  -25.8690  -28.2650 C.3       6 GLP5        0.0000 
     41 CA         23.1030  -24.7880  -27.5615 C.3       3 GLC5        0.0000 
     42 CA         21.6260  -23.7070  -26.8580 C.3       9 GLL5        0.0000 
     43 CA         21.1300  -22.9045  -28.8165 C.3       3 GLC5        0.0000 
     44 CA         20.0155  -22.5385  -28.3630 C.3       3 GLC5        0.0000 
     45 CA         20.6760  -22.6220  -26.3520 C.3       9 GLL5        0.0000 
     46 CA         19.3550  -22.4550  -30.3740 C.3       6 GLP5        0.0000 
     47 CA         18.7600  -22.5285  -25.6585 C.3       3 GLC5        0.0000 
     48 CA         16.8440  -22.4350  -24.9650 C.3       6 GLP5        0.0000 
     49 CA         18.9931  -12.5129  -29.5696 C.3       3 GLC5        0.0000 
     50 CA         17.8520  -14.0050  -29.8980 C.3       9 GLL5        0.0000 
     51 CA         19.3910  -10.7560  -28.9800 C.3       6 GLP5        0.0000 
     52 CA         17.7870  -13.0550  -31.6029 C.3       3 GLC5        0.0000 
     53 CA         17.1330  -11.6150  -32.2120 C.3       6 GLP5        0.0000 
     54 CA         20.1656  -15.0061  -32.5706 C.3       3 GLC5        0.0000 
     55 CA         21.3660  -15.4410  -34.0360 C.3       6 GLP5        0.0000 
     56 CA         17.7424  -14.1747  -29.2699 C.3       3 GLC5        0.0000 
     57 CA         18.6880  -16.2320  -30.1010 C.3       9 GLL5        0.0000 
     58 CA         16.8440  -13.0140  -28.0020 C.3       6 GLP5        0.0000 
     59 CA         20.7596  -16.9393  -30.4209 C.3       3 GLC5        0.0000 
     60 CA         20.3540  -15.7230  -28.2400 C.3       9 GLL5        0.0000 
     61 CA         21.7890  -17.7860  -31.9310 C.3       6 GLP5        0.0000 
     62 CA         18.4273  -14.0888  -28.0823 C.3       3 GLC5        0.0000 
     63 CA         20.7915  -13.4269  -27.9806 C.3       3 GLC5        0.0000 
     64 CA         19.6670  -14.6040  -28.0850 C.3       9 GLL5        0.0000 
     65 CA         21.2790  -11.7670  -27.6760 C.3       6 GLP5        0.0000 
     66 CA         22.5510  -16.3479  -28.1856 C.3       3 GLC5        0.0000 
     67 CA         19.5639  -16.0324  -25.8819 C.3       3 GLC5        0.0000 
     68 CA         18.8930  -16.4110  -24.1850 C.3       6 GLP5        0.0000 
     69 CA         19.8395  -17.8058  -31.2820 C.3       3 GLC5        0.0000 
     70 CA         17.8770  -17.1500  -30.8130 C.3       9 GLL5        0.0000 
     71 CA         14.4820  -18.3353  -34.4603 C.3       3 GLC5        0.0000 
     72 CA         16.1410  -18.0710  -32.8470 C.3       9 GLL5        0.0000 
     73 CA         13.3370  -18.2210  -36.3600 C.3       6 GLP5        0.0000 
     74 CA         14.1037  -19.1755  -34.9642 C.3       3 GLC5        0.0000 
     75 CA         15.4030  -21.1215  -36.1215 C.3       3 GLC5        0.0000 
     76 CA         15.1650  -22.3020  -37.7700 C.3       6 GLP5        0.0000 
     77 CA         18.1855  -19.6755  -34.2612 C.3       3 GLC5        0.0000 
     78 CA         16.1520  -19.5650  -34.7580 C.3       9 GLL5        0.0000 
     79 CA         19.9710  -20.3460  -34.0980 C.3       6 GLP5        0.0000 
     80 CA         16.7541  -17.3122  -35.2687 C.3       3 GLC5        0.0000 
     81 CA         17.2350  -15.7130  -36.4240 C.3       6 GLP5        0.0000 
     82 CA         14.8685  -18.6130  -35.3922 C.3       3 GLC5        0.0000 
     83 CA         16.6480  -18.4450  -34.0910 C.3       9 GLL5        0.0000 
     84 CA         20.4535  -18.1472  -30.4980 C.3       3 GLC5        0.0000 
     85 CA         18.7200  -18.9570  -29.4200 C.3       9 GLL5        0.0000 
     86 CA         18.3440  -18.3723  -27.1895 C.3       3 GLC5        0.0000 
     87 CA         19.5160  -18.0600  -28.7100 C.3       9 GLL5        0.0000 
     88 CA         17.5700  -18.2360  -25.3140 C.3       6 GLP5        0.0000 
     89 CA         19.0380  -18.7312  -26.4162 C.3       3 GLC5        0.0000 
     90 CA         24.6855  -21.5595  -24.1943 C.3       3 GLC5        0.0000 
     91 CA         22.4370  -21.9220  -24.7800 C.3       9 GLL5        0.0000 
     92 CA         26.4800  -20.6520  -23.3320 C.3       6 GLP5        0.0000 
@<TRIPOS>BOND
@<TRIPOS>SUBSTRUCTURE
     1 ALC1       19 GROUP        1 X    ALC  0     ROOT ALC X 1
     2 SEC2       31 GROUP        1 X    SEC  0     **** SEC X 2
     3 GLC5        1 GROUP        1 X    GLC  0     **** GLC X 6
     4 ALP1       21 GROUP        1 Y    ALP  0     ROOT ALP Y 8
     5 SEP2       33 GROUP        1 Y    SEP  0     **** SEP Y 9
     6 GLP5        3 GROUP        1 Y    GLP  0     **** GLP Y 13
     7 ALL1       20 GROUP        1 Z    ALL  0     ROOT ALL Z 15
     8 SEL2       32 GROUP        1 Z    SEL  0     **** SEL Z 16
     9 GLL5        2 GROUP        1 Z    GLL  0     **** GLL Z 20
@<TRIPOS>SET

