#    Name: 3bqm_BQM_1_ligand
#    Modification time : Mon Mar 24 19:57:14 2014

@<TRIPOS>MOLECULE
3bqm_BQM_1_ligand
   50    52     1     0     0
SMALL
NO_CHARGES


@<TRIPOS>ATOM
      1 F6         19.9490  -14.3100  -30.3440 F         1 BQM1        0.0000 
      2 C12        18.7280  -14.7590  -30.4970 C.3       1 BQM1        0.0000 
      3 F4         17.8520  -14.0050  -29.8980 F         1 BQM1        0.0000 
      4 F5         18.5920  -14.6080  -31.7900 F         1 BQM1        0.0000 
      5 C11        18.6880  -16.2320  -30.1010 C.ar      1 BQM1        0.0000 
      6 C9         19.5250  -16.6920  -29.0620 C.ar      1 BQM1        0.0000 
      7 C10        20.3540  -15.7230  -28.2400 C.3       1 BQM1        0.0000 
      8 F3         21.5280  -15.4160  -28.7310 F         1 BQM1        0.0000 
      9 F2         19.6670  -14.6040  -28.0850 F         1 BQM1        0.0000 
     10 F1         20.4590  -16.1440  -26.9950 F         1 BQM1        0.0000 
     11 C13        17.8770  -17.1500  -30.8130 C.ar      1 BQM1        0.0000 
     12 S          16.8000  -16.6930  -32.0740 S.3       1 BQM1        0.0000 
     13 C14        16.1410  -18.0710  -32.8470 C.ar      1 BQM1        0.0000 
     14 C19        15.1130  -18.8280  -32.2740 C.ar      1 BQM1        0.0000 
     15 C18        14.6110  -19.9430  -32.9490 C.ar      1 BQM1        0.0000 
     16 N2         13.6210  -20.6880  -32.4060 N.pl3     1 BQM1        0.0000 
     17 C17        15.1300  -20.3170  -34.1880 C.ar      1 BQM1        0.0000 
     18 C16        16.1520  -19.5650  -34.7580 C.ar      1 BQM1        0.0000 
     19 C15        16.6480  -18.4450  -34.0910 C.ar      1 BQM1        0.0000 
     20 C20        17.9030  -18.5010  -30.4530 C.ar      1 BQM1        0.0000 
     21 C21        18.7200  -18.9570  -29.4200 C.ar      1 BQM1        0.0000 
     22 C8         19.5160  -18.0600  -28.7100 C.ar      1 BQM1        0.0000 
     23 C7         20.3930  -18.5760  -27.6230 C.2       1 BQM1        0.0000 
     24 C6         20.6190  -19.8770  -27.4140 C.2       1 BQM1        0.0000 
     25 C1         21.5410  -20.2940  -26.3370 C.2       1 BQM1        0.0000 
     26 O1         22.3060  -19.4680  -25.8790 O.2       1 BQM1        0.0000 
     27 N1         21.5400  -21.5470  -25.8750 N.am      1 BQM1        0.0000 
     28 C5         22.4370  -21.9220  -24.7800 C.3       1 BQM1        0.0000 
     29 C4         23.3450  -23.0120  -25.3330 C.3       1 BQM1        0.0000 
     30 O2         22.5340  -24.0880  -25.8200 O.3       1 BQM1        0.0000 
     31 C3         21.6260  -23.7070  -26.8580 C.3       1 BQM1        0.0000 
     32 C2         20.6760  -22.6220  -26.3520 C.3       1 BQM1        0.0000 
     33 H          14.7300  -18.5639  -31.3608 H         1 BQM1        0.0000 
     34 H          12.9930  -21.1229  -33.0514 H         1 BQM1        0.0000 
     35 H          13.6050  -20.7378  -31.4074 H         1 BQM1        0.0000 
     36 H          14.7604  -21.1395  -34.6735 H         1 BQM1        0.0000 
     37 H          16.5423  -19.8330  -35.6696 H         1 BQM1        0.0000 
     38 H          17.4005  -17.8856  -34.5242 H         1 BQM1        0.0000 
     39 H          17.3042  -19.1727  -30.9640 H         1 BQM1        0.0000 
     40 H          18.7355  -19.9569  -29.1813 H         1 BQM1        0.0000 
     41 H          20.8262  -17.8327  -27.0253 H         1 BQM1        0.0000 
     42 H          20.1886  -20.6258  -27.9600 H         1 BQM1        0.0000 
     43 H          21.8858  -22.3202  -23.9445 H         1 BQM1        0.0000 
     44 H          23.0445  -21.0876  -24.4715 H         1 BQM1        0.0000 
     45 H          24.0093  -23.3389  -24.5297 H         1 BQM1        0.0000 
     46 H          23.9542  -22.5743  -26.1272 H         1 BQM1        0.0000 
     47 H          21.0165  -24.5548  -27.1948 H         1 BQM1        0.0000 
     48 H          22.1546  -23.3076  -27.7325 H         1 BQM1        0.0000 
     49 H          20.0595  -22.2972  -27.1694 H         1 BQM1        0.0000 
     50 H          20.0812  -23.0304  -25.5563 H         1 BQM1        0.0000 
@<TRIPOS>BOND
     1    2    1 1    
     2    3    2 1    
     3    4    2 1    
     4    5    2 1    
     5    6    5 ar   
     6   11    5 ar   
     7    7    6 1    
     8   22    6 ar   
     9    8    7 1    
    10    9    7 1    
    11   10    7 1    
    12   12   11 1    
    13   20   11 ar   
    14   13   12 1    
    15   14   13 ar   
    16   19   13 ar   
    17   15   14 ar   
    18   33   14 1    
    19   16   15 1    
    20   17   15 ar   
    21   34   16 1    
    22   35   16 1    
    23   18   17 ar   
    24   36   17 1    
    25   19   18 ar   
    26   37   18 1    
    27   38   19 1    
    28   21   20 ar   
    29   39   20 1    
    30   22   21 ar   
    31   40   21 1    
    32   23   22 1    
    33   24   23 2    
    34   41   23 1    
    35   25   24 1    
    36   42   24 1    
    37   26   25 2    
    38   27   25 am   
    39   28   27 1    
    40   32   27 1    
    41   29   28 1    
    42   43   28 1    
    43   44   28 1    
    44   30   29 1    
    45   45   29 1    
    46   46   29 1    
    47   31   30 1    
    48   32   31 1    
    49   47   31 1    
    50   48   31 1    
    51   49   32 1    
    52   50   32 1    
@<TRIPOS>SUBSTRUCTURE
     1 BQM1        1 GROUP   
@<TRIPOS>SET

