#    Name: 3ug7_ADP_4_INTS_M
#    Modification time : Mon Mar 24 22:19:34 2014

@<TRIPOS>MOLECULE
3ug7_ADP_4_INTS_M
   52     0    15     0     0
SMALL
NO_CHARGES


@<TRIPOS>ATOM
      1 Zn        -33.1915  105.8850   -5.9395 Zn        4 ZIC7        0.0000 
      2 Zn        -33.3360  106.8380   -5.6600 Zn       14 ZIL7        0.0000 
      3 Zn        -33.0470  104.9320   -6.2190 Zn        9 ZIP7        0.0000 
      4 N         -32.7205  106.4165   -6.6965 N.am      2 SEC2        0.0000 
      5 N         -33.3360  106.8380   -5.6600 N.am     12 SEL2        0.0000 
      6 N         -32.1050  105.9950   -7.7330 N.am      7 SEP2        0.0000 
      7 NZ        -32.2880  106.5225   -2.5135 N.4       3 LYC4        0.0000 
      8 NZ        -33.4420  107.1580   -3.1340 N.4      13 LYL4        0.0000 
      9 NZ        -31.1340  105.8870   -1.8930 N.4       8 LYP4        0.0000 
     10 N         -32.2880  106.5225   -2.5135 N.am      2 SEC2        0.0000 
     11 N         -33.4420  107.1580   -3.1340 N.am     12 SEL2        0.0000 
     12 N         -31.1340  105.8870   -1.8930 N.am      7 SEP2        0.0000 
     13 NZ        -31.3285  107.0180   -3.1710 N.4       3 LYC4        0.0000 
     14 NZ        -31.5230  108.1490   -4.4490 N.4      13 LYL4        0.0000 
     15 N         -30.3915  108.6545   -4.6105 N.am      2 SEC2        0.0000 
     16 N         -31.5230  108.1490   -4.4490 N.am     12 SEL2        0.0000 
     17 N         -29.2600  109.1600   -4.7720 N.am      7 SEP2        0.0000 
     18 N         -30.6495  107.8690   -5.7445 N.am      2 SEC2        0.0000 
     19 N         -29.7760  107.5890   -7.0400 N.am      7 SEP2        0.0000 
     20 N         -31.0670  109.7570   -7.6650 N.am      2 SEC2        0.0000 
     21 N         -32.2500  109.8720   -6.5280 N.am     12 SEL2        0.0000 
     22 N         -29.8840  109.6420   -8.8020 N.am      7 SEP2        0.0000 
     23 N         -31.7705  110.9790   -7.4785 N.am      2 SEC2        0.0000 
     24 N         -31.2910  112.0860   -8.4290 N.am      7 SEP2        0.0000 
     25 CA        -34.8940  110.9035   -3.2665 C.3       5 GLC5        0.0000 
     26 CA        -35.3410  111.6440   -5.0000 C.3      15 GLL5        0.0000 
     27 CA        -34.4470  110.1630   -1.5330 C.3      10 GLP5        0.0000 
     28 N         -29.8885  115.0725   -5.1930 N.am      2 SEC2        0.0000 
     29 N         -31.0570  115.3570   -6.0580 N.am     12 SEL2        0.0000 
     30 N         -28.7200  114.7880   -4.3280 N.am      7 SEP2        0.0000 
     31 CA        -30.2775  119.4875   -7.9795 C.3       5 GLC5        0.0000 
     32 CA        -30.7230  117.9290   -6.4500 C.3      15 GLL5        0.0000 
     33 CA        -29.8320  121.0460   -9.5090 C.3      10 GLP5        0.0000 
     34 O         -28.4105  117.3085   -5.5365 O.2       1 ALC1        0.0000 
     35 O         -29.3730  118.0150   -6.3710 O.2      11 ALL1        0.0000 
     36 O         -27.4480  116.6020   -4.7020 O.2       6 ALP1        0.0000 
     37 O         -28.7315  119.3905   -5.9715 O.2       1 ALC1        0.0000 
     38 O         -28.0900  120.7660   -5.5720 O.2       6 ALP1        0.0000 
     39 N         -31.2370  120.6095   -6.7800 N.am      2 SEC2        0.0000 
     40 N         -31.4800  119.0260   -6.6790 N.am     12 SEL2        0.0000 
     41 N         -30.9940  122.1930   -6.8810 N.am      7 SEP2        0.0000 
     42 CA        -32.9170  119.9000   -5.2235 C.3       5 GLC5        0.0000 
     43 CA        -32.8220  118.9570   -6.7610 C.3      15 GLL5        0.0000 
     44 CA        -33.0120  120.8430   -3.6860 C.3      10 GLP5        0.0000 
     45 CA        -31.9755  120.3975   -8.0375 C.3       5 GLC5        0.0000 
     46 CA        -31.1290  121.8380   -9.3140 C.3      10 GLP5        0.0000 
     47 CA        -32.5700  116.6420   -8.5720 C.3       5 GLC5        0.0000 
     48 CA        -32.8880  116.6400   -6.3920 C.3      15 GLL5        0.0000 
     49 CA        -32.2520  116.6440  -10.7520 C.3      10 GLP5        0.0000 
     50 CA        -31.5710  117.1281   -4.5949 C.3       5 GLC5        0.0000 
     51 CA        -31.4210  116.6320   -6.2890 C.3      15 GLL5        0.0000 
     52 CA        -31.1620  117.2960   -2.8090 C.3      10 GLP5        0.0000 
@<TRIPOS>BOND
@<TRIPOS>SUBSTRUCTURE
     1 ALC1       34 GROUP        1 X    ALC  0     ROOT ALC X 1
     2 SEC2        4 GROUP        1 X    SEC  0     **** SEC X 2
     3 LYC4        7 GROUP        1 X    LYC  0     **** LYC X 4
     4 ZIC7        1 GROUP        1 X    ZIC  0     **** ZIC X 5
     5 GLC5       25 GROUP        1 X    GLC  0     **** GLC X 6
     6 ALP1       36 GROUP        1 Y    ALP  0     ROOT ALP Y 8
     7 SEP2        6 GROUP        1 Y    SEP  0     **** SEP Y 9
     8 LYP4        9 GROUP        1 Y    LYP  0     **** LYP Y 11
     9 ZIP7        3 GROUP        1 Y    ZIP  0     **** ZIP Y 12
    10 GLP5       27 GROUP        1 Y    GLP  0     **** GLP Y 13
    11 ALL1       35 GROUP        1 Z    ALL  0     ROOT ALL Z 15
    12 SEL2        5 GROUP        1 Z    SEL  0     **** SEL Z 16
    13 LYL4        8 GROUP        1 Z    LYL  0     **** LYL Z 18
    14 ZIL7        2 GROUP        1 Z    ZIL  0     **** ZIL Z 19
    15 GLL5       26 GROUP        1 Z    GLL  0     **** GLL Z 20
@<TRIPOS>SET

