#    Name: 3ug7_ADP_4_ligand
#    Modification time : Mon Mar 24 22:19:34 2014

@<TRIPOS>MOLECULE
3ug7_ADP_4_ligand
   39    41     1     0     0
SMALL
NO_CHARGES


@<TRIPOS>ATOM
      1 PB        -32.9570  107.6810   -4.4660 P.3       1 ADP401      0.0000 
      2 O1B       -33.3360  106.8380   -5.6600 O.co2     1 ADP401      0.0000 
      3 O2B       -33.4420  107.1580   -3.1340 O.co2     1 ADP401      0.0000 
      4 O3B       -31.5230  108.1490   -4.4490 O.co2     1 ADP401      0.0000 
      5 PA        -33.6730  109.9010   -6.0280 P.3       1 ADP401      0.0000 
      6 O1A       -34.7770  109.4330   -6.9430 O.co2     1 ADP401      0.0000 
      7 O2A       -32.2500  109.8720   -6.5280 O.co2     1 ADP401      0.0000 
      8 O3A       -33.7820  109.0470   -4.6670 O.3       1 ADP401      0.0000 
      9 O5'       -34.0330  111.3800   -5.5050 O.3       1 ADP401      0.0000 
     10 C5'       -35.3410  111.6440   -5.0000 C.3       1 ADP401      0.0000 
     11 C4'       -35.8300  113.0060   -5.4730 C.3       1 ADP401      0.0000 
     12 O4'       -34.9080  114.0360   -5.1130 O.3       1 ADP401      0.0000 
     13 C3'       -35.9770  113.0400   -6.9850 C.3       1 ADP401      0.0000 
     14 O3'       -37.3030  113.4700   -7.2940 O.3       1 ADP401      0.0000 
     15 C2'       -35.0000  114.0880   -7.4730 C.3       1 ADP401      0.0000 
     16 O2'       -35.6130  114.8960   -8.4810 O.3       1 ADP401      0.0000 
     17 C1'       -34.6840  114.9010   -6.2280 C.3       1 ADP401      0.0000 
     18 N9        -33.2800  115.3760   -6.2150 N.pl3     1 ADP401      0.0000 
     19 C8        -32.1910  114.6110   -6.0150 C.2       1 ADP401      0.0000 
     20 N7        -31.0570  115.3570   -6.0580 N.2       1 ADP401      0.0000 
     21 C5        -31.4210  116.6320   -6.2890 C.ar      1 ADP401      0.0000 
     22 C6        -30.7230  117.9290   -6.4500 C.ar      1 ADP401      0.0000 
     23 N6        -29.3730  118.0150   -6.3710 N.pl3     1 ADP401      0.0000 
     24 N1        -31.4800  119.0260   -6.6790 N.ar      1 ADP401      0.0000 
     25 C2        -32.8220  118.9570   -6.7610 C.ar      1 ADP401      0.0000 
     26 N3        -33.5200  117.8160   -6.6240 N.ar      1 ADP401      0.0000 
     27 C4        -32.8880  116.6400   -6.3920 C.ar      1 ADP401      0.0000 
     28 H         -35.3588  111.6440   -3.9002 H         1 ADP401      0.0000 
     29 H         -36.0665  110.8901   -5.3393 H         1 ADP401      0.0000 
     30 H         -36.8026  113.1952   -5.0411 H         1 ADP401      0.0000 
     31 H         -35.7323  112.1083   -7.3840 H         1 ADP401      0.0000 
     32 H         -34.1173  113.6027   -7.7959 H         1 ADP401      0.0000 
     33 H         -35.3594  115.7376   -6.1945 H         1 ADP401      0.0000 
     34 H         -32.2070  113.6423   -5.8583 H         1 ADP401      0.0000 
     35 H         -28.9789  118.9180   -6.5421 H         1 ADP401      0.0000 
     36 H         -28.8904  117.1679   -6.1486 H         1 ADP401      0.0000 
     37 H         -33.3623  119.8603   -6.9454 H         1 ADP401      0.0000 
     38 H         -37.1964  114.1122   -8.0530 H         1 ADP401      0.0000 
     39 H         -35.0731  114.7331   -9.3068 H         1 ADP401      0.0000 
@<TRIPOS>BOND
     1    2    1 ar   
     2    3    1 ar   
     3    4    1 ar   
     4    8    1 1    
     5    6    5 ar   
     6    7    5 ar   
     7    8    5 1    
     8    9    5 1    
     9   10    9 1    
    10   11   10 1    
    11   28   10 1    
    12   29   10 1    
    13   12   11 1    
    14   13   11 1    
    15   30   11 1    
    16   17   12 1    
    17   14   13 1    
    18   15   13 1    
    19   31   13 1    
    20   38   14 1    
    21   16   15 1    
    22   17   15 1    
    23   32   15 1    
    24   39   16 1    
    25   18   17 1    
    26   33   17 1    
    27   19   18 1    
    28   27   18 1    
    29   20   19 2    
    30   34   19 1    
    31   21   20 1    
    32   22   21 ar   
    33   27   21 ar   
    34   23   22 1    
    35   24   22 ar   
    36   35   23 1    
    37   36   23 1    
    38   25   24 ar   
    39   26   25 ar   
    40   37   25 1    
    41   27   26 ar   
@<TRIPOS>SUBSTRUCTURE
     1 ADP401      1 GROUP   
@<TRIPOS>SET

