#    Name: 3UON_1_CAVITY_N1_6.mol2
#    Modification time : Tue Mar 11 08:53:15 2014

@<TRIPOS>MOLECULE
3UON_1_CAVITY_N1_6.mol2
   92     0     6     0     0
SMALL
NO_CHARGES


@<TRIPOS>ATOM
      1 OG          9.9539    2.2360   -7.0257 O.2       1 SER1        0.0000 
      2 OG          7.8284    0.1202   -6.9480 O.2       1 SER1        0.0000 
      3 CZ          6.7657   -0.9376   -6.9092 C.ar      4 PHE5        0.0000 
      4 CZ          5.7072    0.1235   -6.9689 C.ar      4 PHE5        0.0000 
      5 CZ          6.7615   -3.0567   -6.8105 C.ar      4 PHE5        0.0000 
      6 CZ          5.7030   -1.9955   -6.8703 C.ar      4 PHE5        0.0000 
      7 CA          4.6445   -0.9344   -6.9301 C.3       5 GLY6        0.0000 
      8 NZ         12.0604    2.3025   -5.5065 N.2       3 LYS4        0.0000 
      9 CZ         11.0019    3.3636   -5.5662 C.ar      4 PHE5        0.0000 
     10 CZ         10.9977    1.2446   -5.4676 C.ar      4 PHE5        0.0000 
     11 DU          9.9392    2.3058   -5.5274 H         6 CUB7        0.0000 
     12 CZ          8.8807    3.3669   -5.5872 C.ar      4 PHE5        0.0000 
     13 CZ          9.9350    0.1867   -5.4288 C.ar      4 PHE5        0.0000 
     14 OG          8.8765    1.2479   -5.4885 O.2       1 SER1        0.0000 
     15 CZ          7.8180    2.3090   -5.5483 C.ar      4 PHE5        0.0000 
     16 CZ          7.8138    0.1900   -5.4497 C.ar      4 PHE5        0.0000 
     17 CZ          6.7553    1.2511   -5.5095 C.ar      4 PHE5        0.0000 
     18 CZ          6.7510   -0.8679   -5.4109 C.ar      4 PHE5        0.0000 
     19 N           5.6925    0.1933   -5.4706 N.2       2 ALA2        0.0000 
     20 N           4.6341    1.2544   -5.5304 N.2       2 ALA2        0.0000 
     21 CZ          6.7468   -2.9869   -5.3122 C.ar      4 PHE5        0.0000 
     22 CA          5.6883   -1.9258   -5.3720 C.3       5 GLY6        0.0000 
     23 CA          4.6298   -0.8646   -5.4318 C.3       5 GLY6        0.0000 
     24 CA          9.9288    4.4945   -4.1277 C.3       5 GLY6        0.0000 
     25 NZ         10.9830    1.3144   -3.9693 N.2       3 LYS4        0.0000 
     26 DU          9.9245    2.3755   -4.0291 H         6 CUB7        0.0000 
     27 CA          8.8660    3.4367   -4.0889 C.3       5 GLY6        0.0000 
     28 CZ          9.9203    0.2565   -3.9305 C.ar      4 PHE5        0.0000 
     29 DU          8.8618    1.3176   -3.9902 H         6 CUB7        0.0000 
     30 CZ          7.8033    2.3788   -4.0500 C.ar      4 PHE5        0.0000 
     31 CZ          6.7448    3.4399   -4.1098 C.ar      4 PHE5        0.0000 
     32 CZ          8.8576   -0.8014   -3.8916 C.ar      4 PHE5        0.0000 
     33 DU          7.7991    0.2598   -3.9514 H         6 CUB7        0.0000 
     34 N           6.7406    1.3209   -4.0112 N.2       2 ALA2        0.0000 
     35 O           5.6821    2.3820   -4.0710 O.2       2 ALA2        0.0000 
     36 CZ          7.7948   -1.8593   -3.8528 C.ar      4 PHE5        0.0000 
     37 DU          6.7364   -0.7981   -3.9126 H         6 CUB7        0.0000 
     38 N           5.6779    0.2630   -3.9723 N.2       2 ALA2        0.0000 
     39 CA          6.7321   -2.9171   -3.8139 C.3       5 GLY6        0.0000 
     40 CA          5.6736   -1.8560   -3.8737 C.3       5 GLY6        0.0000 
     41 N           4.6151   -0.7949   -3.9335 N.2       2 ALA2        0.0000 
     42 CA          4.6109   -2.9139   -3.8349 C.3       5 GLY6        0.0000 
     43 OG          9.9098    2.4453   -2.5308 O.2       1 SER1        0.0000 
     44 CA          8.8514    3.5064   -2.5906 C.3       5 GLY6        0.0000 
     45 CA          9.9056    0.3263   -2.4322 C.3       5 GLY6        0.0000 
     46 CZ          8.8471    1.3874   -2.4919 C.ar      4 PHE5        0.0000 
     47 CZ          7.7886    2.4485   -2.5517 C.ar      4 PHE5        0.0000 
     48 CA          9.9014   -1.7928   -2.3335 C.3       5 GLY6        0.0000 
     49 CA          8.8429   -0.7316   -2.3933 C.3       5 GLY6        0.0000 
     50 CZ          7.7844    0.3295   -2.4531 C.ar      4 PHE5        0.0000 
     51 CZ          6.7259    1.3907   -2.5129 C.ar      4 PHE5        0.0000 
     52 CZ          8.8387   -2.8506   -2.2947 C.ar      4 PHE5        0.0000 
     53 DU          7.7802   -1.7895   -2.3545 H         6 CUB7        0.0000 
     54 CZ          6.7217   -0.7284   -2.4143 C.ar      4 PHE5        0.0000 
     55 N           5.6632    0.3328   -2.4740 N.2       2 ALA2        0.0000 
     56 CA          6.7174   -2.8474   -2.3156 C.3       5 GLY6        0.0000 
     57 CA          5.6590   -1.7862   -2.3754 C.3       5 GLY6        0.0000 
     58 CA          4.6005   -0.7251   -2.4352 C.3       5 GLY6        0.0000 
     59 CA          8.8282   -0.6619   -0.8950 C.3       5 GLY6        0.0000 
     60 O           8.8240   -2.7809   -0.7964 O.2       2 ALA2        0.0000 
     61 CZ          7.7655   -1.7197   -0.8562 C.ar      4 PHE5        0.0000 
     62 CZ          6.7070   -0.6586   -0.9159 C.ar      4 PHE5        0.0000 
     63 CZ          5.6485    0.4025   -0.9757 C.ar      4 PHE5        0.0000 
     64 CA          7.7613   -3.8388   -0.7575 C.3       5 GLY6        0.0000 
     65 CA          6.7028   -2.7776   -0.8173 C.3       5 GLY6        0.0000 
     66 N           5.6443   -1.7165   -0.8771 N.2       2 ALA2        0.0000 
     67 CA          7.7508   -1.6500    0.6421 C.3       5 GLY6        0.0000 
     68 CZ          6.6923   -0.5888    0.5824 C.ar      4 PHE5        0.0000 
     69 N           6.6881   -2.7079    0.6810 N.2       2 ALA2        0.0000 
     70 N           5.6296   -1.6467    0.6212 N.2       2 ALA2        0.0000 
     71 CA          6.8244   -1.2167  -12.9024 C.3       5 GLY6        0.0000 
     72 CA          5.7659   -0.1555  -12.9622 C.3       5 GLY6        0.0000 
     73 OG         11.0564    0.9656  -11.4608 O.2       1 SER1        0.0000 
     74 OG          8.9394    3.0879  -11.5804 O.2       1 SER1        0.0000 
     75 OG          9.9937   -0.0923  -11.4220 O.2       1 SER1        0.0000 
     76 OG          8.9352    0.9688  -11.4818 O.2       1 SER1        0.0000 
     77 OG          6.8182    3.0911  -11.6013 O.2       1 SER1        0.0000 
     78 CZ          8.9310   -1.1502  -11.3831 C.ar      4 PHE5        0.0000 
     79 CZ          7.8725   -0.0890  -11.4429 C.ar      4 PHE5        0.0000 
     80 OG          6.8140    0.9721  -11.5027 O.2       1 SER1        0.0000 
     81 CZ          5.7555    2.0332  -11.5625 C.ar      4 PHE5        0.0000 
     82 CA          6.8098   -1.1469  -11.4041 C.3       5 GLY6        0.0000 
     83 CA          4.6928    0.9754  -11.5236 C.3       5 GLY6        0.0000 
     84 OG         14.2257    2.0899   -9.9804 O.2       1 SER1        0.0000 
     85 OG         13.1630    1.0321   -9.9416 O.2       1 SER1        0.0000 
     86 OG          7.8578   -0.0193   -9.9446 O.2       1 SER1        0.0000 
     87 CZ          6.7951   -1.0772   -9.9058 C.ar      4 PHE5        0.0000 
     88 CA          5.7366   -0.0160   -9.9656 C.3       5 GLY6        0.0000 
     89 CZ          6.7804   -1.0074   -8.4075 C.ar      4 PHE5        0.0000 
     90 CZ          5.7219    0.0537   -8.4672 C.ar      4 PHE5        0.0000 
     91 CZ          5.7177   -2.0653   -8.3686 C.ar      4 PHE5        0.0000 
     92 CA          4.6592   -1.0041   -8.4284 C.3       5 GLY6        0.0000 
@<TRIPOS>BOND
@<TRIPOS>SUBSTRUCTURE
     1 SER1        1 GROUP   
     2 ALA2       19 GROUP   
     3 LYS4        8 GROUP   
     4 PHE5        3 GROUP   
     5 GLY6        7 GROUP   
     6 CUB7       11 GROUP   
@<TRIPOS>SET

