#    Name: 3uon_QNB_1_INTS_M
#    Modification time : Mon Mar 24 23:10:34 2014

@<TRIPOS>MOLECULE
3uon_QNB_1_INTS_M
   81     0    12     0     0
SMALL
NO_CHARGES


@<TRIPOS>ATOM
      1 CA          4.3820   -0.3970   -2.1350 C.3       4 GLC5        0.0000 
      2 CA          6.1590   -0.1640   -3.3750 C.3      12 GLL5        0.0000 
      3 CA          2.6050   -0.6300   -0.8950 C.3       8 GLP5        0.0000 
      4 CA          6.9005    0.8250   -1.5605 C.3       4 GLC5        0.0000 
      5 CA          7.6420    1.8140    0.2540 C.3       8 GLP5        0.0000 
      6 CA         10.9995   -2.7130   -2.6500 C.3       4 GLC5        0.0000 
      7 CA          8.8030   -2.6060   -2.1900 C.3      12 GLL5        0.0000 
      8 CA         13.1960   -2.8200   -3.1100 C.3       8 GLP5        0.0000 
      9 CA          7.1615   -1.2450    1.5410 C.3       4 GLC5        0.0000 
     10 CA          7.3980   -2.0280   -0.3240 C.3      12 GLL5        0.0000 
     11 CA          6.9250   -0.4620    3.4060 C.3       8 GLP5        0.0000 
     12 CA          4.6275   -0.9125   -1.0225 C.3       4 GLC5        0.0000 
     13 CA          6.6500   -1.1950   -1.1500 C.3      12 GLL5        0.0000 
     14 CA          5.2150   -3.5100   -3.2475 C.3       4 GLC5        0.0000 
     15 CA          5.4850   -2.1320   -4.7690 C.3      12 GLL5        0.0000 
     16 CA          4.9450   -4.8880   -1.7260 C.3       8 GLP5        0.0000 
     17 CA          4.4000    0.6825   -8.0545 C.3       4 GLC5        0.0000 
     18 CA          5.8940   -0.7060   -7.1220 C.3      12 GLL5        0.0000 
     19 CA          2.9060    2.0710   -8.9870 C.3       8 GLP5        0.0000 
     20 O           3.8785    0.7050   -3.2530 O.2       1 ALC1        0.0000 
     21 O           4.8870    0.0280   -2.7460 O.2       9 ALL1        0.0000 
     22 O           2.8700    1.3820   -3.7600 O.2       5 ALP1        0.0000 
     23 N           4.9885    2.7350   -2.8455 N.am      2 SEC2        0.0000 
     24 N           6.4660    2.1280   -2.8270 N.am     10 SEL2        0.0000 
     25 N           3.5110    3.3420   -2.8640 N.am      6 SEP2        0.0000 
     26 CA          7.4310    2.8725   -5.7880 C.3       4 GLC5        0.0000 
     27 CA          8.7230    2.5190   -4.1280 C.3      12 GLL5        0.0000 
     28 CA          6.1390    3.2260   -7.4480 C.3       8 GLP5        0.0000 
     29 CA          8.2045    4.5180   -3.5575 C.3       4 GLC5        0.0000 
     30 CA          7.6860    6.5170   -2.9870 C.3       8 GLP5        0.0000 
     31 CA         10.6365    0.9435   -1.7020 C.3       4 GLC5        0.0000 
     32 CA          9.7930    2.0930   -3.1290 C.3      12 GLL5        0.0000 
     33 CA         11.4800   -0.2060   -0.2750 C.3       8 GLP5        0.0000 
     34 CA          8.7175    1.9535   -1.4375 C.3       4 GLC5        0.0000 
     35 OD1        12.6985    1.9995   -3.5050 O.co2     3 ASC3        0.0000 
     36 OD1        11.1200    2.4280   -3.6840 O.co2    11 ASL3        0.0000 
     37 OD1        14.2770    1.5710   -3.3260 O.co2     7 ASP3        0.0000 
     38 OD1        12.9265    2.3445   -4.5220 O.co2     3 ASC3        0.0000 
     39 OD1        14.7330    2.2610   -5.3600 O.co2     7 ASP3        0.0000 
     40 O          12.6985    1.9995   -3.5050 O.2       1 ALC1        0.0000 
     41 O          11.1200    2.4280   -3.6840 O.2       9 ALL1        0.0000 
     42 O          14.2770    1.5710   -3.3260 O.2       5 ALP1        0.0000 
     43 O          11.6555    1.6615   -2.2500 O.2       1 ALC1        0.0000 
     44 O          12.1910    0.8950   -0.8160 O.2       5 ALP1        0.0000 
     45 O          11.8655    2.8955   -2.2720 O.2       1 ALC1        0.0000 
     46 O          12.6110    3.3630   -0.8600 O.2       5 ALP1        0.0000 
     47 CA         11.6945    0.2230   -6.0210 C.3       4 GLC5        0.0000 
     48 CA         11.4120    1.7020   -4.9380 C.3      12 GLL5        0.0000 
     49 CA         11.9770   -1.2560   -7.1040 C.3       8 GLP5        0.0000 
     50 CA         10.4535    0.2635   -6.6020 C.3       4 GLC5        0.0000 
     51 CA         10.2910    1.9380   -5.9390 C.3      12 GLL5        0.0000 
     52 CA         10.6160   -1.4110   -7.2650 C.3       8 GLP5        0.0000 
     53 CA          8.8435    4.6405   -6.7115 C.3       4 GLC5        0.0000 
     54 CA         10.2910    4.2290   -5.0730 C.3      12 GLL5        0.0000 
     55 CA          7.3960    5.0520   -8.3500 C.3       8 GLP5        0.0000 
     56 CA         12.8330    4.8955   -3.9570 C.3       4 GLC5        0.0000 
     57 CA         11.1920    3.8860   -3.8910 C.3      12 GLL5        0.0000 
     58 CA         14.4740    5.9050   -4.0230 C.3       8 GLP5        0.0000 
     59 CA          5.8805   -3.0078   -1.7740 C.3       4 GLC5        0.0000 
     60 CA          6.9820   -1.0600   -2.4940 C.3      12 GLL5        0.0000 
     61 CA          9.1242   -3.1082    0.7600 C.3       4 GLC5        0.0000 
     62 CA          8.4750   -2.7350   -0.8440 C.3      12 GLL5        0.0000 
     63 CA         10.3120   -3.8350    2.1040 C.3       8 GLP5        0.0000 
     64 CA          6.4407   -3.6347   -1.1550 C.3       4 GLC5        0.0000 
     65 CA          9.7492   -1.2776   -0.5978 C.3       4 GLC5        0.0000 
     66 CA          3.8543   -2.1827   -4.8857 C.3       4 GLC5        0.0000 
     67 CA          5.9260   -0.8130   -4.7100 C.3      12 GLL5        0.0000 
     68 CA          2.0030   -2.8930   -5.0320 C.3       8 GLP5        0.0000 
     69 CA          3.6820   -2.6377   -5.8097 C.3       4 GLC5        0.0000 
     70 CA          5.2590   -2.7390   -5.9990 C.3      12 GLL5        0.0000 
     71 CA          4.9768   -1.6905   -9.0640 C.3       4 GLC5        0.0000 
     72 CA          5.4630   -2.0260   -7.1760 C.3      12 GLL5        0.0000 
     73 CA          4.2750   -2.0150  -10.9790 C.3       8 GLP5        0.0000 
     74 CA          5.3477   -4.2569   -6.1905 C.3       4 GLC5        0.0000 
     75 CA          5.2780   -6.2830   -6.1010 C.3       8 GLP5        0.0000 
     76 CA          8.4605    3.0985   -7.0005 C.3       4 GLC5        0.0000 
     77 CA          7.0750    3.7110   -8.3380 C.3       8 GLP5        0.0000 
     78 CA         11.1007    4.0568   -6.9005 C.3       4 GLC5        0.0000 
     79 CA         12.1330    4.7560   -8.4330 C.3       8 GLP5        0.0000 
     80 CA         10.0553    5.4632   -3.4635 C.3       4 GLC5        0.0000 
     81 CA          9.3690    6.8690   -2.4450 C.3       8 GLP5        0.0000 
@<TRIPOS>BOND
@<TRIPOS>SUBSTRUCTURE
     1 ALC1       20 GROUP        1 X    ALC  0     ROOT ALC X 1
     2 SEC2       23 GROUP        1 X    SEC  0     **** SEC X 2
     3 ASC3       35 GROUP        1 X    ASC  0     **** ASC X 3
     4 GLC5        1 GROUP        1 X    GLC  0     **** GLC X 6
     5 ALP1       22 GROUP        1 Y    ALP  0     ROOT ALP Y 8
     6 SEP2       25 GROUP        1 Y    SEP  0     **** SEP Y 9
     7 ASP3       37 GROUP        1 Y    ASP  0     **** ASP Y 10
     8 GLP5        3 GROUP        1 Y    GLP  0     **** GLP Y 13
     9 ALL1       21 GROUP        1 Z    ALL  0     ROOT ALL Z 15
    10 SEL2       24 GROUP        1 Z    SEL  0     **** SEL Z 16
    11 ASL3       36 GROUP        1 Z    ASL  0     **** ASL Z 17
    12 GLL5        2 GROUP        1 Z    GLL  0     **** GLL Z 20
@<TRIPOS>SET

