#    Name: 3uon_QNB_1_ligand
#    Modification time : Mon Mar 24 23:10:35 2014

@<TRIPOS>MOLECULE
3uon_QNB_1_ligand
   49    52     1     0     0
SMALL
NO_CHARGES


@<TRIPOS>ATOM
      1 C1          6.1590   -0.1640   -3.3750 C.3       1 QNB1162     0.0000 
      2 C2          6.9820   -1.0600   -2.4940 C.ar      1 QNB1162     0.0000 
      3 C3          8.0540   -1.7730   -3.0170 C.ar      1 QNB1162     0.0000 
      4 C4          8.8030   -2.6060   -2.1900 C.ar      1 QNB1162     0.0000 
      5 C5          8.4750   -2.7350   -0.8440 C.ar      1 QNB1162     0.0000 
      6 C6          7.3980   -2.0280   -0.3240 C.ar      1 QNB1162     0.0000 
      7 C7          6.6500   -1.1950   -1.1500 C.ar      1 QNB1162     0.0000 
      8 C8          5.9260   -0.8130   -4.7100 C.ar      1 QNB1162     0.0000 
      9 C9          5.4850   -2.1320   -4.7690 C.ar      1 QNB1162     0.0000 
     10 C10         5.2590   -2.7390   -5.9990 C.ar      1 QNB1162     0.0000 
     11 C11         5.4630   -2.0260   -7.1760 C.ar      1 QNB1162     0.0000 
     12 C12         5.8940   -0.7060   -7.1220 C.ar      1 QNB1162     0.0000 
     13 C13         6.1200   -0.1020   -5.8910 C.ar      1 QNB1162     0.0000 
     14 C14         6.8280    1.1860   -3.5140 C.2       1 QNB1162     0.0000 
     15 O15         4.8870    0.0280   -2.7460 O.3       1 QNB1162     0.0000 
     16 O16         6.4660    2.1280   -2.8270 O.2       1 QNB1162     0.0000 
     17 O17         7.9050    1.4020   -4.4680 O.3       1 QNB1162     0.0000 
     18 C18         8.7230    2.5190   -4.1280 C.3       1 QNB1162     0.0000 
     19 C19         9.7930    2.0930   -3.1290 C.3       1 QNB1162     0.0000 
     20 N20        11.1200    2.4280   -3.6840 N.4       1 QNB1162     0.0000 
     21 C21        11.4120    1.7020   -4.9380 C.3       1 QNB1162     0.0000 
     22 C22        10.2910    1.9380   -5.9390 C.3       1 QNB1162     0.0000 
     23 C23         9.4010    3.0340   -5.3870 C.3       1 QNB1162     0.0000 
     24 C24        10.2910    4.2290   -5.0730 C.3       1 QNB1162     0.0000 
     25 C25        11.1920    3.8860   -3.8910 C.3       1 QNB1162     0.0000 
     26 H           8.2945   -1.6865   -4.0121 H         1 QNB1162     0.0000 
     27 H           9.6018   -3.1279   -2.5761 H         1 QNB1162     0.0000 
     28 H           9.0284   -3.3518   -0.2369 H         1 QNB1162     0.0000 
     29 H           7.1532   -2.1197    0.6702 H         1 QNB1162     0.0000 
     30 H           5.8479   -0.6767   -0.7649 H         1 QNB1162     0.0000 
     31 H           5.3260   -2.6587   -3.8989 H         1 QNB1162     0.0000 
     32 H           4.9406   -3.7164   -6.0394 H         1 QNB1162     0.0000 
     33 H           5.2948   -2.4760   -8.0849 H         1 QNB1162     0.0000 
     34 H           6.0453   -0.1777   -7.9902 H         1 QNB1162     0.0000 
     35 H           6.4336    0.8797   -5.8510 H         1 QNB1162     0.0000 
     36 H           8.1521    3.3161   -3.6987 H         1 QNB1162     0.0000 
     37 H           9.7070    1.0234   -2.9609 H         1 QNB1162     0.0000 
     38 H           9.6254    2.6184   -2.1933 H         1 QNB1162     0.0000 
     39 H          11.8817    2.1578   -2.9355 H         1 QNB1162     0.0000 
     40 H          11.4929    0.6314   -4.7488 H         1 QNB1162     0.0000 
     41 H          12.3487    2.0523   -5.3722 H         1 QNB1162     0.0000 
     42 H           9.7197    1.0318   -6.0602 H         1 QNB1162     0.0000 
     43 H          10.7101    2.2499   -6.8820 H         1 QNB1162     0.0000 
     44 H           8.6792    3.3018   -6.1111 H         1 QNB1162     0.0000 
     45 H           9.6745    5.0821   -4.8195 H         1 QNB1162     0.0000 
     46 H          10.9025    4.4609   -5.9358 H         1 QNB1162     0.0000 
     47 H          12.2031    4.1921   -4.1239 H         1 QNB1162     0.0000 
     48 H          10.8373    4.4166   -3.0175 H         1 QNB1162     0.0000 
     49 H           4.3521    0.5611   -3.4015 H         1 QNB1162     0.0000 
@<TRIPOS>BOND
     1    2    1 1    
     2    8    1 1    
     3   14    1 1    
     4   15    1 1    
     5    3    2 ar   
     6    7    2 ar   
     7    4    3 ar   
     8   26    3 1    
     9    5    4 ar   
    10   27    4 1    
    11    6    5 ar   
    12   28    5 1    
    13    7    6 ar   
    14   29    6 1    
    15   30    7 1    
    16    9    8 ar   
    17   13    8 ar   
    18   10    9 ar   
    19   31    9 1    
    20   11   10 ar   
    21   32   10 1    
    22   12   11 ar   
    23   33   11 1    
    24   13   12 ar   
    25   34   12 1    
    26   35   13 1    
    27   16   14 2    
    28   17   14 1    
    29   49   15 1    
    30   18   17 1    
    31   19   18 1    
    32   23   18 1    
    33   36   18 1    
    34   20   19 1    
    35   37   19 1    
    36   38   19 1    
    37   21   20 1    
    38   25   20 1    
    39   39   20 1    
    40   22   21 1    
    41   40   21 1    
    42   41   21 1    
    43   23   22 1    
    44   42   22 1    
    45   43   22 1    
    46   24   23 1    
    47   44   23 1    
    48   25   24 1    
    49   45   24 1    
    50   46   24 1    
    51   47   25 1    
    52   48   25 1    
@<TRIPOS>SUBSTRUCTURE
     1 QNB1162     1 GROUP   
@<TRIPOS>SET

