#    Name: 4hp8_NAP_2_INTS_M
#    Modification time : Tue Mar 25 01:35:19 2014

@<TRIPOS>MOLECULE
4hp8_NAP_2_INTS_M
  114     0    12     0     0
SMALL
NO_CHARGES


@<TRIPOS>ATOM
      1 CA          3.5545  -20.5925   -0.1200 C.3       4 GLC5        0.0000 
      2 CA          4.4990  -21.8140   -1.6310 C.3      12 GLL5        0.0000 
      3 CA          2.6100  -19.3710    1.3910 C.3       8 GLP5        0.0000 
      4 N           2.5120  -20.0665   -0.9315 N.am      2 SEC2        0.0000 
      5 N           3.1960  -21.5950   -1.1110 N.am     10 SEL2        0.0000 
      6 N           1.8280  -18.5380   -0.7520 N.am      6 SEP2        0.0000 
      7 CA          6.2535  -23.9530   -2.4845 C.3       4 GLC5        0.0000 
      8 CA          4.5630  -23.3190   -1.9070 C.3      12 GLL5        0.0000 
      9 CA          7.9440  -24.5870   -3.0620 C.3       8 GLP5        0.0000 
     10 O           5.4305  -25.1540   -0.2995 O.2       1 ALC1        0.0000 
     11 O           5.1760  -23.8720   -0.7640 O.2       9 ALL1        0.0000 
     12 O           5.6850  -26.4360    0.1650 O.2       5 ALP1        0.0000 
     13 CA          3.7745  -22.7365    0.6550 C.3       4 GLC5        0.0000 
     14 CA          2.5210  -22.8170   -0.8640 C.3      12 GLL5        0.0000 
     15 CA          5.0280  -22.6560    2.1740 C.3       8 GLP5        0.0000 
     16 CA          2.0765  -21.5715    0.5825 C.3       4 GLC5        0.0000 
     17 CA          1.6320  -20.3260    2.0290 C.3       8 GLP5        0.0000 
     18 CA         -1.5400  -21.1285   -0.4525 C.3       4 GLC5        0.0000 
     19 CA         -1.0530  -23.1870   -0.7300 C.3      12 GLL5        0.0000 
     20 CA         -2.0270  -19.0700   -0.1750 C.3       8 GLP5        0.0000 
     21 CA         -2.9730  -22.6855    1.5945 C.3       4 GLC5        0.0000 
     22 CA         -2.1570  -23.6670   -0.0200 C.3      12 GLL5        0.0000 
     23 CA         -3.7890  -21.7040    3.2090 C.3       8 GLP5        0.0000 
     24 CA         -3.1825  -21.8420   -0.4975 C.3       4 GLC5        0.0000 
     25 CA         -4.2080  -20.0170   -0.9750 C.3       8 GLP5        0.0000 
     26 O          -4.1985  -24.8745    0.1230 O.2       1 ALC1        0.0000 
     27 O          -3.4110  -23.6440   -0.5010 O.2       9 ALL1        0.0000 
     28 O          -4.9860  -26.1050    0.7470 O.2       5 ALP1        0.0000 
     29 N          -3.0565  -24.1900    2.0810 N.am      2 SEC2        0.0000 
     30 N          -1.9000  -24.2250    1.1920 N.am     10 SEL2        0.0000 
     31 N          -4.2130  -24.1550    2.9700 N.am      6 SEP2        0.0000 
     32 CA         -0.7710  -25.8515    1.0300 C.3       4 GLC5        0.0000 
     33 CA         -0.6520  -24.3200    1.7250 C.3      12 GLL5        0.0000 
     34 CA         -0.8900  -27.3830    0.3350 C.3       8 GLP5        0.0000 
     35 CA         -2.2505  -25.4130    2.5165 C.3       4 GLC5        0.0000 
     36 CA         -3.8490  -26.5060    3.3080 C.3       8 GLP5        0.0000 
     37 CA         -2.2205  -23.0120    2.4670 C.3       4 GLC5        0.0000 
     38 CA         -0.3405  -25.3410    0.0920 C.3       4 GLC5        0.0000 
     39 CA          0.2090  -23.2990   -0.1510 C.3      12 GLL5        0.0000 
     40 CA          0.9205  -21.8125    0.9390 C.3       4 GLC5        0.0000 
     41 N           9.5315  -18.5030   -6.1325 N.am      2 SEC2        0.0000 
     42 N           8.5810  -17.9340   -5.2700 N.am     10 SEL2        0.0000 
     43 N          10.4820  -19.0720   -6.9950 N.am      6 SEP2        0.0000 
     44 N           9.9640  -19.5805   -2.3400 N.am      2 SEC2        0.0000 
     45 N           8.8290  -19.4480   -3.2130 N.am     10 SEL2        0.0000 
     46 N          11.0990  -19.7130   -1.4670 N.am      6 SEP2        0.0000 
     47 CA          9.0090  -17.1285   -1.7935 C.3       4 GLC5        0.0000 
     48 CA          7.0250  -17.5610   -1.8510 C.3      12 GLL5        0.0000 
     49 CA         10.9930  -16.6960   -1.7360 C.3       8 GLP5        0.0000 
     50 CA          8.3540  -15.7945   -1.4965 C.3       4 GLC5        0.0000 
     51 CA          6.2980  -16.2970   -1.4410 C.3      12 GLL5        0.0000 
     52 CA         10.4100  -15.2920   -1.5520 C.3       8 GLP5        0.0000 
     53 CA          6.8275  -14.7280   -0.3220 C.3       4 GLC5        0.0000 
     54 CA          7.3570  -13.1590    0.7970 C.3       8 GLP5        0.0000 
     55 CA          3.0600  -16.8655   -1.8410 C.3       4 GLC5        0.0000 
     56 CA          4.9330  -16.1630   -2.0540 C.3      12 GLL5        0.0000 
     57 CA          1.1870  -17.5680   -1.6280 C.3       8 GLP5        0.0000 
     58 N           3.4950  -14.0675   -0.9870 N.am      2 SEC2        0.0000 
     59 N           4.0760  -15.4480   -1.1510 N.am     10 SEL2        0.0000 
     60 N           2.9140  -12.6870   -0.8230 N.am      6 SEP2        0.0000 
     61 O           4.2780  -16.4435   -0.1200 O.2       1 ALC1        0.0000 
     62 O           4.0760  -15.4480   -1.1510 O.2       9 ALL1        0.0000 
     63 O           4.4800  -17.4390    0.9110 O.2       5 ALP1        0.0000 
     64 N           4.0705  -13.4080   -4.4105 N.am      2 SEC2        0.0000 
     65 N           4.0990  -14.6290   -3.7810 N.am     10 SEL2        0.0000 
     66 N           4.0420  -12.1870   -5.0400 N.am      6 SEP2        0.0000 
     67 CA          8.3310  -14.8130   -2.0955 C.3       4 GLC5        0.0000 
     68 CA          6.2520  -14.3340   -2.6390 C.3      12 GLL5        0.0000 
     69 CA          6.8045  -13.7465   -0.9210 C.3       4 GLC5        0.0000 
     70 N          11.9175  -13.3155   -7.1350 N.am      2 SEC2        0.0000 
     71 N          10.5250  -13.5570   -6.9250 N.am     10 SEL2        0.0000 
     72 N          13.3100  -13.0740   -7.3450 N.am      6 SEP2        0.0000 
     73 O          11.5765  -15.6805   -6.8775 O.2       1 ALC1        0.0000 
     74 O          10.1960  -15.6030   -5.8400 O.2       9 ALL1        0.0000 
     75 O          12.9570  -15.7580   -7.9150 O.2       5 ALP1        0.0000 
     76 CA          7.0400   -9.8935   -3.6525 C.3       4 GLC5        0.0000 
     77 CA          7.8840  -11.5510   -4.4080 C.3      12 GLL5        0.0000 
     78 CA          6.1960   -8.2360   -2.8970 C.3       8 GLP5        0.0000 
     79 CA          7.2275  -12.7055   -1.3555 C.3       4 GLC5        0.0000 
     80 CA          7.0980  -12.2520   -3.5080 C.3      12 GLL5        0.0000 
     81 CA          6.0475  -10.5025   -3.6155 C.3       4 GLC5        0.0000 
     82 CA          4.9970   -8.7530   -3.7230 C.3       8 GLP5        0.0000 
     83 CA          8.5815  -11.8965   -2.3655 C.3       4 GLC5        0.0000 
     84 CA         10.0650  -11.5410   -1.2230 C.3       8 GLP5        0.0000 
     85 N           5.2230  -26.9700   -2.4900 N.am      2 SEC2        0.0000 
     86 N           4.2130  -26.3180   -3.3530 N.am     10 SEL2        0.0000 
     87 N           6.2330  -27.6220   -1.6270 N.am      6 SEP2        0.0000 
     88 N           4.2210  -27.9665   -3.4510 N.am      2 SEC2        0.0000 
     89 N           4.2290  -29.6150   -3.5490 N.am      6 SEP2        0.0000 
     90 NZ          0.6315  -27.0750   -2.2455 N.4       3 LYC4        0.0000 
     91 NZ          2.0940  -27.3660   -2.4080 N.4      11 LYL4        0.0000 
     92 NZ         -1.3730  -26.2540   -3.1790 N.4       7 LYP4        0.0000 
     93 NZ          2.0125  -28.5890   -2.8980 N.4       3 LYC4        0.0000 
     94 NZ          3.1470  -30.3530   -3.3040 N.4       7 LYP4        0.0000 
     95 N           0.6315  -27.0750   -2.2455 N.am      2 SEC2        0.0000 
     96 N           2.0940  -27.3660   -2.4080 N.am     10 SEL2        0.0000 
     97 N          -0.8310  -26.7840   -2.0830 N.am      6 SEP2        0.0000 
     98 N           2.0125  -28.5890   -2.8980 N.am      2 SEC2        0.0000 
     99 N           1.9310  -29.8120   -3.3880 N.am      6 SEP2        0.0000 
    100 NZ          0.7170  -25.7065   -4.1615 N.4       3 LYC4        0.0000 
    101 NZ          2.0560  -25.5770   -4.1360 N.4      11 LYL4        0.0000 
    102 N           0.7170  -25.7065   -4.1615 N.am      2 SEC2        0.0000 
    103 N           2.0560  -25.5770   -4.1360 N.am     10 SEL2        0.0000 
    104 N          -0.6220  -25.8360   -4.1870 N.am      6 SEP2        0.0000 
    105 CA          4.7795  -22.6112    0.2025 C.3       4 GLC5        0.0000 
    106 CA         -1.6225  -25.3280   -0.6680 C.3       4 GLC5        0.0000 
    107 CA         -1.6400  -27.2290   -0.9610 C.3       8 GLP5        0.0000 
    108 CA          4.1547  -13.3425   -2.4762 C.3       4 GLC5        0.0000 
    109 CA          5.2290  -15.2740   -3.2300 C.3      12 GLL5        0.0000 
    110 CA          2.5690  -11.8810   -2.0180 C.3       8 GLP5        0.0000 
    111 CA          9.3882  -14.6408   -3.1990 C.3       4 GLC5        0.0000 
    112 CA          7.9660  -14.3450   -4.4070 C.3      12 GLL5        0.0000 
    113 CA          9.6685  -11.7040   -3.6290 C.3       4 GLC5        0.0000 
    114 CA         11.0280  -11.1710   -2.3870 C.3       8 GLP5        0.0000 
@<TRIPOS>BOND
@<TRIPOS>SUBSTRUCTURE
     1 ALC1       10 GROUP        1 X    ALC  0     ROOT ALC X 1
     2 SEC2        4 GROUP        1 X    SEC  0     **** SEC X 2
     3 LYC4       90 GROUP        1 X    LYC  0     **** LYC X 4
     4 GLC5        1 GROUP        1 X    GLC  0     **** GLC X 6
     5 ALP1       12 GROUP        1 Y    ALP  0     ROOT ALP Y 8
     6 SEP2        6 GROUP        1 Y    SEP  0     **** SEP Y 9
     7 LYP4       92 GROUP        1 Y    LYP  0     **** LYP Y 11
     8 GLP5        3 GROUP        1 Y    GLP  0     **** GLP Y 13
     9 ALL1       11 GROUP        1 Z    ALL  0     ROOT ALL Z 15
    10 SEL2        5 GROUP        1 Z    SEL  0     **** SEL Z 16
    11 LYL4       91 GROUP        1 Z    LYL  0     **** LYL Z 18
    12 GLL5        2 GROUP        1 Z    GLL  0     **** GLL Z 20
@<TRIPOS>SET

