#    Name: 4hp8_NAP_2_ligand
#    Modification time : Tue Mar 25 01:35:19 2014

@<TRIPOS>MOLECULE
4hp8_NAP_2_ligand
   73    77     1     0     0
SMALL
NO_CHARGES


@<TRIPOS>ATOM
      1 PA          6.3250  -20.9210   -4.8970 P.3       1 NAP301      0.0000 
      2 O1A         5.1840  -20.8170   -5.7790 O.co2     1 NAP301      0.0000 
      3 O2A         7.5040  -21.6760   -5.3550 O.co2     1 NAP301      0.0000 
      4 O5B         5.8550  -21.4170   -3.4840 O.3       1 NAP301      0.0000 
      5 C5B         4.6380  -20.9760   -2.9010 C.3       1 NAP301      0.0000 
      6 C4B         4.4990  -21.8140   -1.6310 C.3       1 NAP301      0.0000 
      7 O4B         3.1960  -21.5950   -1.1110 O.3       1 NAP301      0.0000 
      8 C3B         4.5630  -23.3190   -1.9070 C.3       1 NAP301      0.0000 
      9 O3B         5.1760  -23.8720   -0.7640 O.3       1 NAP301      0.0000 
     10 C2B         3.1160  -23.6820   -1.9870 C.3       1 NAP301      0.0000 
     11 O2B         2.8220  -25.0820   -1.8160 O.3       1 NAP301      0.0000 
     12 C1B         2.5210  -22.8170   -0.8640 C.3       1 NAP301      0.0000 
     13 N9A         1.0950  -22.7470   -1.0270 N.pl3     1 NAP301      0.0000 
     14 C8A         0.3990  -22.3350   -2.1190 C.2       1 NAP301      0.0000 
     15 N7A        -0.9150  -22.5600   -1.9590 N.2       1 NAP301      0.0000 
     16 C5A        -1.0530  -23.1870   -0.7300 C.ar      1 NAP301      0.0000 
     17 C6A        -2.1570  -23.6670   -0.0200 C.ar      1 NAP301      0.0000 
     18 N6A        -3.4110  -23.6440   -0.5010 N.pl3     1 NAP301      0.0000 
     19 N1A        -1.9000  -24.2250    1.1920 N.ar      1 NAP301      0.0000 
     20 C2A        -0.6520  -24.3200    1.7250 C.ar      1 NAP301      0.0000 
     21 N3A         0.4440  -23.8430    1.0620 N.ar      1 NAP301      0.0000 
     22 C4A         0.2090  -23.2990   -0.1510 C.ar      1 NAP301      0.0000 
     23 O3          6.7710  -19.4070   -4.6460 O.3       1 NAP301      0.0000 
     24 PN          8.0290  -18.6340   -4.1000 P.3       1 NAP301      0.0000 
     25 O1N         8.5810  -17.9340   -5.2700 O.co2     1 NAP301      0.0000 
     26 O2N         8.8290  -19.4480   -3.2130 O.co2     1 NAP301      0.0000 
     27 O5D         7.2790  -17.4960   -3.2940 O.3       1 NAP301      0.0000 
     28 C5D         7.0250  -17.5610   -1.8510 C.3       1 NAP301      0.0000 
     29 C4D         6.2980  -16.2970   -1.4410 C.3       1 NAP301      0.0000 
     30 O4D         7.0470  -15.1440   -1.8500 O.3       1 NAP301      0.0000 
     31 C3D         4.9330  -16.1630   -2.0540 C.3       1 NAP301      0.0000 
     32 O3D         4.0760  -15.4480   -1.1510 O.3       1 NAP301      0.0000 
     33 C2D         5.2290  -15.2740   -3.2300 C.3       1 NAP301      0.0000 
     34 O2D         4.0990  -14.6290   -3.7810 O.3       1 NAP301      0.0000 
     35 C1D         6.2520  -14.3340   -2.6390 C.3       1 NAP301      0.0000 
     36 N1N         7.0910  -13.6350   -3.6090 N.pl3     1 NAP301      0.0000 
     37 C2N         7.9660  -14.3450   -4.4070 C.ar      1 NAP301      0.0000 
     38 C3N         8.7670  -13.6340   -5.2850 C.ar      1 NAP301      0.0000 
     39 C7N         9.8380  -14.3270   -6.0410 C.2       1 NAP301      0.0000 
     40 O7N        10.5250  -13.5570   -6.9250 O.2       1 NAP301      0.0000 
     41 N7N        10.1960  -15.6030   -5.8400 N.am      1 NAP301      0.0000 
     42 C4N         8.7010  -12.2120   -5.3830 C.ar      1 NAP301      0.0000 
     43 C5N         7.8840  -11.5510   -4.4080 C.ar      1 NAP301      0.0000 
     44 C6N         7.0980  -12.2520   -3.5080 C.ar      1 NAP301      0.0000 
     45 P2B         2.8150  -26.1840   -3.0080 P.3       1 NAP301      0.0000 
     46 O1X         4.2130  -26.3180   -3.3530 O.co2     1 NAP301      0.0000 
     47 O2X         2.0940  -27.3660   -2.4080 O.co2     1 NAP301      0.0000 
     48 O3X         2.0560  -25.5770   -4.1360 O.co2     1 NAP301      0.0000 
     49 H           3.7855  -21.1745   -3.5269 H         1 NAP301      0.0000 
     50 H           4.6700  -19.9392   -2.6149 H         1 NAP301      0.0000 
     51 H           5.2465  -21.5524   -0.9352 H         1 NAP301      0.0000 
     52 H           5.0463  -23.4720   -2.7974 H         1 NAP301      0.0000 
     53 H           2.7225  -23.2793   -2.9121 H         1 NAP301      0.0000 
     54 H           2.8258  -23.2549    0.0478 H         1 NAP301      0.0000 
     55 H           0.8091  -21.9295   -2.9117 H         1 NAP301      0.0000 
     56 H          -4.0356  -24.3336   -0.1345 H         1 NAP301      0.0000 
     57 H          -3.6080  -22.9393   -1.1826 H         1 NAP301      0.0000 
     58 H          -0.5253  -24.7676    2.6630 H         1 NAP301      0.0000 
     59 H           7.9577  -17.6246   -1.2977 H         1 NAP301      0.0000 
     60 H           6.4037  -18.4181   -1.6069 H         1 NAP301      0.0000 
     61 H           6.1879  -16.2918   -0.3592 H         1 NAP301      0.0000 
     62 H           4.5839  -17.0720   -2.3691 H         1 NAP301      0.0000 
     63 H           5.7659  -15.8902   -3.9561 H         1 NAP301      0.0000 
     64 H           5.7182  -13.6193   -2.0164 H         1 NAP301      0.0000 
     65 H           8.0220  -15.3588   -4.3532 H         1 NAP301      0.0000 
     66 H          10.9034  -15.9626   -6.4485 H         1 NAP301      0.0000 
     67 H           9.7236  -16.0811   -5.0995 H         1 NAP301      0.0000 
     68 H           9.1878  -11.7103   -6.0796 H         1 NAP301      0.0000 
     69 H           7.8958  -10.5138   -4.3923 H         1 NAP301      0.0000 
     70 H           6.5502  -11.7741   -2.8043 H         1 NAP301      0.0000 
     71 H           5.1300  -24.8618   -0.8991 H         1 NAP301      0.0000 
     72 H           4.0755  -15.9903   -0.3108 H         1 NAP301      0.0000 
     73 H           3.4077  -14.6567   -3.0589 H         1 NAP301      0.0000 
@<TRIPOS>BOND
     1    2    1 ar   
     2    3    1 ar   
     3    4    1 1    
     4   23    1 1    
     5    5    4 1    
     6    6    5 1    
     7   49    5 1    
     8   50    5 1    
     9    7    6 1    
    10    8    6 1    
    11   51    6 1    
    12   12    7 1    
    13    9    8 1    
    14   10    8 1    
    15   52    8 1    
    16   71    9 1    
    17   11   10 1    
    18   12   10 1    
    19   53   10 1    
    20   45   11 1    
    21   13   12 1    
    22   54   12 1    
    23   14   13 1    
    24   22   13 1    
    25   15   14 2    
    26   55   14 1    
    27   16   15 1    
    28   17   16 ar   
    29   22   16 ar   
    30   18   17 1    
    31   19   17 ar   
    32   56   18 1    
    33   57   18 1    
    34   20   19 ar   
    35   21   20 ar   
    36   58   20 1    
    37   22   21 ar   
    38   24   23 1    
    39   25   24 ar   
    40   26   24 ar   
    41   27   24 1    
    42   28   27 1    
    43   29   28 1    
    44   59   28 1    
    45   60   28 1    
    46   30   29 1    
    47   31   29 1    
    48   61   29 1    
    49   35   30 1    
    50   32   31 1    
    51   33   31 1    
    52   62   31 1    
    53   72   32 1    
    54   34   33 1    
    55   35   33 1    
    56   63   33 1    
    57   73   34 1    
    58   36   35 1    
    59   64   35 1    
    60   37   36 ar   
    61   44   36 ar   
    62   38   37 ar   
    63   65   37 1    
    64   39   38 1    
    65   42   38 ar   
    66   40   39 2    
    67   41   39 am   
    68   66   41 1    
    69   67   41 1    
    70   43   42 ar   
    71   68   42 1    
    72   44   43 ar   
    73   69   43 1    
    74   70   44 1    
    75   46   45 ar   
    76   47   45 ar   
    77   48   45 ar   
@<TRIPOS>SUBSTRUCTURE
     1 NAP301      1 GROUP   
@<TRIPOS>SET

