#    Name: 1pvg_ANP_1_INTS_M
#    Modification time : Mon Mar 24 22:20:32 2014

@<TRIPOS>MOLECULE
1pvg_ANP_1_INTS_M
   78     0    15     0     0
SMALL
NO_CHARGES


@<TRIPOS>ATOM
      1 N          25.2025   41.0595   37.8205 N.am      2 SEC2        0.0000 
      2 N          25.9750   42.0760   37.2330 N.am     12 SEL2        0.0000 
      3 N          24.4300   40.0430   38.4080 N.am      7 SEP2        0.0000 
      4 N          26.3740   41.4990   38.4780 N.am      2 SEC2        0.0000 
      5 N          26.7730   40.9220   39.7230 N.am      7 SEP2        0.0000 
      6 N          27.3185   41.4915   36.8025 N.am      2 SEC2        0.0000 
      7 N          28.6620   40.9070   36.3720 N.am      7 SEP2        0.0000 
      8 NZ         27.6630   44.7940   36.4830 N.4       3 LYC4        0.0000 
      9 NZ         26.8350   44.2600   38.0270 N.4      13 LYL4        0.0000 
     10 NZ         28.4910   45.3280   34.9390 N.4       8 LYP4        0.0000 
     11 Zn         26.7380   44.8940   38.7785 Zn        4 ZIC7        0.0000 
     12 Zn         26.8350   44.2600   38.0270 Zn       14 ZIL7        0.0000 
     13 Zn         26.6410   45.5280   39.5300 Zn        9 ZIP7        0.0000 
     14 NZ         27.4680   44.5840   35.2795 N.4       3 LYC4        0.0000 
     15 NZ         26.4450   43.8400   35.6200 N.4      13 LYL4        0.0000 
     16 N          25.4355   44.7095   35.0325 N.am      2 SEC2        0.0000 
     17 N          26.4450   43.8400   35.6200 N.am     12 SEL2        0.0000 
     18 N          24.4260   45.5790   34.4450 N.am      7 SEP2        0.0000 
     19 N          25.1015   43.3165   34.9340 N.am      2 SEC2        0.0000 
     20 N          23.7580   42.7930   34.2480 N.am      7 SEP2        0.0000 
     21 N          27.4680   44.5840   35.2795 N.am      2 SEC2        0.0000 
     22 N          28.4910   45.3280   34.9390 N.am      7 SEP2        0.0000 
     23 Zn         25.6450   45.7580   39.2760 Zn        4 ZIC7        0.0000 
     24 Zn         24.6490   45.9880   39.0220 Zn       14 ZIL7        0.0000 
     25 N          21.2610   44.9730   37.6330 N.am      2 SEC2        0.0000 
     26 N          22.4460   45.3890   38.1450 N.am     12 SEL2        0.0000 
     27 N          20.0760   44.5570   37.1210 N.am      7 SEP2        0.0000 
     28 N          22.0085   46.6230   37.4310 N.am      2 SEC2        0.0000 
     29 N          21.5710   47.8570   36.7170 N.am      7 SEP2        0.0000 
     30 Zn         26.2015   44.8640   40.2490 Zn        4 ZIC7        0.0000 
     31 Zn         25.7620   44.2000   40.9680 Zn       14 ZIL7        0.0000 
     32 N          26.3005   45.0740   41.9675 N.am      2 SEC2        0.0000 
     33 N          25.7620   44.2000   40.9680 N.am     12 SEL2        0.0000 
     34 N          26.8390   45.9480   42.9670 N.am      7 SEP2        0.0000 
     35 N          26.3645   43.0415   41.7685 N.am      2 SEC2        0.0000 
     36 N          26.9670   41.8830   42.5690 N.am      7 SEP2        0.0000 
     37 NZ         23.3085   41.4830   41.7995 N.4       3 LYC4        0.0000 
     38 NZ         24.3400   42.2690   41.4310 N.4      13 LYL4        0.0000 
     39 NZ         22.2770   40.6970   42.1680 N.4       8 LYP4        0.0000 
     40 N          25.6535   42.0760   42.0000 N.am      2 SEC2        0.0000 
     41 N          24.3400   42.2690   41.4310 N.am     12 SEL2        0.0000 
     42 N          23.3085   41.4830   41.7995 N.am      2 SEC2        0.0000 
     43 N          22.2770   40.6970   42.1680 N.am      7 SEP2        0.0000 
     44 CA         20.4625   43.6640   43.3630 C.3       5 GLC5        0.0000 
     45 CA         22.1440   44.1230   42.0640 C.3      15 GLL5        0.0000 
     46 CA         18.7810   43.2050   44.6620 C.3      10 GLP5        0.0000 
     47 CA         19.9990   45.4995   43.7685 C.3       5 GLC5        0.0000 
     48 CA         21.2130   45.3180   42.1290 C.3      15 GLL5        0.0000 
     49 CA         18.7850   45.6810   45.4080 C.3      10 GLP5        0.0000 
     50 CA         19.9640   44.4565   40.5220 C.3       5 GLC5        0.0000 
     51 CA         18.7150   43.5950   38.9150 C.3      10 GLP5        0.0000 
     52 N          20.4010   45.4385   38.5475 N.am      2 SEC2        0.0000 
     53 N          20.7260   46.3200   39.9740 N.am     12 SEL2        0.0000 
     54 N          19.3645   46.1085   39.3855 N.am      2 SEC2        0.0000 
     55 N          18.0030   45.8970   38.7970 N.am      7 SEP2        0.0000 
     56 N          19.6940   47.4815   39.6290 N.am      2 SEC2        0.0000 
     57 N          18.6620   48.6430   39.2840 N.am      7 SEP2        0.0000 
     58 O          19.3310   48.3870   40.4150 O.2       1 ALC1        0.0000 
     59 O          20.0000   48.1310   41.5460 O.2      11 ALL1        0.0000 
     60 O          18.6620   48.6430   39.2840 O.2       6 ALP1        0.0000 
     61 CA         20.0640   46.5220   44.3660 C.3       5 GLC5        0.0000 
     62 CA         21.3430   47.3630   43.3240 C.3      15 GLL5        0.0000 
     63 CA         25.6370   48.7930   44.0375 C.3       5 GLC5        0.0000 
     64 CA         23.9330   49.2710   45.0950 C.3      15 GLL5        0.0000 
     65 CA         27.3410   48.3150   42.9800 C.3      10 GLP5        0.0000 
     66 CA         24.2670   50.2635   47.8845 C.3       5 GLC5        0.0000 
     67 CA         24.2630   50.5460   45.7570 C.3      15 GLL5        0.0000 
     68 CA         24.2710   49.9810   50.0120 C.3      10 GLP5        0.0000 
     69 O          26.0930   51.8860   47.0060 O.2       1 ALC1        0.0000 
     70 O          25.5250   50.7410   46.3230 O.2      11 ALL1        0.0000 
     71 O          26.6610   53.0310   47.6890 O.2       6 ALP1        0.0000 
     72 CA         23.1860   53.0020   44.5510 C.3       5 GLC5        0.0000 
     73 CA         22.0890   51.3120   45.2410 C.3      15 GLL5        0.0000 
     74 CA         24.2830   54.6920   43.8610 C.3      10 GLP5        0.0000 
     75 CA         21.4640   50.1825   46.4575 C.3       5 GLC5        0.0000 
     76 CA         20.8390   49.0530   47.6740 C.3      10 GLP5        0.0000 
     77 CA         22.0917   49.2894   46.3255 C.3       5 GLC5        0.0000 
     78 CA         22.5910   49.1430   44.5280 C.3      15 GLL5        0.0000 
@<TRIPOS>BOND
@<TRIPOS>SUBSTRUCTURE
     1 ALC1       58 GROUP        1 X    ALC  0     ROOT ALC X 1
     2 SEC2        1 GROUP        1 X    SEC  0     **** SEC X 2
     3 LYC4        8 GROUP        1 X    LYC  0     **** LYC X 4
     4 ZIC7       11 GROUP        1 X    ZIC  0     **** ZIC X 5
     5 GLC5       44 GROUP        1 X    GLC  0     **** GLC X 6
     6 ALP1       60 GROUP        1 Y    ALP  0     ROOT ALP Y 8
     7 SEP2        3 GROUP        1 Y    SEP  0     **** SEP Y 9
     8 LYP4       10 GROUP        1 Y    LYP  0     **** LYP Y 11
     9 ZIP7       13 GROUP        1 Y    ZIP  0     **** ZIP Y 12
    10 GLP5       46 GROUP        1 Y    GLP  0     **** GLP Y 13
    11 ALL1       59 GROUP        1 Z    ALL  0     ROOT ALL Z 15
    12 SEL2        2 GROUP        1 Z    SEL  0     **** SEL Z 16
    13 LYL4        9 GROUP        1 Z    LYL  0     **** LYL Z 18
    14 ZIL7       12 GROUP        1 Z    ZIL  0     **** ZIL Z 19
    15 GLL5       45 GROUP        1 Z    GLL  0     **** GLL Z 20
@<TRIPOS>SET

