#    Name: 1pvg_ANP_1_ligand
#    Modification time : Mon Mar 24 22:20:32 2014

@<TRIPOS>MOLECULE
1pvg_ANP_1_ligand
   43    45     1     0     0
SMALL
NO_CHARGES


@<TRIPOS>ATOM
      1 PG         25.9540   43.5680   37.0160 P.3       1 ANP901      0.0000 
      2 O1G        25.9750   42.0760   37.2330 O.co2     1 ANP901      0.0000 
      3 O2G        26.8350   44.2600   38.0270 O.co2     1 ANP901      0.0000 
      4 O3G        26.4450   43.8400   35.6200 O.co2     1 ANP901      0.0000 
      5 PB         23.8000   44.8620   38.5180 P.3       1 ANP901      0.0000 
      6 O1B        24.6490   45.9880   39.0220 O.co2     1 ANP901      0.0000 
      7 O2B        22.4460   45.3890   38.1450 O.co2     1 ANP901      0.0000 
      8 N3B        24.4090   44.1670   37.1280 N.4       1 ANP901      0.0000 
      9 PA         24.3500   43.7050   40.9440 P.3       1 ANP901      0.0000 
     10 O1A        25.7620   44.2000   40.9680 O.co2     1 ANP901      0.0000 
     11 O2A        24.3400   42.2690   41.4310 O.co2     1 ANP901      0.0000 
     12 O3A        23.7020   43.7370   39.5560 O.3       1 ANP901      0.0000 
     13 O5'        23.4980   44.5390   41.8700 O.3       1 ANP901      0.0000 
     14 C5'        22.1440   44.1230   42.0640 C.3       1 ANP901      0.0000 
     15 C4'        21.2130   45.3180   42.1290 C.3       1 ANP901      0.0000 
     16 O4'        21.3780   45.9430   43.3790 O.3       1 ANP901      0.0000 
     17 C3'        21.5590   46.4110   41.1210 C.3       1 ANP901      0.0000 
     18 O3'        20.7260   46.3200   39.9740 O.3       1 ANP901      0.0000 
     19 C2'        21.3150   47.7190   41.8480 C.3       1 ANP901      0.0000 
     20 O2'        20.0000   48.1310   41.5460 O.3       1 ANP901      0.0000 
     21 C1'        21.3430   47.3630   43.3240 C.3       1 ANP901      0.0000 
     22 N9         22.5340   47.9290   43.9910 N.pl3     1 ANP901      0.0000 
     23 C8         23.7160   47.3080   44.1890 C.2       1 ANP901      0.0000 
     24 N7         24.5740   48.1200   44.8680 N.2       1 ANP901      0.0000 
     25 C5         23.9330   49.2710   45.0950 C.ar      1 ANP901      0.0000 
     26 C6         24.2630   50.5460   45.7570 C.ar      1 ANP901      0.0000 
     27 N6         25.5250   50.7410   46.3230 N.pl3     1 ANP901      0.0000 
     28 N1         23.3110   51.5000   45.7960 N.ar      1 ANP901      0.0000 
     29 C2         22.0890   51.3120   45.2410 C.ar      1 ANP901      0.0000 
     30 N3         21.7260   50.1660   44.6250 N.ar      1 ANP901      0.0000 
     31 C4         22.5910   49.1430   44.5280 C.ar      1 ANP901      0.0000 
     32 H          22.0288   43.5518   42.9995 H         1 ANP901      0.0000 
     33 H          21.8021   43.4707   41.2440 H         1 ANP901      0.0000 
     34 H          20.2080   45.0144   41.9762 H         1 ANP901      0.0000 
     35 H          22.5968   46.3393   40.8946 H         1 ANP901      0.0000 
     36 H          22.0499   48.4010   41.6269 H         1 ANP901      0.0000 
     37 H          20.4453   47.7403   43.7735 H         1 ANP901      0.0000 
     38 H          23.9328   46.4039   43.8904 H         1 ANP901      0.0000 
     39 H          25.6602   51.6038   46.8102 H         1 ANP901      0.0000 
     40 H          26.1849   50.0011   46.1924 H         1 ANP901      0.0000 
     41 H          21.3841   52.1051   45.2939 H         1 ANP901      0.0000 
     42 H          21.3147   45.9497   39.2555 H         1 ANP901      0.0000 
     43 H          19.8000   47.7250   40.6543 H         1 ANP901      0.0000 
@<TRIPOS>BOND
     1    2    1 ar   
     2    3    1 ar   
     3    4    1 ar   
     4    8    1 1    
     5    6    5 ar   
     6    7    5 ar   
     7    8    5 1    
     8   12    5 1    
     9   10    9 ar   
    10   11    9 ar   
    11   12    9 1    
    12   13    9 1    
    13   14   13 1    
    14   15   14 1    
    15   32   14 1    
    16   33   14 1    
    17   16   15 1    
    18   17   15 1    
    19   34   15 1    
    20   21   16 1    
    21   18   17 1    
    22   19   17 1    
    23   35   17 1    
    24   42   18 1    
    25   20   19 1    
    26   21   19 1    
    27   36   19 1    
    28   43   20 1    
    29   22   21 1    
    30   37   21 1    
    31   23   22 1    
    32   31   22 1    
    33   24   23 2    
    34   38   23 1    
    35   25   24 1    
    36   26   25 ar   
    37   31   25 ar   
    38   27   26 1    
    39   28   26 ar   
    40   39   27 1    
    41   40   27 1    
    42   29   28 ar   
    43   30   29 ar   
    44   41   29 1    
    45   31   30 ar   
@<TRIPOS>SUBSTRUCTURE
     1 ANP901      1 GROUP   
@<TRIPOS>SET

