#    Name: 3e7e_ATP_1_INTS_M
#    Modification time : Tue Mar 25 01:02:36 2014

@<TRIPOS>MOLECULE
3e7e_ATP_1_INTS_M
   69     0    15     0     0
SMALL
NO_CHARGES


@<TRIPOS>ATOM
      1 N         -25.9555   25.3035  -16.2125 N.am      2 SEC2        0.0000 
      2 N         -24.6260   24.8750  -16.7130 N.am     12 SEL2        0.0000 
      3 N         -27.2850   25.7320  -15.7120 N.am      7 SEP2        0.0000 
      4 Zn        -26.8835   23.4835  -19.8890 Zn        4 ZIC7        0.0000 
      5 Zn        -26.2540   24.0160  -20.5020 Zn       14 ZIL7        0.0000 
      6 Zn        -27.5130   22.9510  -19.2760 Zn        9 ZIP7        0.0000 
      7 N         -26.7625   25.1440  -21.4600 N.am      2 SEC2        0.0000 
      8 N         -26.2540   24.0160  -20.5020 N.am     12 SEL2        0.0000 
      9 N         -27.2710   26.2720  -22.4180 N.am      7 SEP2        0.0000 
     10 N         -23.6420   24.9840  -23.1470 N.am      2 SEC2        0.0000 
     11 N         -24.1880   24.7680  -21.8110 N.am     12 SEL2        0.0000 
     12 N         -23.0960   25.2000  -24.4830 N.am      7 SEP2        0.0000 
     13 N         -24.4060   25.9855  -22.3910 N.am      2 SEC2        0.0000 
     14 N         -24.6240   27.2030  -22.9710 N.am      7 SEP2        0.0000 
     15 NZ        -22.7420   21.0230  -19.8850 N.4       3 LYC4        0.0000 
     16 NZ        -23.9060   20.3290  -20.0090 N.4      13 LYL4        0.0000 
     17 NZ        -21.5780   21.7170  -19.7610 N.4       8 LYP4        0.0000 
     18 N         -22.7420   21.0230  -19.8850 N.am      2 SEC2        0.0000 
     19 N         -23.9060   20.3290  -20.0090 N.am     12 SEL2        0.0000 
     20 N         -21.5780   21.7170  -19.7610 N.am      7 SEP2        0.0000 
     21 Zn        -26.9005   22.1340  -19.6305 Zn        4 ZIC7        0.0000 
     22 Zn        -26.2880   21.3170  -19.9850 Zn       14 ZIL7        0.0000 
     23 CA        -27.9590   19.1670  -25.0755 C.3       5 GLC5        0.0000 
     24 CA        -27.3970   19.7800  -23.2380 C.3      15 GLL5        0.0000 
     25 CA        -28.5210   18.5540  -26.9130 C.3      10 GLP5        0.0000 
     26 CA        -27.3340   18.6455  -20.0725 C.3       5 GLC5        0.0000 
     27 CA        -28.1540   19.1690  -22.0630 C.3      15 GLL5        0.0000 
     28 CA        -26.5140   18.1220  -18.0820 C.3      10 GLP5        0.0000 
     29 O         -29.9420   19.7030  -20.3815 O.2       1 ALC1        0.0000 
     30 O         -29.3150   19.8770  -21.6260 O.2      11 ALL1        0.0000 
     31 O         -30.5690   19.5290  -19.1370 O.2       6 ALP1        0.0000 
     32 CA        -29.1405   16.2920  -21.5870 C.3       5 GLC5        0.0000 
     33 CA        -28.5960   17.8360  -22.6290 C.3      15 GLL5        0.0000 
     34 CA        -29.6850   14.7480  -20.5450 C.3      10 GLP5        0.0000 
     35 CA        -25.6120   17.4605  -24.3555 C.3       5 GLC5        0.0000 
     36 CA        -27.3910   17.3980  -23.3990 C.3      15 GLL5        0.0000 
     37 CA        -23.8330   17.5230  -25.3120 C.3      10 GLP5        0.0000 
     38 CA        -23.7685   12.6345  -22.7930 C.3       5 GLC5        0.0000 
     39 CA        -24.9430   13.5850  -21.2620 C.3      15 GLL5        0.0000 
     40 CA        -22.5940   11.6840  -24.3240 C.3      10 GLP5        0.0000 
     41 CA        -23.4120   14.2010  -19.8280 C.3       5 GLC5        0.0000 
     42 CA        -21.8810   14.8170  -18.3940 C.3      10 GLP5        0.0000 
     43 O         -23.1230   12.1250  -20.4100 O.2       1 ALC1        0.0000 
     44 O         -24.0110   13.1700  -20.3820 O.2      11 ALL1        0.0000 
     45 O         -22.2350   11.0800  -20.4380 O.2       6 ALP1        0.0000 
     46 N         -25.6880   11.0880  -21.6350 N.am      2 SEC2        0.0000 
     47 N         -25.6280   12.6690  -21.9590 N.am     12 SEL2        0.0000 
     48 N         -25.7480    9.5070  -21.3110 N.am      7 SEP2        0.0000 
     49 CA        -25.8960   12.7780  -24.7910 C.3       5 GLC5        0.0000 
     50 CA        -26.5640   12.9940  -22.8670 C.3      15 GLL5        0.0000 
     51 CA        -25.2280   12.5620  -26.7150 C.3      10 GLP5        0.0000 
     52 CA        -24.5790   12.3390  -23.5955 C.3       5 GLC5        0.0000 
     53 CA        -25.7370   11.2735  -23.7960 C.3       5 GLC5        0.0000 
     54 CA        -24.9100    9.5530  -24.7250 C.3      10 GLP5        0.0000 
     55 CA        -26.8215   11.0465  -21.8620 C.3       5 GLC5        0.0000 
     56 CA        -27.0790    9.0990  -20.8570 C.3      10 GLP5        0.0000 
     57 CA        -28.1245   13.8710  -21.7060 C.3       5 GLC5        0.0000 
     58 CA        -28.0015   15.0250  -21.5130 C.3       5 GLC5        0.0000 
     59 CA        -26.3180   15.3020  -22.4810 C.3      15 GLL5        0.0000 
     60 CA        -27.2353   21.2660  -24.8822 C.3       5 GLC5        0.0000 
     61 CA        -27.6100   22.2290  -26.6720 C.3      10 GLP5        0.0000 
     62 CA        -27.2138   22.1935  -23.2467 C.3       5 GLC5        0.0000 
     63 CA        -26.3240   20.8260  -22.9470 C.3      15 GLL5        0.0000 
     64 CA        -27.5670   24.0840  -23.4010 C.3      10 GLP5        0.0000 
     65 CA        -25.1242   19.3885  -23.6407 C.3       5 GLC5        0.0000 
     66 CA        -23.3880   18.4740  -24.1890 C.3      10 GLP5        0.0000 
     67 CA        -28.2572   18.0855  -24.9635 C.3       5 GLC5        0.0000 
     68 CA        -24.6870   15.6140  -23.4653 C.3       5 GLC5        0.0000 
     69 CA        -23.5840   16.0700  -24.9420 C.3      10 GLP5        0.0000 
@<TRIPOS>BOND
@<TRIPOS>SUBSTRUCTURE
     1 ALC1       29 GROUP        1 X    ALC  0     ROOT ALC X 1
     2 SEC2        1 GROUP        1 X    SEC  0     **** SEC X 2
     3 LYC4       15 GROUP        1 X    LYC  0     **** LYC X 4
     4 ZIC7        4 GROUP        1 X    ZIC  0     **** ZIC X 5
     5 GLC5       23 GROUP        1 X    GLC  0     **** GLC X 6
     6 ALP1       31 GROUP        1 Y    ALP  0     ROOT ALP Y 8
     7 SEP2        3 GROUP        1 Y    SEP  0     **** SEP Y 9
     8 LYP4       17 GROUP        1 Y    LYP  0     **** LYP Y 11
     9 ZIP7        6 GROUP        1 Y    ZIP  0     **** ZIP Y 12
    10 GLP5       25 GROUP        1 Y    GLP  0     **** GLP Y 13
    11 ALL1       30 GROUP        1 Z    ALL  0     ROOT ALL Z 15
    12 SEL2        2 GROUP        1 Z    SEL  0     **** SEL Z 16
    13 LYL4       16 GROUP        1 Z    LYL  0     **** LYL Z 18
    14 ZIL7        5 GROUP        1 Z    ZIL  0     **** ZIL Z 19
    15 GLL5       24 GROUP        1 Z    GLL  0     **** GLL Z 20
@<TRIPOS>SET

