#    Name: 3e7e_ATP_1_ligand
#    Modification time : Tue Mar 25 01:02:36 2014

@<TRIPOS>MOLECULE
3e7e_ATP_1_ligand
   43    45     1     0     0
SMALL
NO_CHARGES


@<TRIPOS>ATOM
      1 PG        -24.0660   25.3320  -18.0670 P.3       1 ATP1501     0.0000 
      2 O1G       -25.0560   26.3690  -18.6320 O.co2     1 ATP1501     0.0000 
      3 O2G       -24.6260   24.8750  -16.7130 O.co2     1 ATP1501     0.0000 
      4 O3G       -22.5790   25.6990  -17.9300 O.co2     1 ATP1501     0.0000 
      5 PB        -24.7610   23.9730  -20.7110 P.3       1 ATP1501     0.0000 
      6 O1B       -26.2540   24.0160  -20.5020 O.co2     1 ATP1501     0.0000 
      7 O2B       -24.1880   24.7680  -21.8110 O.co2     1 ATP1501     0.0000 
      8 O3B       -24.0490   24.1360  -19.2200 O.3       1 ATP1501     0.0000 
      9 PA        -24.9920   21.0760  -20.7170 P.3       1 ATP1501     0.0000 
     10 O1A       -23.9060   20.3290  -20.0090 O.co2     1 ATP1501     0.0000 
     11 O2A       -26.2880   21.3170  -19.9850 O.co2     1 ATP1501     0.0000 
     12 O3A       -24.4160   22.4860  -21.2640 O.3       1 ATP1501     0.0000 
     13 O5'       -25.3130   20.2920  -22.0710 O.3       1 ATP1501     0.0000 
     14 C5'       -26.3240   20.8260  -22.9470 C.3       1 ATP1501     0.0000 
     15 C4'       -27.3970   19.7800  -23.2380 C.3       1 ATP1501     0.0000 
     16 O4'       -26.7710   18.6330  -23.8310 O.3       1 ATP1501     0.0000 
     17 C3'       -28.1540   19.1690  -22.0630 C.3       1 ATP1501     0.0000 
     18 O3'       -29.3150   19.8770  -21.6260 O.3       1 ATP1501     0.0000 
     19 C2'       -28.5960   17.8360  -22.6290 C.3       1 ATP1501     0.0000 
     20 O2'       -29.6340   18.0370  -23.6040 O.3       1 ATP1501     0.0000 
     21 C1'       -27.3910   17.3980  -23.3990 C.3       1 ATP1501     0.0000 
     22 N9        -26.4670   16.6450  -22.5120 N.pl3     1 ATP1501     0.0000 
     23 C8        -25.5880   17.1890  -21.6360 C.2       1 ATP1501     0.0000 
     24 N7        -24.8670   16.2130  -21.0210 N.2       1 ATP1501     0.0000 
     25 C5        -25.2620   15.0140  -21.4960 C.ar      1 ATP1501     0.0000 
     26 C6        -24.9430   13.5850  -21.2620 C.ar      1 ATP1501     0.0000 
     27 N6        -24.0110   13.1700  -20.3820 N.pl3     1 ATP1501     0.0000 
     28 N1        -25.6280   12.6690  -21.9590 N.ar      1 ATP1501     0.0000 
     29 C2        -26.5640   12.9940  -22.8670 C.ar      1 ATP1501     0.0000 
     30 N3        -26.9010   14.2590  -23.1220 N.ar      1 ATP1501     0.0000 
     31 C4        -26.3180   15.3020  -22.4810 C.ar      1 ATP1501     0.0000 
     32 H         -25.8938   21.1442  -23.9071 H         1 ATP1501     0.0000 
     33 H         -26.8178   21.7010  -22.5013 H         1 ATP1501     0.0000 
     34 H         -28.1196   20.1764  -23.9385 H         1 ATP1501     0.0000 
     35 H         -27.4578   18.9598  -21.2818 H         1 ATP1501     0.0000 
     36 H         -28.8157   17.1715  -21.8879 H         1 ATP1501     0.0000 
     37 H         -27.6933   16.8151  -24.2247 H         1 ATP1501     0.0000 
     38 H         -25.4846   18.1439  -21.4681 H         1 ATP1501     0.0000 
     39 H         -23.5522   12.3087  -20.6004 H         1 ATP1501     0.0000 
     40 H         -23.8610   13.7603  -19.5888 H         1 ATP1501     0.0000 
     41 H         -27.0495   12.2135  -23.3974 H         1 ATP1501     0.0000 
     42 H         -29.5253   19.4979  -20.7249 H         1 ATP1501     0.0000 
     43 H         -29.9996   18.9471  -23.4087 H         1 ATP1501     0.0000 
@<TRIPOS>BOND
     1    2    1 ar   
     2    3    1 ar   
     3    4    1 ar   
     4    8    1 1    
     5    6    5 ar   
     6    7    5 ar   
     7    8    5 1    
     8   12    5 1    
     9   10    9 ar   
    10   11    9 ar   
    11   12    9 1    
    12   13    9 1    
    13   14   13 1    
    14   15   14 1    
    15   32   14 1    
    16   33   14 1    
    17   16   15 1    
    18   17   15 1    
    19   34   15 1    
    20   21   16 1    
    21   18   17 1    
    22   19   17 1    
    23   35   17 1    
    24   42   18 1    
    25   20   19 1    
    26   21   19 1    
    27   36   19 1    
    28   43   20 1    
    29   22   21 1    
    30   37   21 1    
    31   23   22 1    
    32   31   22 1    
    33   24   23 2    
    34   38   23 1    
    35   25   24 1    
    36   26   25 ar   
    37   31   25 ar   
    38   27   26 1    
    39   28   26 ar   
    40   39   27 1    
    41   40   27 1    
    42   29   28 ar   
    43   30   29 ar   
    44   41   29 1    
    45   31   30 ar   
@<TRIPOS>SUBSTRUCTURE
     1 ATP1501     1 GROUP   
@<TRIPOS>SET

