#    Name: 4IJ9_1_CAVITY_N1_ALL.mol2
#    Modification time : Tue Mar 11 05:34:15 2014

@<TRIPOS>MOLECULE
4IJ9_1_CAVITY_N1_ALL.mol2
   76     0     6     0     0
SMALL
NO_CHARGES


@<TRIPOS>ATOM
      1 O          18.2530   11.1309    1.4867 O.2       1 ALA2        0.0000 
      2 O          16.0245   12.8786   -1.6724 O.2       1 ALA2        0.0000 
      3 CA         14.5649   13.0348   -1.9808 C.3       5 GLY6        0.0000 
      4 CA         14.2195   12.3172   -0.7096 C.3       5 GLY6        0.0000 
      5 CA         13.1052   13.1911   -2.2891 C.3       5 GLY6        0.0000 
      6 CA         12.7599   12.4735   -1.0180 C.3       5 GLY6        0.0000 
      7 O          18.6134   10.5406   -0.5187 O.2       1 ALA2        0.0000 
      8 CZ         17.8446   12.1320   -3.3694 C.ar      4 PHE5        0.0000 
      9 O          17.4992   11.4144   -2.0982 O.2       1 ALA2        0.0000 
     10 O          17.1538   10.6968   -0.8271 O.2       1 ALA2        0.0000 
     11 CA         16.8084    9.9792    0.4440 C.3       5 GLY6        0.0000 
     12 N          16.4631    9.2617    1.7152 N.2       1 ALA2        0.0000 
     13 CZ         16.3849   12.2882   -3.6778 C.ar      4 PHE5        0.0000 
     14 O          16.0396   11.5706   -2.4066 O.2       1 ALA2        0.0000 
     15 CA         15.6942   10.8531   -1.1355 C.3       5 GLY6        0.0000 
     16 CA         15.3488   10.1355    0.1357 C.3       5 GLY6        0.0000 
     17 N          15.0035    9.4179    1.4068 N.2       1 ALA2        0.0000 
     18 CZ         14.9253   12.4445   -3.9861 C.ar      4 PHE5        0.0000 
     19 DU         14.5800   11.7269   -2.7150 H         6 CUB7        0.0000 
     20 CA         14.2346   11.0093   -1.4438 C.3       5 GLY6        0.0000 
     21 CA         13.8892   10.2917   -0.1727 C.3       5 GLY6        0.0000 
     22 CZ         13.4657   12.6007   -4.2945 C.ar      4 PHE5        0.0000 
     23 OD1        13.1203   11.8831   -3.0234 O.3       2 ASP3        0.0000 
     24 OD1        12.7750   11.1656   -1.7522 O.3       2 ASP3        0.0000 
     25 CA         20.7789   10.5115   -3.4869 C.3       5 GLY6        0.0000 
     26 CZ         19.6647   11.3853   -5.0664 C.ar      4 PHE5        0.0000 
     27 CZ         19.3193   10.6678   -3.7952 C.ar      4 PHE5        0.0000 
     28 CA         18.9739    9.9502   -2.5241 C.3       5 GLY6        0.0000 
     29 DU         18.6285    9.2326   -1.2530 H         6 CUB7        0.0000 
     30 DU         18.2832    8.5151    0.0182 H         6 CUB7        0.0000 
     31 CZ         17.8597   10.8240   -4.1036 C.ar      4 PHE5        0.0000 
     32 DU         17.5143   10.1065   -2.8325 H         6 CUB7        0.0000 
     33 DU         17.1689    9.3889   -1.5613 H         6 CUB7        0.0000 
     34 DU         16.8236    8.6713   -0.2902 H         6 CUB7        0.0000 
     35 DU         16.4782    7.9537    0.9810 H         6 CUB7        0.0000 
     36 CZ         16.4001   10.9803   -4.4120 C.ar      4 PHE5        0.0000 
     37 DU         16.0547   10.2627   -3.1408 H         6 CUB7        0.0000 
     38 DU         15.7093    9.5451   -1.8697 H         6 CUB7        0.0000 
     39 DU         15.3639    8.8276   -0.5986 H         6 CUB7        0.0000 
     40 NZ         15.0186    8.1100    0.6726 N.2       3 LYS4        0.0000 
     41 CZ         14.9404   11.1365   -4.7204 C.ar      4 PHE5        0.0000 
     42 DU         14.5951   10.4190   -3.4492 H         6 CUB7        0.0000 
     43 DU         14.2497    9.7014   -2.1781 H         6 CUB7        0.0000 
     44 NZ         13.9043    8.9838   -0.9069 N.2       3 LYS4        0.0000 
     45 NZ         13.4808   11.2928   -5.0287 N.2       3 LYS4        0.0000 
     46 OD1        13.1354   10.5752   -3.7576 O.3       2 ASP3        0.0000 
     47 OD1        12.7901    9.8576   -2.4864 O.3       2 ASP3        0.0000 
     48 CZ         20.4486    8.4860   -2.9500 C.ar      4 PHE5        0.0000 
     49 CZ         19.3344    9.3598   -4.5295 C.ar      4 PHE5        0.0000 
     50 CZ         18.9890    8.6423   -3.2583 C.ar      4 PHE5        0.0000 
     51 DU         18.6437    7.9247   -1.9872 H         6 CUB7        0.0000 
     52 DU         18.2983    7.2071   -0.7160 H         6 CUB7        0.0000 
     53 CZ         17.8748    9.5161   -4.8378 C.ar      4 PHE5        0.0000 
     54 CZ         17.5294    8.7985   -3.5667 C.ar      4 PHE5        0.0000 
     55 DU         17.1840    8.0810   -2.2956 H         6 CUB7        0.0000 
     56 NZ         16.8387    7.3634   -1.0244 N.2       3 LYS4        0.0000 
     57 OD1        16.4933    6.6458    0.2467 O.3       2 ASP3        0.0000 
     58 CZ         16.4152    9.6724   -5.1462 C.ar      4 PHE5        0.0000 
     59 DU         16.0698    8.9548   -3.8751 H         6 CUB7        0.0000 
     60 NZ         15.7244    8.2372   -2.6039 N.2       3 LYS4        0.0000 
     61 NZ         15.3790    7.5196   -1.3328 N.2       3 LYS4        0.0000 
     62 NZ         15.0337    6.8021   -0.0616 N.2       3 LYS4        0.0000 
     63 CA         14.9555    9.8286   -5.4546 C.3       5 GLY6        0.0000 
     64 CA         14.6102    9.1110   -4.1835 C.3       5 GLY6        0.0000 
     65 CA         14.2648    8.3935   -2.9123 C.3       5 GLY6        0.0000 
     66 CA         13.9194    7.6759   -1.6412 C.3       5 GLY6        0.0000 
     67 CA         13.1505    9.2673   -4.4918 C.3       5 GLY6        0.0000 
     68 CA         12.8052    8.5497   -3.2207 C.3       5 GLY6        0.0000 
     69 CZ         20.4637    7.1781   -3.6842 C.ar      4 PHE5        0.0000 
     70 CZ         18.6588    6.6168   -2.7214 C.ar      4 PHE5        0.0000 
     71 NZ         18.3134    5.8992   -1.4503 N.2       3 LYS4        0.0000 
     72 CZ         17.1991    6.7730   -3.0298 C.ar      4 PHE5        0.0000 
     73 CZ         16.0849    7.6469   -4.6093 C.ar      4 PHE5        0.0000 
     74 NZ         15.7395    6.9293   -3.3382 N.2       3 LYS4        0.0000 
     75 CA         14.6253    7.8031   -4.9177 C.3       5 GLY6        0.0000 
     76 NZ         14.2799    7.0855   -3.6465 N.2       3 LYS4        0.0000 
@<TRIPOS>BOND
@<TRIPOS>SUBSTRUCTURE
     1 ALA2        1 GROUP   
     2 ASP3       23 GROUP   
     3 LYS4       40 GROUP   
     4 PHE5        8 GROUP   
     5 GLY6        3 GROUP   
     6 CUB7       19 GROUP   
@<TRIPOS>SET

