#    Name: 4ij9_PTV_1_INTS_M
#    Modification time : Tue Mar 25 04:05:07 2014

@<TRIPOS>MOLECULE
4ij9_PTV_1_INTS_M
   54     0     9     0     0
SMALL
NO_CHARGES


@<TRIPOS>ATOM
      1 CA         13.6310   15.4315   -0.0445 C.3       3 GLC5        0.0000 
      2 CA         12.7250   13.4980    0.1570 C.3       9 GLL5        0.0000 
      3 CA         14.5370   17.3650   -0.2460 C.3       6 GLP5        0.0000 
      4 CA         12.4395   14.9415    1.3550 C.3       3 GLC5        0.0000 
      5 CA         12.1540   16.3850    2.5530 C.3       6 GLP5        0.0000 
      6 CA         10.8835   11.0865    5.0945 C.3       3 GLC5        0.0000 
      7 CA         10.6430    9.9110    3.7750 C.3       9 GLL5        0.0000 
      8 CA         11.1240   12.2620    6.4140 C.3       6 GLP5        0.0000 
      9 CA          9.5515   11.5020    2.6455 C.3       3 GLC5        0.0000 
     10 CA          8.4600   13.0930    1.5160 C.3       6 GLP5        0.0000 
     11 N           9.3865    9.1780    0.6825 N.am      2 SEC2        0.0000 
     12 N           8.6850    9.7180    1.8050 N.am      8 SEL2        0.0000 
     13 N          10.0880    8.6380   -0.4400 N.am      5 SEP2        0.0000 
     14 O           6.8715    8.7380    0.7915 O.2       1 ALC1        0.0000 
     15 O           7.4540    9.7150    1.7230 O.2       7 ALL1        0.0000 
     16 O           6.2890    7.7610   -0.1400 O.2       4 ALP1        0.0000 
     17 CA          2.4350    8.1290    4.7740 C.3       3 GLC5        0.0000 
     18 CA          3.7580    9.6960    4.8820 C.3       9 GLL5        0.0000 
     19 CA          1.1120    6.5620    4.6660 C.3       6 GLP5        0.0000 
     20 N           1.5980    9.2885    4.4230 N.am      2 SEC2        0.0000 
     21 N           2.8710    9.6490    3.8900 N.am      8 SEL2        0.0000 
     22 N           0.3250    8.9280    4.9560 N.am      5 SEP2        0.0000 
     23 CA          1.3735   10.3980    3.4625 C.3       3 GLC5        0.0000 
     24 CA          3.2350    9.6660    2.6090 C.3       9 GLL5        0.0000 
     25 CA         -0.4880   11.1300    4.3160 C.3       6 GLP5        0.0000 
     26 CA          2.1100    8.2395    2.8845 C.3       3 GLC5        0.0000 
     27 CA          0.9850    6.8130    3.1600 C.3       6 GLP5        0.0000 
     28 CA          4.6725   10.4670    0.3500 C.3       3 GLC5        0.0000 
     29 CA          4.5840    9.7740    2.2640 C.3       9 GLL5        0.0000 
     30 CA          4.7610   11.1600   -1.5640 C.3       6 GLP5        0.0000 
     31 CA          5.6195    8.0955    1.2155 C.3       3 GLC5        0.0000 
     32 CA          6.6550    6.4170    0.1670 C.3       6 GLP5        0.0000 
     33 CA         12.9790   14.6025   -1.9027 C.3       3 GLC5        0.0000 
     34 CA         12.8200   15.9120   -3.2560 C.3       6 GLP5        0.0000 
     35 CA         10.5405   12.9008    0.9580 C.3       3 GLC5        0.0000 
     36 CA          4.4635   11.4220    5.6060 C.3       3 GLC5        0.0000 
     37 CA          5.1280    9.7920    4.6080 C.3       9 GLL5        0.0000 
     38 CA          4.4840   13.1000    6.4670 C.3       6 GLP5        0.0000 
     39 CA          3.8311   11.3755    3.6704 C.3       3 GLC5        0.0000 
     40 CA          3.1130   12.9970    2.9300 C.3       6 GLP5        0.0000 
     41 CA          4.6476    8.0650    3.8709 C.3       3 GLC5        0.0000 
     42 CA          4.7460    6.3760    3.3310 C.3       6 GLP5        0.0000 
     43 CA          3.5112   11.3585    2.6833 C.3       3 GLC5        0.0000 
     44 CA          2.7927    8.9220    0.9752 C.3       3 GLC5        0.0000 
     45 CA          1.6760    8.1240   -0.4860 C.3       6 GLP5        0.0000 
     46 CA          4.3277    8.0480    2.8838 C.3       3 GLC5        0.0000 
     47 CA          5.8501   11.5790    3.2044 C.3       3 GLC5        0.0000 
     48 CA          6.7380   13.3650    3.3070 C.3       6 GLP5        0.0000 
     49 CA         14.5875   12.6079    0.5046 C.3       3 GLC5        0.0000 
     50 CA         12.5170   11.9190    0.6430 C.3       9 GLL5        0.0000 
     51 CA         16.1440   12.7350    1.3180 C.3       6 GLP5        0.0000 
     52 CA         11.3615   12.2424   -1.0284 C.3       3 GLC5        0.0000 
     53 CA         13.5510   13.0880   -1.2560 C.3       9 GLL5        0.0000 
     54 CA          9.6920   12.0040   -1.7480 C.3       6 GLP5        0.0000 
@<TRIPOS>BOND
@<TRIPOS>SUBSTRUCTURE
     1 ALC1       14 GROUP        1 X    ALC  0     ROOT ALC X 1
     2 SEC2       11 GROUP        1 X    SEC  0     **** SEC X 2
     3 GLC5        1 GROUP        1 X    GLC  0     **** GLC X 6
     4 ALP1       16 GROUP        1 Y    ALP  0     ROOT ALP Y 8
     5 SEP2       13 GROUP        1 Y    SEP  0     **** SEP Y 9
     6 GLP5        3 GROUP        1 Y    GLP  0     **** GLP Y 13
     7 ALL1       15 GROUP        1 Z    ALL  0     ROOT ALL Z 15
     8 SEL2       12 GROUP        1 Z    SEL  0     **** SEL Z 16
     9 GLL5        2 GROUP        1 Z    GLL  0     **** GLL Z 20
@<TRIPOS>SET

