#    Name: 4ij9_PTV_1_ligand
#    Modification time : Tue Mar 25 04:05:07 2014

@<TRIPOS>MOLECULE
4ij9_PTV_1_ligand
   30    32     1     0     0
SMALL
NO_CHARGES


@<TRIPOS>ATOM
      1 C3         13.0510   11.0950   -0.2590 C.2       1 PTV401      0.0000 
      2 C2         13.6110   11.7410   -1.2990 C.2       1 PTV401      0.0000 
      3 C1         13.5510   13.0880   -1.2560 C.2       1 PTV401      0.0000 
      4 S20        12.7250   13.4980    0.1570 S.3       1 PTV401      0.0000 
      5 C15        12.5170   11.9190    0.6430 C.2       1 PTV401      0.0000 
      6 C14        11.8050   11.5280    1.9310 C.2       1 PTV401      0.0000 
      7 O16        11.3400   12.4040    2.6640 O.2       1 PTV401      0.0000 
      8 C4         11.7240   10.0560    2.3260 C.3       1 PTV401      0.0000 
      9 S11        10.6430    9.9110    3.7750 S.3       1 PTV401      0.0000 
     10 C19         9.0210    9.8430    3.0850 C.2       1 PTV401      0.0000 
     11 N13         7.9190    9.8980    3.8100 N.2       1 PTV401      0.0000 
     12 N18         8.6850    9.7180    1.8050 N.2       1 PTV401      0.0000 
     13 N17         7.4540    9.7150    1.7230 N.pl3     1 PTV401      0.0000 
     14 C10         6.9150    9.8430    2.9450 C.2       1 PTV401      0.0000 
     15 C9          5.5530    9.8320    3.2710 C.ar      1 PTV401      0.0000 
     16 C5          5.1280    9.7920    4.6080 C.ar      1 PTV401      0.0000 
     17 C6          3.7580    9.6960    4.8820 C.ar      1 PTV401      0.0000 
     18 N12         2.8710    9.6490    3.8900 N.ar      1 PTV401      0.0000 
     19 C7          3.2350    9.6660    2.6090 C.ar      1 PTV401      0.0000 
     20 C8          4.5840    9.7740    2.2640 C.ar      1 PTV401      0.0000 
     21 H          13.0402   10.0988   -0.1777 H         1 PTV401      0.0000 
     22 H          14.0512   11.2467   -2.0681 H         1 PTV401      0.0000 
     23 H          13.8260   13.7824   -1.7640 H         1 PTV401      0.0000 
     24 H          12.6344    9.6590    2.6808 H         1 PTV401      0.0000 
     25 H          11.2341    9.4502    1.6152 H         1 PTV401      0.0000 
     26 H           6.8868    9.6332    0.9034 H         1 PTV401      0.0000 
     27 H           5.8059    9.8322    5.3655 H         1 PTV401      0.0000 
     28 H           3.4616    9.6631    5.8791 H         1 PTV401      0.0000 
     29 H           2.5362    9.6004    1.8434 H         1 PTV401      0.0000 
     30 H           4.8629    9.8106    1.2801 H         1 PTV401      0.0000 
@<TRIPOS>BOND
     1    2    1 1    
     2    5    1 2    
     3   21    1 1    
     4    3    2 2    
     5   22    2 1    
     6    4    3 1    
     7   23    3 1    
     8    5    4 1    
     9    6    5 1    
    10    7    6 2    
    11    8    6 1    
    12    9    8 1    
    13   24    8 1    
    14   25    8 1    
    15   10    9 1    
    16   11   10 1    
    17   12   10 2    
    18   14   11 2    
    19   13   12 1    
    20   14   13 1    
    21   26   13 1    
    22   15   14 1    
    23   16   15 ar   
    24   20   15 ar   
    25   17   16 ar   
    26   27   16 1    
    27   18   17 ar   
    28   28   17 1    
    29   19   18 ar   
    30   20   19 ar   
    31   29   19 1    
    32   30   20 1    
@<TRIPOS>SUBSTRUCTURE
     1 PTV401      1 GROUP   
@<TRIPOS>SET

