#    Name: 3o61_GDD_4_INTS_M
#    Modification time : Tue Mar 25 03:17:23 2014

@<TRIPOS>MOLECULE
3o61_GDD_4_INTS_M
   73     0    15     0     0
SMALL
NO_CHARGES


@<TRIPOS>ATOM
      1 O          60.7845   32.6635  143.2925 O.2       1 ALC1        0.0000 
      2 O          61.3080   33.7480  142.5250 O.2      11 ALL1        0.0000 
      3 O          60.2610   31.5790  144.0600 O.2       6 ALP1        0.0000 
      4 N          56.9890   34.6345  144.6805 N.am      2 SEC2        0.0000 
      5 N          56.9450   35.0550  143.3390 N.am     12 SEL2        0.0000 
      6 N          57.0330   34.2140  146.0220 N.am      7 SEP2        0.0000 
      7 CA         59.5165   34.6385  138.8285 C.3       5 GLC5        0.0000 
      8 CA         58.4890   32.9250  137.8340 C.3      15 GLL5        0.0000 
      9 CA         60.5440   36.3520  139.8230 C.3      10 GLP5        0.0000 
     10 N          60.2910   29.7410  137.2310 N.am      2 SEC2        0.0000 
     11 N          59.2990   30.7460  137.1350 N.am     12 SEL2        0.0000 
     12 N          61.2830   28.7360  137.3270 N.am      7 SEP2        0.0000 
     13 N          56.1055   29.4880  135.1540 N.am      2 SEC2        0.0000 
     14 N          56.7480   29.9520  136.5410 N.am     12 SEL2        0.0000 
     15 N          55.4630   29.0240  133.7670 N.am      7 SEP2        0.0000 
     16 CA         55.0050   34.7970  136.0540 C.3       5 GLC5        0.0000 
     17 CA         55.5670   32.9880  135.7920 C.3      15 GLL5        0.0000 
     18 CA         54.4430   36.6060  136.3160 C.3      10 GLP5        0.0000 
     19 Zn         52.5430   30.8645  133.0185 Zn        4 ZIC7        0.0000 
     20 Zn         53.3520   31.5380  132.9210 Zn       14 ZIL7        0.0000 
     21 Zn         51.7340   30.1910  133.1160 Zn        9 ZIP7        0.0000 
     22 N          53.2140   34.9195  133.0135 N.am      2 SEC2        0.0000 
     23 N          54.1650   34.0520  133.3120 N.am     12 SEL2        0.0000 
     24 N          52.2630   35.7870  132.7150 N.am      7 SEP2        0.0000 
     25 N          52.3990   34.4610  133.7465 N.am      2 SEC2        0.0000 
     26 N          52.5350   33.1350  134.7780 N.am     12 SEL2        0.0000 
     27 NZ         50.2580   30.6065  136.0880 N.4       3 LYC4        0.0000 
     28 NZ         50.9450   31.0980  134.9750 N.4      13 LYL4        0.0000 
     29 NZ         50.2070   29.6130  138.2500 N.4       8 LYP4        0.0000 
     30 Zn         51.3395   30.6445  134.0455 Zn        4 ZIC7        0.0000 
     31 Zn         50.9450   31.0980  134.9750 Zn       14 ZIL7        0.0000 
     32 N          50.2580   30.6065  136.0880 N.am      2 SEC2        0.0000 
     33 N          50.9450   31.0980  134.9750 N.am     12 SEL2        0.0000 
     34 N          49.5710   30.1150  137.2010 N.am      7 SEP2        0.0000 
     35 NZ         51.0195   31.0315  137.1080 N.4       3 LYC4        0.0000 
     36 NZ         52.4680   31.9480  137.0150 N.4      13 LYL4        0.0000 
     37 N          51.9665   30.9720  137.7465 N.am      2 SEC2        0.0000 
     38 N          52.4680   31.9480  137.0150 N.am     12 SEL2        0.0000 
     39 N          51.4650   29.9960  138.4780 N.am      7 SEP2        0.0000 
     40 N          51.0195   31.0315  137.1080 N.am      2 SEC2        0.0000 
     41 CA         46.0100   32.4840  139.2710 C.3       5 GLC5        0.0000 
     42 CA         46.7960   32.9060  137.9200 C.3      15 GLL5        0.0000 
     43 CA         45.2240   32.0620  140.6220 C.3      10 GLP5        0.0000 
     44 N          45.1900   32.1745  137.0425 N.am      2 SEC2        0.0000 
     45 N          45.5060   33.4710  137.5630 N.am     12 SEL2        0.0000 
     46 N          44.8740   30.8780  136.5220 N.am      7 SEP2        0.0000 
     47 CA         48.9235   36.9845  133.9510 C.3       5 GLC5        0.0000 
     48 CA         49.0900   35.1110  135.0370 C.3      15 GLL5        0.0000 
     49 CA         48.7570   38.8580  132.8650 C.3      10 GLP5        0.0000 
     50 CA         50.7610   36.1595  134.0360 C.3       5 GLC5        0.0000 
     51 CA         52.4320   37.2080  133.0350 C.3      10 GLP5        0.0000 
     52 CA         50.7385   36.9745  136.3245 C.3       5 GLC5        0.0000 
     53 CA         49.0220   35.7700  136.4360 C.3      15 GLL5        0.0000 
     54 CA         52.4550   38.1790  136.2130 C.3      10 GLP5        0.0000 
     55 O          48.1845   37.5870  137.4090 O.2       1 ALC1        0.0000 
     56 O          48.8430   37.1900  136.2940 O.2      11 ALL1        0.0000 
     57 O          47.5260   37.9840  138.5240 O.2       6 ALP1        0.0000 
     58 O          47.7380   36.7890  138.5880 O.2       1 ALC1        0.0000 
     59 O          47.9500   35.5940  138.6520 O.2      11 ALL1        0.0000 
     60 CA         57.2345   32.3927  141.6490 C.3       5 GLC5        0.0000 
     61 CA         57.4400   34.2490  141.1750 C.3      15 GLL5        0.0000 
     62 CA         56.5100   30.8010  142.5660 C.3      10 GLP5        0.0000 
     63 CA         48.2360   33.1740  133.9040 C.3       5 GLC5        0.0000 
     64 CA         49.3820   33.6330  135.2510 C.3      15 GLL5        0.0000 
     65 CA         47.2360   31.9760  132.6640 C.3      10 GLP5        0.0000 
     66 CA         50.2195   34.1285  133.3985 C.3       5 GLC5        0.0000 
     67 CA         51.2030   33.8850  131.6530 C.3      10 GLP5        0.0000 
     68 CA         46.0798   32.3843  136.3752 C.3       5 GLC5        0.0000 
     69 CA         48.0170   33.5950  137.2790 C.3      15 GLL5        0.0000 
     70 CA         44.7530   31.5180  135.1510 C.3      10 GLP5        0.0000 
     71 CA         47.0880   36.8438  136.0587 C.3       5 GLC5        0.0000 
     72 CA         47.9140   35.1310  137.2910 C.3      15 GLL5        0.0000 
     73 CA         45.7080   38.2370  135.2540 C.3      10 GLP5        0.0000 
@<TRIPOS>BOND
@<TRIPOS>SUBSTRUCTURE
     1 ALC1        1 GROUP        1 X    ALC  0     ROOT ALC X 1
     2 SEC2        4 GROUP        1 X    SEC  0     **** SEC X 2
     3 LYC4       27 GROUP        1 X    LYC  0     **** LYC X 4
     4 ZIC7       19 GROUP        1 X    ZIC  0     **** ZIC X 5
     5 GLC5        7 GROUP        1 X    GLC  0     **** GLC X 6
     6 ALP1        3 GROUP        1 Y    ALP  0     ROOT ALP Y 8
     7 SEP2        6 GROUP        1 Y    SEP  0     **** SEP Y 9
     8 LYP4       29 GROUP        1 Y    LYP  0     **** LYP Y 11
     9 ZIP7       21 GROUP        1 Y    ZIP  0     **** ZIP Y 12
    10 GLP5        9 GROUP        1 Y    GLP  0     **** GLP Y 13
    11 ALL1        2 GROUP        1 Z    ALL  0     ROOT ALL Z 15
    12 SEL2        5 GROUP        1 Z    SEL  0     **** SEL Z 16
    13 LYL4       28 GROUP        1 Z    LYL  0     **** LYL Z 18
    14 ZIL7       20 GROUP        1 Z    ZIL  0     **** ZIL Z 19
    15 GLL5        8 GROUP        1 Z    GLL  0     **** GLL Z 20
@<TRIPOS>SET

