#    Name: 3o61_GDD_4_ligand
#    Modification time : Tue Mar 25 03:17:23 2014

@<TRIPOS>MOLECULE
3o61_GDD_4_ligand
   62    65     1     0     0
SMALL
NO_CHARGES


@<TRIPOS>ATOM
      1 N2         61.3080   33.7480  142.5250 N.pl3     1 GDD3846     0.0000 
      2 C2         60.0280   33.9240  142.1110 C.2       1 GDD3846     0.0000 
      3 N1         59.0970   34.4270  142.9800 N.am      1 GDD3846     0.0000 
      4 N3         59.7290   33.5800  140.8210 N.2       1 GDD3846     0.0000 
      5 C4         58.4780   33.7200  140.2890 C.2       1 GDD3846     0.0000 
      6 C5         57.4400   34.2490  141.1750 C.2       1 GDD3846     0.0000 
      7 C6         57.8140   34.6010  142.5780 C.2       1 GDD3846     0.0000 
      8 O6         56.9450   35.0550  143.3390 O.2       1 GDD3846     0.0000 
      9 N7         56.3080   34.3000  140.4390 N.2       1 GDD3846     0.0000 
     10 C8         56.5900   33.8480  139.2000 C.2       1 GDD3846     0.0000 
     11 N9         57.8840   33.4980  139.0940 N.pl3     1 GDD3846     0.0000 
     12 C1'        58.4890   32.9250  137.8340 C.3       1 GDD3846     0.0000 
     13 C2'        58.2490   31.4180  137.8390 C.3       1 GDD3846     0.0000 
     14 O2'        59.2990   30.7460  137.1350 O.3       1 GDD3846     0.0000 
     15 C3'        56.9190   31.2570  137.1150 C.3       1 GDD3846     0.0000 
     16 O3'        56.7480   29.9520  136.5410 O.3       1 GDD3846     0.0000 
     17 C4'        56.9420   32.3900  136.0870 C.3       1 GDD3846     0.0000 
     18 O4'        57.7920   33.3940  136.6550 O.3       1 GDD3846     0.0000 
     19 C5'        55.5670   32.9880  135.7920 C.3       1 GDD3846     0.0000 
     20 O5'        54.8720   32.1300  134.8760 O.3       1 GDD3846     0.0000 
     21 PA         53.7530   32.6840  133.8360 P.3       1 GDD3846     0.0000 
     22 O1A        53.3520   31.5380  132.9210 O.co2     1 GDD3846     0.0000 
     23 O2A        54.1650   34.0520  133.3120 O.co2     1 GDD3846     0.0000 
     24 O3A        52.5350   33.1350  134.7780 O.3       1 GDD3846     0.0000 
     25 PB         51.6360   32.2210  135.7570 P.3       1 GDD3846     0.0000 
     26 O2B        50.9450   31.0980  134.9750 O.co2     1 GDD3846     0.0000 
     27 O3B        52.4680   31.9480  137.0150 O.co2     1 GDD3846     0.0000 
     28 O1B        50.5760   33.4430  136.0430 O.3       1 GDD3846     0.0000 
     29 C11        49.3820   33.6330  135.2510 C.3       1 GDD3846     0.0000 
     30 O51        48.2220   33.1190  135.9300 O.3       1 GDD3846     0.0000 
     31 C51        48.0170   33.5950  137.2790 C.3       1 GDD3846     0.0000 
     32 C61        46.7960   32.9060  137.9200 C.3       1 GDD3846     0.0000 
     33 O6A        45.5060   33.4710  137.5630 O.3       1 GDD3846     0.0000 
     34 C21        49.0900   35.1110  135.0370 C.3       1 GDD3846     0.0000 
     35 O21        47.8380   35.2300  134.3350 O.3       1 GDD3846     0.0000 
     36 C31        49.0220   35.7700  136.4360 C.3       1 GDD3846     0.0000 
     37 O31        48.8430   37.1900  136.2940 O.3       1 GDD3846     0.0000 
     38 C41        47.9140   35.1310  137.2910 C.3       1 GDD3846     0.0000 
     39 O41        47.9500   35.5940  138.6520 O.3       1 GDD3846     0.0000 
     40 H          61.5285   32.8488  142.9031 H         1 GDD3846     0.0000 
     41 H          61.9178   34.5330  142.4156 H         1 GDD3846     0.0000 
     42 H          59.3805   34.6740  143.9483 H         1 GDD3846     0.0000 
     43 H          55.9328   33.7836  138.4701 H         1 GDD3846     0.0000 
     44 H          59.5178   33.1044  137.7890 H         1 GDD3846     0.0000 
     45 H          58.1331   31.0998  138.8387 H         1 GDD3846     0.0000 
     46 H          56.1412   31.5019  137.8330 H         1 GDD3846     0.0000 
     47 H          57.3723   32.0114  135.1776 H         1 GDD3846     0.0000 
     48 H          55.7169   33.9865  135.3758 H         1 GDD3846     0.0000 
     49 H          55.0324   33.0852  136.7393 H         1 GDD3846     0.0000 
     50 H          49.4730   33.1783  134.2816 H         1 GDD3846     0.0000 
     51 H          48.8956   33.3282  137.8931 H         1 GDD3846     0.0000 
     52 H          46.9452   32.9313  139.0252 H         1 GDD3846     0.0000 
     53 H          46.8435   31.8263  137.6437 H         1 GDD3846     0.0000 
     54 H          49.9008   35.5414  134.4996 H         1 GDD3846     0.0000 
     55 H          49.9794   35.5571  136.9276 H         1 GDD3846     0.0000 
     56 H          46.9532   35.3871  136.8318 H         1 GDD3846     0.0000 
     57 H          59.9488   31.4658  136.8911 H         1 GDD3846     0.0000 
     58 H          57.6755   29.5959  136.4270 H         1 GDD3846     0.0000 
     59 H          45.1297   33.8197  138.4214 H         1 GDD3846     0.0000 
     60 H          48.0895   35.4587  133.3945 H         1 GDD3846     0.0000 
     61 H          48.3655   37.4749  137.1252 H         1 GDD3846     0.0000 
     62 H          48.3013   36.5287  138.5980 H         1 GDD3846     0.0000 
@<TRIPOS>BOND
     1    2    1 1    
     2   40    1 1    
     3   41    1 1    
     4    3    2 1    
     5    4    2 2    
     6    7    3 am   
     7   42    3 1    
     8    5    4 1    
     9    6    5 2    
    10   11    5 1    
    11    7    6 1    
    12    9    6 1    
    13    8    7 2    
    14   10    9 2    
    15   11   10 1    
    16   43   10 1    
    17   12   11 1    
    18   13   12 1    
    19   18   12 1    
    20   44   12 1    
    21   14   13 1    
    22   15   13 1    
    23   45   13 1    
    24   57   14 1    
    25   16   15 1    
    26   17   15 1    
    27   46   15 1    
    28   58   16 1    
    29   18   17 1    
    30   19   17 1    
    31   47   17 1    
    32   20   19 1    
    33   48   19 1    
    34   49   19 1    
    35   21   20 1    
    36   22   21 ar   
    37   23   21 ar   
    38   24   21 1    
    39   25   24 1    
    40   26   25 ar   
    41   27   25 ar   
    42   28   25 1    
    43   29   28 1    
    44   30   29 1    
    45   34   29 1    
    46   50   29 1    
    47   31   30 1    
    48   32   31 1    
    49   38   31 1    
    50   51   31 1    
    51   33   32 1    
    52   52   32 1    
    53   53   32 1    
    54   59   33 1    
    55   35   34 1    
    56   36   34 1    
    57   54   34 1    
    58   60   35 1    
    59   37   36 1    
    60   38   36 1    
    61   55   36 1    
    62   61   37 1    
    63   39   38 1    
    64   56   38 1    
    65   62   39 1    
@<TRIPOS>SUBSTRUCTURE
     1 GDD3846     1 GROUP   
@<TRIPOS>SET

