#    Name: 1q5d_EPB_1_INTS_M
#    Modification time : Mon Mar 24 23:05:49 2014

@<TRIPOS>MOLECULE
1q5d_EPB_1_INTS_M
   83     0     6     0     0
SMALL
NO_CHARGES


@<TRIPOS>ATOM
      1 CA         10.5350   39.5975   14.6360 C.3       2 GLC5        0.0000 
      2 CA          9.5650   39.1750   15.8580 C.3       6 GLL5        0.0000 
      3 CA         11.5050   40.0200   13.4140 C.3       4 GLP5        0.0000 
      4 CA          9.9470   37.7830   14.7225 C.3       2 GLC5        0.0000 
      5 CA         10.3290   36.3910   13.5870 C.3       4 GLP5        0.0000 
      6 CA          8.5830   36.7070   17.2890 C.3       2 GLC5        0.0000 
      7 CA          7.4930   38.1520   17.4730 C.3       6 GLL5        0.0000 
      8 CA          9.6730   35.2620   17.1050 C.3       4 GLP5        0.0000 
      9 CA          5.1835   36.3935   18.2100 C.3       2 GLC5        0.0000 
     10 CA          5.0660   37.8590   17.0260 C.3       6 GLL5        0.0000 
     11 CA          5.3010   34.9280   19.3940 C.3       4 GLP5        0.0000 
     12 CA          2.2740   36.1055   15.0765 C.3       2 GLC5        0.0000 
     13 CA          2.5790   37.2570   16.8730 C.3       6 GLL5        0.0000 
     14 CA          1.9690   34.9540   13.2800 C.3       4 GLP5        0.0000 
     15 CA          0.8555   37.6535   16.2750 C.3       2 GLC5        0.0000 
     16 CA         -0.8680   38.0500   15.6770 C.3       4 GLP5        0.0000 
     17 CA          1.9670   35.3485   17.3240 C.3       2 GLC5        0.0000 
     18 CA          1.3550   33.4400   17.7750 C.3       4 GLP5        0.0000 
     19 CA          3.9400   36.0925   18.1335 C.3       2 GLC5        0.0000 
     20 CA         -2.9130   38.7820   19.0035 C.3       2 GLC5        0.0000 
     21 CA         -1.4350   40.0930   18.5310 C.3       6 GLL5        0.0000 
     22 CA         -4.3910   37.4710   19.4760 C.3       4 GLP5        0.0000 
     23 CA          0.1580   41.5605   18.3620 C.3       2 GLC5        0.0000 
     24 CA          1.7510   43.0280   18.1930 C.3       4 GLP5        0.0000 
     25 CA         -1.1515   39.0715   17.1040 C.3       2 GLC5        0.0000 
     26 CA          0.3960   41.1925   22.5860 C.3       2 GLC5        0.0000 
     27 CA          0.2960   40.2960   20.7660 C.3       6 GLL5        0.0000 
     28 CA          0.4960   42.0890   24.4060 C.3       4 GLP5        0.0000 
     29 CA          0.1270   42.2950   20.0830 C.3       2 GLC5        0.0000 
     30 CA         -0.0420   44.2940   19.4000 C.3       4 GLP5        0.0000 
     31 CA          0.1230   38.5820   21.4525 C.3       2 GLC5        0.0000 
     32 CA         -0.0500   36.8680   22.1390 C.3       4 GLP5        0.0000 
     33 CA          6.2690   38.6805   11.8550 C.3       2 GLC5        0.0000 
     34 CA          5.1050   38.6460   13.1720 C.3       6 GLL5        0.0000 
     35 CA          7.4330   38.7150   10.5380 C.3       4 GLP5        0.0000 
     36 O           2.3425   37.6635   12.5335 O.2       1 ALC1        0.0000 
     37 O           2.7530   38.5530   13.3900 O.2       5 ALL1        0.0000 
     38 O           1.9320   36.7740   11.6770 O.2       3 ALP1        0.0000 
     39 CA          3.2575   40.5530    8.7525 C.3       2 GLC5        0.0000 
     40 CA          3.4150   39.4100   10.5450 C.3       6 GLL5        0.0000 
     41 CA          3.1000   41.6960    6.9600 C.3       4 GLP5        0.0000 
     42 CA          0.6100   39.9050   12.5390 C.3       2 GLC5        0.0000 
     43 CA          2.1790   41.1000   11.8390 C.3       6 GLL5        0.0000 
     44 CA         -0.9590   38.7100   13.2390 C.3       4 GLP5        0.0000 
     45 CA          3.4670   44.6110   10.6850 C.3       2 GLC5        0.0000 
     46 CA          5.3570   43.8100   11.5550 C.3       6 GLL5        0.0000 
     47 CA          1.5770   45.4120    9.8150 C.3       4 GLP5        0.0000 
     48 CA          4.4995   43.7950    9.8695 C.3       2 GLC5        0.0000 
     49 CA          3.6420   43.7800    8.1840 C.3       4 GLP5        0.0000 
     50 CA          5.2975   45.8015   11.5740 C.3       2 GLC5        0.0000 
     51 CA          5.2380   47.7930   11.5930 C.3       4 GLP5        0.0000 
     52 CA          6.0165   45.0080   10.1705 C.3       2 GLC5        0.0000 
     53 CA          6.6760   46.2060    8.7860 C.3       4 GLP5        0.0000 
     54 CA          6.8690   40.3425   11.9415 C.3       2 GLC5        0.0000 
     55 CA          6.3050   41.9700   13.3450 C.3       6 GLL5        0.0000 
     56 O           8.4395   42.8735   12.5675 O.2       1 ALC1        0.0000 
     57 O           7.5420   41.7630   12.5940 O.2       5 ALL1        0.0000 
     58 O           9.3370   43.9840   12.5410 O.2       3 ALP1        0.0000 
     59 CA          7.5565   44.4880   14.3255 C.3       2 GLC5        0.0000 
     60 CA          6.5080   42.9630   14.4720 C.3       6 GLL5        0.0000 
     61 CA          8.6050   46.0130   14.1790 C.3       4 GLP5        0.0000 
     62 CA          4.1545   42.7890   16.6705 C.3       2 GLC5        0.0000 
     63 CA          5.2810   43.0640   15.2480 C.3       6 GLL5        0.0000 
     64 CA          3.0280   42.5140   18.0930 C.3       4 GLP5        0.0000 
     65 CA          6.9960   44.4065   15.4700 C.3       2 GLC5        0.0000 
     66 CA          8.7110   45.7490   15.6920 C.3       4 GLP5        0.0000 
     67 CA          8.0900   44.1455   15.6105 C.3       2 GLC5        0.0000 
     68 CA          7.4690   42.5420   15.5290 C.3       6 GLL5        0.0000 
     69 CA          9.7790   40.5480   14.4055 C.3       2 GLC5        0.0000 
     70 CA          8.0530   41.0760   15.3970 C.3       6 GLL5        0.0000 
     71 CA          9.3920   37.2230   16.7752 C.3       2 GLC5        0.0000 
     72 CA          5.9893   37.2130   19.0467 C.3       2 GLC5        0.0000 
     73 CA          5.1390   36.0430   20.4340 C.3       4 GLP5        0.0000 
     74 CA          3.2505   40.5415   18.0870 C.3       2 GLC5        0.0000 
     75 CA          3.6080   38.1250   17.5810 C.3       6 GLL5        0.0000 
     76 CA          4.3060   37.3060   19.2575 C.3       2 GLC5        0.0000 
     77 CA          3.3380   39.0130   18.5810 C.3       6 GLL5        0.0000 
     78 CA          0.9780   38.2545   20.9943 C.3       2 GLC5        0.0000 
     79 CA          2.0900   39.4430   19.2130 C.3       6 GLL5        0.0000 
     80 CA          5.4525   39.3077   10.8462 C.3       2 GLC5        0.0000 
     81 CA          1.5062   40.3561   10.2309 C.3       2 GLC5        0.0000 
     82 CA          3.5290   40.3910   11.7640 C.3       6 GLL5        0.0000 
     83 CA          0.1870   40.2120    8.9650 C.3       4 GLP5        0.0000 
@<TRIPOS>BOND
@<TRIPOS>SUBSTRUCTURE
     1 ALC1       36 GROUP        1 X    ALC  0     ROOT ALC X 1
     2 GLC5        1 GROUP        1 X    GLC  0     **** GLC X 6
     3 ALP1       38 GROUP        1 Y    ALP  0     ROOT ALP Y 8
     4 GLP5        3 GROUP        1 Y    GLP  0     **** GLP Y 13
     5 ALL1       37 GROUP        1 Z    ALL  0     ROOT ALL Z 15
     6 GLL5        2 GROUP        1 Z    GLL  0     **** GLL Z 20
@<TRIPOS>SET

