#    Name: 1q5d_EPB_1_ligand
#    Modification time : Mon Mar 24 23:05:49 2014

@<TRIPOS>MOLECULE
1q5d_EPB_1_ligand
   76    78     1     0     0
SMALL
NO_CHARGES


@<TRIPOS>ATOM
      1 O16         5.6940   36.7040   14.4020 O.2       1 EPB450      0.0000 
      2 C51         9.5650   39.1750   15.8580 C.3       1 EPB450      0.0000 
      3 O41         8.6170   38.5170   18.2830 O.3       1 EPB450      0.0000 
      4 C5          8.6570   39.1930   17.0330 C.3       1 EPB450      0.0000 
      5 C4          7.4930   38.1520   17.4730 C.3       1 EPB450      0.0000 
      6 C16         5.3080   37.8120   14.4630 C.2       1 EPB450      0.0000 
      7 O1          4.9930   38.5030   15.6230 O.3       1 EPB450      0.0000 
      8 C2          5.0660   37.8590   17.0260 C.3       1 EPB450      0.0000 
      9 C3          6.1860   38.6140   17.8460 C.3       1 EPB450      0.0000 
     10 C20         3.6080   38.1250   17.5810 C.2       1 EPB450      0.0000 
     11 C21         2.5790   37.2570   16.8730 C.3       1 EPB450      0.0000 
     12 C22         3.3380   39.0130   18.5810 C.2       1 EPB450      0.0000 
     13 C23         2.0900   39.4430   19.2130 C.2       1 EPB450      0.0000 
     14 N26         0.9430   39.5270   18.4430 N.2       1 EPB450      0.0000 
     15 C25        -0.1120   39.9620   19.1790 C.2       1 EPB450      0.0000 
     16 C27        -1.4350   40.0930   18.5310 C.3       1 EPB450      0.0000 
     17 C24         1.9220   39.8390   20.4860 C.2       1 EPB450      0.0000 
     18 S1          0.2960   40.2960   20.7660 S.3       1 EPB450      0.0000 
     19 C15         5.1050   38.6460   13.1720 C.3       1 EPB450      0.0000 
     20 C14         3.7640   39.5070   13.1110 C.3       1 EPB450      0.0000 
     21 O14         2.7530   38.5530   13.3900 O.3       1 EPB450      0.0000 
     22 C13         3.5290   40.3910   11.7640 C.3       1 EPB450      0.0000 
     23 C29         3.4150   39.4100   10.5450 C.3       1 EPB450      0.0000 
     24 C30         2.1790   41.1000   11.8390 C.3       1 EPB450      0.0000 
     25 C12         4.7720   41.4070   11.4750 C.2       1 EPB450      0.0000 
     26 O12         5.4510   41.3180   10.4030 O.2       1 EPB450      0.0000 
     27 C11         5.2510   42.5520   12.4510 C.3       1 EPB450      0.0000 
     28 C28         5.3570   43.8100   11.5550 C.3       1 EPB450      0.0000 
     29 C10         6.3050   41.9700   13.3450 C.3       1 EPB450      0.0000 
     30 O10         7.5420   41.7630   12.5940 O.3       1 EPB450      0.0000 
     31 C9          6.5080   42.9630   14.4720 C.3       1 EPB450      0.0000 
     32 C91         5.2810   43.0640   15.2480 C.3       1 EPB450      0.0000 
     33 C8          7.4690   42.5420   15.5290 C.3       1 EPB450      0.0000 
     34 C7          8.0530   41.0760   15.3970 C.3       1 EPB450      0.0000 
     35 C6          7.6140   40.4900   16.8430 C.3       1 EPB450      0.0000 
     36 H           7.7642   37.3401   16.9836 H         1 EPB450      0.0000 
     37 H           5.2440   36.8582   16.9472 H         1 EPB450      0.0000 
     38 H           6.0506   39.6824   17.6470 H         1 EPB450      0.0000 
     39 H           5.9693   38.4369   18.9048 H         1 EPB450      0.0000 
     40 H           4.2197   39.5287   19.0244 H         1 EPB450      0.0000 
     41 H           2.4637   39.9227   21.2345 H         1 EPB450      0.0000 
     42 H           5.1074   37.9736   12.3009 H         1 EPB450      0.0000 
     43 H           5.9505   39.3399   13.0509 H         1 EPB450      0.0000 
     44 H           3.8440   40.2180   13.9539 H         1 EPB450      0.0000 
     45 H           4.2972   42.6975   13.0781 H         1 EPB450      0.0000 
     46 H           5.9401   41.0533   13.7585 H         1 EPB450      0.0000 
     47 H           6.7710   43.9196   14.1040 H         1 EPB450      0.0000 
     48 H           6.9960   42.6090   16.5320 H         1 EPB450      0.0000 
     49 H           8.3394   43.2318   15.5587 H         1 EPB450      0.0000 
     50 H           9.0786   41.1108   15.3601 H         1 EPB450      0.0000 
     51 H           7.5418   40.5607   14.6706 H         1 EPB450      0.0000 
     52 H           7.8373   41.1755   17.5763 H         1 EPB450      0.0000 
     53 H           6.6591   40.1125   16.7878 H         1 EPB450      0.0000 
     54 H          10.4980   39.4361   16.1056 H         1 EPB450      0.0000 
     55 H           9.6154   38.2673   15.4415 H         1 EPB450      0.0000 
     56 H           9.2628   39.8081   15.1454 H         1 EPB450      0.0000 
     57 H           2.5558   37.4360   15.8894 H         1 EPB450      0.0000 
     58 H           2.7720   36.2827   16.9891 H         1 EPB450      0.0000 
     59 H           1.6555   37.4165   17.2218 H         1 EPB450      0.0000 
     60 H          -1.4114   40.7355   17.7651 H         1 EPB450      0.0000 
     61 H          -1.7601   39.2188   18.1703 H         1 EPB450      0.0000 
     62 H          -2.1302   40.4234   19.1694 H         1 EPB450      0.0000 
     63 H           4.2412   38.8576   10.4343 H         1 EPB450      0.0000 
     64 H           2.6497   38.7749   10.6497 H         1 EPB450      0.0000 
     65 H           3.2731   39.9008    9.6853 H         1 EPB450      0.0000 
     66 H           2.1266   41.7169   12.6243 H         1 EPB450      0.0000 
     67 H           2.0022   41.6495   11.0224 H         1 EPB450      0.0000 
     68 H           1.4230   40.4511   11.9250 H         1 EPB450      0.0000 
     69 H           5.6562   44.6111   12.0734 H         1 EPB450      0.0000 
     70 H           6.0119   43.6815   10.8103 H         1 EPB450      0.0000 
     71 H           4.4792   44.0428   11.1364 H         1 EPB450      0.0000 
     72 H           5.0177   42.1838   15.6428 H         1 EPB450      0.0000 
     73 H           5.3732   43.7095   16.0062 H         1 EPB450      0.0000 
     74 H           4.5127   43.3761   14.6891 H         1 EPB450      0.0000 
     75 H           2.6361   38.0431   12.5377 H         1 EPB450      0.0000 
     76 H           8.0515   42.6176   12.6942 H         1 EPB450      0.0000 
@<TRIPOS>BOND
     1    6    1 2    
     2    4    2 1    
     3   54    2 1    
     4   55    2 1    
     5   56    2 1    
     6    4    3 1    
     7    5    3 1    
     8    5    4 1    
     9   35    4 1    
    10    9    5 1    
    11   36    5 1    
    12    7    6 1    
    13   19    6 1    
    14    8    7 1    
    15    9    8 1    
    16   10    8 1    
    17   37    8 1    
    18   38    9 1    
    19   39    9 1    
    20   11   10 1    
    21   12   10 2    
    22   57   11 1    
    23   58   11 1    
    24   59   11 1    
    25   13   12 1    
    26   40   12 1    
    27   14   13 1    
    28   17   13 2    
    29   15   14 2    
    30   16   15 1    
    31   18   15 1    
    32   60   16 1    
    33   61   16 1    
    34   62   16 1    
    35   18   17 1    
    36   41   17 1    
    37   20   19 1    
    38   42   19 1    
    39   43   19 1    
    40   21   20 1    
    41   22   20 1    
    42   44   20 1    
    43   75   21 1    
    44   23   22 1    
    45   24   22 1    
    46   25   22 1    
    47   63   23 1    
    48   64   23 1    
    49   65   23 1    
    50   66   24 1    
    51   67   24 1    
    52   68   24 1    
    53   26   25 2    
    54   27   25 1    
    55   28   27 1    
    56   29   27 1    
    57   45   27 1    
    58   69   28 1    
    59   70   28 1    
    60   71   28 1    
    61   30   29 1    
    62   31   29 1    
    63   46   29 1    
    64   76   30 1    
    65   32   31 1    
    66   33   31 1    
    67   47   31 1    
    68   72   32 1    
    69   73   32 1    
    70   74   32 1    
    71   34   33 1    
    72   48   33 1    
    73   49   33 1    
    74   35   34 1    
    75   50   34 1    
    76   51   34 1    
    77   52   35 1    
    78   53   35 1    
@<TRIPOS>SUBSTRUCTURE
     1 EPB450      1 GROUP   
@<TRIPOS>SET

