#    Name: 4F46_1_CAVITY_N1_6.mol2
#    Modification time : Mon Mar 10 18:41:07 2014

@<TRIPOS>MOLECULE
4F46_1_CAVITY_N1_6.mol2
  120     0     7     0     0
SMALL
NO_CHARGES


@<TRIPOS>ATOM
      1 CA       -401.2854 -931.0908    4.7355 C.3       6 GLY6        0.0000 
      2 CZ       -399.9704 -931.5235    4.1580 C.ar      5 PHE5        0.0000 
      3 CZ       -398.6553 -931.9562    3.5805 C.ar      5 PHE5        0.0000 
      4 OD1      -397.3403 -932.3889    3.0029 O.3       3 ASP3        0.0000 
      5 OG       -403.2766 -931.8160    4.6408 O.2       1 SER1        0.0000 
      6 OG       -401.9616 -932.2487    4.0632 O.2       1 SER1        0.0000 
      7 CZ       -400.6466 -932.6814    3.4857 C.ar      5 PHE5        0.0000 
      8 CZ       -399.3316 -933.1141    2.9082 C.ar      5 PHE5        0.0000 
      9 OG       -402.6378 -933.4066    3.3910 O.2       1 SER1        0.0000 
     10 CZ       -401.3228 -933.8393    2.8135 C.ar      5 PHE5        0.0000 
     11 CA       -401.9991 -934.9972    2.1412 C.3       6 GLY6        0.0000 
     12 CZ       -400.6841 -935.4299    1.5637 C.ar      5 PHE5        0.0000 
     13 O        -402.6753 -936.1551    1.4689 O.2       2 ALA2        0.0000 
     14 N        -401.3603 -936.5878    0.8914 N.2       2 ALA2        0.0000 
     15 CZ       -400.2223 -930.6738    2.9478 C.ar      5 PHE5        0.0000 
     16 NZ       -398.9072 -931.1064    2.3703 N.2       4 LYS4        0.0000 
     17 CZ       -402.2135 -931.3990    2.8531 C.ar      5 PHE5        0.0000 
     18 NZ       -400.8985 -931.8317    2.2755 N.2       4 LYS4        0.0000 
     19 CZ       -399.5835 -932.2644    1.6980 C.ar      5 PHE5        0.0000 
     20 CA       -402.8897 -932.5569    2.1808 C.3       6 GLY6        0.0000 
     21 CZ       -401.5747 -932.9896    1.6033 C.ar      5 PHE5        0.0000 
     22 CA       -403.5660 -933.7148    1.5086 C.3       6 GLY6        0.0000 
     23 N        -402.2510 -934.1475    0.9310 N.2       2 ALA2        0.0000 
     24 N        -400.9360 -934.5802    0.3535 N.2       2 ALA2        0.0000 
     25 N        -402.9272 -935.3054    0.2588 N.2       2 ALA2        0.0000 
     26 CZ       -402.4654 -930.5493    1.6429 C.ar      5 PHE5        0.0000 
     27 NZ       -401.1504 -930.9820    1.0654 N.2       4 LYS4        0.0000 
     28 OG       -403.1416 -931.7072    0.9706 O.2       1 SER1        0.0000 
     29 NZ       -401.8266 -932.1399    0.3931 N.2       4 LYS4        0.0000 
     30 CZ       -400.5116 -932.5726   -0.1844 C.ar      5 PHE5        0.0000 
     31 CA       -403.8179 -932.8651    0.2984 C.3       6 GLY6        0.0000 
     32 NZ       -402.5029 -933.2978   -0.2792 N.2       4 LYS4        0.0000 
     33 CZ       -401.1879 -933.7305   -0.8567 C.ar      5 PHE5        0.0000 
     34 NZ       -403.1791 -934.4557   -0.9514 N.2       4 LYS4        0.0000 
     35 CZ       -402.6934 -937.2225   10.0194 C.ar      5 PHE5        0.0000 
     36 CA       -402.0785 -931.2902   -0.8171 C.3       6 GLY6        0.0000 
     37 NZ       -400.7635 -931.7228   -1.3946 N.2       4 LYS4        0.0000 
     38 NZ       -402.7548 -932.4481   -1.4893 N.2       4 LYS4        0.0000 
     39 O        -401.4398 -932.8808   -2.0669 O.2       2 ALA2        0.0000 
     40 CA       -400.1053 -931.6323    7.8281 C.3       6 GLY6        0.0000 
     41 OG       -403.4116 -931.9248    8.3109 O.2       1 SER1        0.0000 
     42 DU       -402.0966 -932.3575    7.7334 H         7 CUB7        0.0000 
     43 DU       -400.7816 -932.7902    7.1559 H         7 CUB7        0.0000 
     44 DU       -398.1516 -933.6556    6.0008 H         7 CUB7        0.0000 
     45 CA       -406.7178 -932.2174    8.7937 C.3       6 GLY6        0.0000 
     46 CA       -405.4028 -932.6501    8.2162 C.3       6 GLY6        0.0000 
     47 OG       -404.0878 -933.0827    7.6387 O.2       1 SER1        0.0000 
     48 OG       -402.7728 -933.5154    7.0611 O.2       1 SER1        0.0000 
     49 DU       -401.4578 -933.9481    6.4836 H         7 CUB7        0.0000 
     50 DU       -398.8278 -934.8135    5.3286 H         7 CUB7        0.0000 
     51 CZ       -397.5128 -935.2462    4.7510 C.ar      5 PHE5        0.0000 
     52 O        -407.3941 -933.3753    8.1215 O.2       2 ALA2        0.0000 
     53 OG       -406.0791 -933.8080    7.5439 O.2       1 SER1        0.0000 
     54 OG       -404.7641 -934.2407    6.9664 O.2       1 SER1        0.0000 
     55 OG       -403.4491 -934.6733    6.3889 O.2       1 SER1        0.0000 
     56 OG       -402.1341 -935.1060    5.8113 O.2       1 SER1        0.0000 
     57 DU       -400.8190 -935.5387    5.2338 H         7 CUB7        0.0000 
     58 CA       -399.5040 -935.9714    4.6563 C.3       6 GLY6        0.0000 
     59 CZ       -398.1890 -936.4041    4.0788 C.ar      5 PHE5        0.0000 
     60 O        -408.0703 -934.5332    7.4492 O.2       2 ALA2        0.0000 
     61 OG       -406.7553 -934.9659    6.8717 O.2       1 SER1        0.0000 
     62 OG       -404.1253 -935.8313    5.7166 O.2       1 SER1        0.0000 
     63 O        -402.8103 -936.2640    5.1391 O.2       2 ALA2        0.0000 
     64 O        -401.4953 -936.6966    4.5616 O.2       2 ALA2        0.0000 
     65 CA       -400.1803 -937.1293    3.9840 C.3       6 GLY6        0.0000 
     66 CA       -398.8653 -937.5620    3.4065 C.3       6 GLY6        0.0000 
     67 OG       -408.7466 -935.6911    6.7769 O.2       1 SER1        0.0000 
     68 CA       -403.4865 -937.4219    4.4668 C.3       6 GLY6        0.0000 
     69 CA       -400.3572 -930.7826    6.6179 C.3       6 GLY6        0.0000 
     70 O        -399.0422 -931.2153    6.0404 O.2       2 ALA2        0.0000 
     71 OD1      -397.7272 -931.6480    5.4629 O.3       3 ASP3        0.0000 
     72 CA       -403.6635 -931.0751    7.1007 C.3       6 GLY6        0.0000 
     73 CA       -402.3485 -931.5078    6.5232 C.3       6 GLY6        0.0000 
     74 CA       -401.0335 -931.9405    5.9457 C.3       6 GLY6        0.0000 
     75 DU       -399.7185 -932.3732    5.3682 H         7 CUB7        0.0000 
     76 OD1      -398.4035 -932.8059    4.7906 O.3       3 ASP3        0.0000 
     77 OD1      -397.0884 -933.2386    4.2131 O.3       3 ASP3        0.0000 
     78 N        -405.6547 -931.8003    7.0060 N.2       2 ALA2        0.0000 
     79 OG       -404.3397 -932.2330    6.4285 O.2       1 SER1        0.0000 
     80 OG       -403.0247 -932.6657    5.8510 O.2       1 SER1        0.0000 
     81 OG       -401.7097 -933.0984    5.2734 O.2       1 SER1        0.0000 
     82 DU       -400.3947 -933.5311    4.6959 H         7 CUB7        0.0000 
     83 CZ       -399.0797 -933.9638    4.1184 C.ar      5 PHE5        0.0000 
     84 N        -407.6460 -932.5256    6.9113 N.2       2 ALA2        0.0000 
     85 OG       -402.3859 -934.2563    4.6012 O.2       1 SER1        0.0000 
     86 DU       -401.0709 -934.6890    4.0236 H         7 CUB7        0.0000 
     87 CZ       -399.7559 -935.1217    3.4461 C.ar      5 PHE5        0.0000 
     88 OG       -408.3222 -933.6835    6.2390 O.2       1 SER1        0.0000 
     89 OG       -403.0622 -935.4142    3.9289 O.2       1 SER1        0.0000 
     90 DU       -401.7472 -935.8469    3.3514 H         7 CUB7        0.0000 
     91 CZ       -400.4322 -936.2796    2.7739 C.ar      5 PHE5        0.0000 
     92 OG       -402.4234 -937.0048    2.6791 O.2       1 SER1        0.0000 
     93 O        -401.1084 -937.4375    2.1016 O.2       2 ALA2        0.0000 
     94 CZ       -399.2941 -930.3656    4.8302 C.ar      5 PHE5        0.0000 
     95 OD1      -397.9791 -930.7982    4.2527 O.3       3 ASP3        0.0000 
     96 OG       -402.9078 -933.6243   10.7313 O.2       1 SER1        0.0000 
     97 CA       -403.5840 -934.7822   10.0590 C.3       6 GLY6        0.0000 
     98 DU       -402.2690 -935.2149    9.4815 H         7 CUB7        0.0000 
     99 CZ       -404.2603 -935.9401    9.3868 C.ar      5 PHE5        0.0000 
    100 DU       -402.9453 -936.3728    8.8092 H         7 CUB7        0.0000 
    101 DU       -401.6303 -936.8055    8.2317 H         7 CUB7        0.0000 
    102 CZ       -404.9365 -937.0980    8.7145 C.ar      5 PHE5        0.0000 
    103 O        -403.6215 -937.5307    8.1370 O.2       2 ALA2        0.0000 
    104 CA       -401.1684 -932.0493    9.6158 C.3       6 GLY6        0.0000 
    105 DU       -399.8534 -932.4820    9.0383 H         7 CUB7        0.0000 
    106 OG       -403.1597 -932.7745    9.5211 O.2       1 SER1        0.0000 
    107 DU       -401.8447 -933.2072    8.9436 H         7 CUB7        0.0000 
    108 OG       -405.1509 -933.4998    9.4264 O.2       1 SER1        0.0000 
    109 OG       -403.8359 -933.9325    8.8488 O.2       1 SER1        0.0000 
    110 DU       -402.5209 -934.3651    8.2713 H         7 CUB7        0.0000 
    111 O        -405.8272 -934.6577    8.7541 O.2       2 ALA2        0.0000 
    112 DU       -404.5122 -935.0904    8.1766 H         7 CUB7        0.0000 
    113 DU       -403.1972 -935.5231    7.5991 H         7 CUB7        0.0000 
    114 DU       -401.8822 -935.9558    7.0215 H         7 CUB7        0.0000 
    115 O        -400.5671 -936.3884    6.4440 O.2       2 ALA2        0.0000 
    116 CZ       -406.5034 -935.8156    8.0819 C.ar      5 PHE5        0.0000 
    117 N        -405.1884 -936.2483    7.5043 N.2       2 ALA2        0.0000 
    118 O        -403.8734 -936.6810    6.9268 O.2       2 ALA2        0.0000 
    119 O        -402.5584 -937.1137    6.3493 O.2       2 ALA2        0.0000 
    120 CA       -404.5496 -937.8389    6.2545 C.3       6 GLY6        0.0000 
@<TRIPOS>BOND
@<TRIPOS>SUBSTRUCTURE
     1 SER1        5 GROUP   
     2 ALA2       13 GROUP   
     3 ASP3        4 GROUP   
     4 LYS4       16 GROUP   
     5 PHE5        2 GROUP   
     6 GLY6        1 GROUP   
     7 CUB7       42 GROUP   
@<TRIPOS>SET

