#    Name: 4f46_DVN_1_INTS_M
#    Modification time : Mon Mar 24 18:57:53 2014

@<TRIPOS>MOLECULE
4f46_DVN_1_INTS_M
   65     0    12     0     0
SMALL
NO_CHARGES


@<TRIPOS>ATOM
      1 N        -401.8150 -934.7020   -3.5450 N.am      2 SEC2        0.0000 
      2 N        -402.5000 -933.5450   -2.7000 N.am     10 SEL2        0.0000 
      3 N        -401.1300 -935.8590   -4.3900 N.am      6 SEP2        0.0000 
      4 O        -403.8715 -933.7300   -2.6605 O.2       1 ALC1        0.0000 
      5 O        -402.5000 -933.5450   -2.7000 O.2       9 ALL1        0.0000 
      6 O        -405.2430 -933.9150   -2.6210 O.2       5 ALP1        0.0000 
      7 O        -400.1480 -930.4980   -1.3070 O.2       1 ALC1        0.0000 
      8 O        -401.2180 -931.1720   -2.0850 O.2       9 ALL1        0.0000 
      9 O        -399.0780 -929.8240   -0.5290 O.2       5 ALP1        0.0000 
     10 CA       -404.3320 -932.2850    1.1360 C.3       4 GLC5        0.0000 
     11 CA       -402.5880 -931.7330   -0.1090 C.3      12 GLL5        0.0000 
     12 CA       -406.0760 -932.8370    2.3810 C.3       8 GLP5        0.0000 
     13 O        -404.5310 -930.5100   -0.1540 O.2       1 ALC1        0.0000 
     14 O        -403.6410 -931.1590   -0.8810 O.2       9 ALL1        0.0000 
     15 O        -405.4210 -929.8610    0.5730 O.2       5 ALP1        0.0000 
     16 CA       -399.7000 -935.0695    0.7810 C.3       4 GLC5        0.0000 
     17 CA       -401.3590 -934.5860    0.7580 C.3      12 GLL5        0.0000 
     18 CA       -398.0410 -935.5530    0.8040 C.3       8 GLP5        0.0000 
     19 N        -399.9635 -938.1245    1.8390 N.am      2 SEC2        0.0000 
     20 N        -400.8780 -937.1100    2.6290 N.am     10 SEL2        0.0000 
     21 N        -399.0490 -939.1390    1.0490 N.am      6 SEP2        0.0000 
     22 N        -401.0380 -938.3640    3.7400 N.am      2 SEC2        0.0000 
     23 N        -401.1980 -939.6180    4.8510 N.am      6 SEP2        0.0000 
     24 N        -402.8990 -938.5560    1.1795 N.am      2 SEC2        0.0000 
     25 N        -403.2780 -937.2220    1.6670 N.am     10 SEL2        0.0000 
     26 N        -402.5200 -939.8900    0.6920 N.am      6 SEP2        0.0000 
     27 N        -404.6265 -936.7805    1.2670 N.am      2 SEC2        0.0000 
     28 N        -405.9750 -936.3390    0.8670 N.am      6 SEP2        0.0000 
     29 N        -404.4865 -936.3830    3.8445 N.am      2 SEC2        0.0000 
     30 N        -402.9960 -936.3130    3.9960 N.am     10 SEL2        0.0000 
     31 N        -405.9770 -936.4530    3.6930 N.am      6 SEP2        0.0000 
     32 N        -404.1325 -935.0285    4.2240 N.am      2 SEC2        0.0000 
     33 N        -405.2690 -933.7440    4.4520 N.am      6 SEP2        0.0000 
     34 NZ       -401.6855 -938.4430    5.9170 N.4       3 LYC4        0.0000 
     35 NZ       -401.5500 -936.4780    6.1060 N.4      11 LYL4        0.0000 
     36 NZ       -401.8210 -940.4080    5.7280 N.4       7 LYP4        0.0000 
     37 N        -404.4455 -934.3360    5.2165 N.am      2 SEC2        0.0000 
     38 N        -403.6220 -934.9280    5.9810 N.am     10 SEL2        0.0000 
     39 CA       -403.7330 -933.4975    3.7105 C.3       4 GLC5        0.0000 
     40 CA       -401.9640 -932.9250    4.3380 C.3      12 GLL5        0.0000 
     41 CA       -405.5020 -934.0700    3.0830 C.3       8 GLP5        0.0000 
     42 CA       -398.7065 -933.2665    2.5875 C.3       4 GLC5        0.0000 
     43 CA       -399.4940 -932.3480    4.1190 C.3      12 GLL5        0.0000 
     44 CA       -397.9190 -934.1850    1.0560 C.3       8 GLP5        0.0000 
     45 N        -396.1680 -932.2330    4.4680 N.am      2 SEC2        0.0000 
     46 N        -397.4030 -933.0060    5.2400 N.am     10 SEL2        0.0000 
     47 N        -394.9330 -931.4600    3.6960 N.am      6 SEP2        0.0000 
     48 NZ       -394.9745 -932.6930    4.6225 N.4       3 LYC4        0.0000 
     49 NZ       -395.0160 -933.9260    5.5490 N.4      11 LYL4        0.0000 
     50 NZ       -394.9330 -931.4600    3.6960 N.4       7 LYP4        0.0000 
     51 N        -394.9745 -932.6930    4.6225 N.am      2 SEC2        0.0000 
     52 N        -395.0160 -933.9260    5.5490 N.am     10 SEL2        0.0000 
     53 CA       -400.6595 -930.3905    6.3170 C.3       4 GLC5        0.0000 
     54 CA       -399.3900 -932.1480    6.4470 C.3      12 GLL5        0.0000 
     55 CA       -401.9290 -928.6330    6.1870 C.3       8 GLP5        0.0000 
     56 CA       -399.8010 -929.4600   10.1305 C.3       4 GLC5        0.0000 
     57 CA       -398.4260 -930.6390   10.4980 C.3      12 GLL5        0.0000 
     58 CA       -401.1760 -928.2810    9.7630 C.3       8 GLP5        0.0000 
     59 CA       -402.5172 -930.0372   -0.8220 C.3       4 GLC5        0.0000 
     60 CA       -401.3650 -932.0740   -0.9770 C.3      12 GLL5        0.0000 
     61 CA       -403.0580 -928.1710   -1.1010 C.3       8 GLP5        0.0000 
     62 CA       -400.0958 -933.5779   -0.9895 C.3       4 GLC5        0.0000 
     63 CA       -398.2360 -933.7150   -1.2470 C.3       8 GLP5        0.0000 
     64 CA       -402.0487 -930.5432    4.7520 C.3       4 GLC5        0.0000 
     65 CA       -402.6830 -928.6740    5.0180 C.3       8 GLP5        0.0000 
@<TRIPOS>BOND
@<TRIPOS>SUBSTRUCTURE
     1 ALC1        4 GROUP        1 X    ALC  0     ROOT ALC X 1
     2 SEC2        1 GROUP        1 X    SEC  0     **** SEC X 2
     3 LYC4       34 GROUP        1 X    LYC  0     **** LYC X 4
     4 GLC5       10 GROUP        1 X    GLC  0     **** GLC X 6
     5 ALP1        6 GROUP        1 Y    ALP  0     ROOT ALP Y 8
     6 SEP2        3 GROUP        1 Y    SEP  0     **** SEP Y 9
     7 LYP4       36 GROUP        1 Y    LYP  0     **** LYP Y 11
     8 GLP5       12 GROUP        1 Y    GLP  0     **** GLP Y 13
     9 ALL1        5 GROUP        1 Z    ALL  0     ROOT ALL Z 15
    10 SEL2        2 GROUP        1 Z    SEL  0     **** SEL Z 16
    11 LYL4       35 GROUP        1 Z    LYL  0     **** LYL Z 18
    12 GLL5       11 GROUP        1 Z    GLL  0     **** GLL Z 20
@<TRIPOS>SET

