#    Name: 4f46_DVN_1_ligand
#    Modification time : Mon Mar 24 18:57:53 2014

@<TRIPOS>MOLECULE
4f46_DVN_1_ligand
   60    63     1     0     0
SMALL
NO_CHARGES


@<TRIPOS>ATOM
      1 O3'      -402.5000 -933.5450   -2.7000 O.3       1 DVN401      0.0000 
      2 C3'      -401.6810 -933.4970   -1.4630 C.3       1 DVN401      0.0000 
      3 C2'      -401.3650 -932.0740   -0.9770 C.3       1 DVN401      0.0000 
      4 O2'      -401.2180 -931.1720   -2.0850 O.3       1 DVN401      0.0000 
      5 C1'      -402.5880 -931.7330   -0.1090 C.3       1 DVN401      0.0000 
      6 O1'      -403.6410 -931.1590   -0.8810 O.3       1 DVN401      0.0000 
      7 O4'      -403.1080 -932.9850    0.3890 O.3       1 DVN401      0.0000 
      8 C4'      -402.3880 -934.0960   -0.2440 C.3       1 DVN401      0.0000 
      9 C5'      -401.3590 -934.5860    0.7580 C.3       1 DVN401      0.0000 
     10 O5'      -402.1580 -934.9220    1.9220 O.3       1 DVN401      0.0000 
     11 PBM      -402.3450 -936.4380    2.5300 P.3       1 DVN401      0.0000 
     12 OAK      -400.8780 -937.1100    2.6290 O.co2     1 DVN401      0.0000 
     13 OAC      -403.2780 -937.2220    1.6670 O.co2     1 DVN401      0.0000 
     14 OAY      -402.9960 -936.3130    3.9960 O.3       1 DVN401      0.0000 
     15 PBN      -402.4390 -935.4320    5.2400 P.3       1 DVN401      0.0000 
     16 OAL      -401.5500 -936.4780    6.1060 O.co2     1 DVN401      0.0000 
     17 OAD      -403.6220 -934.9280    5.9810 O.co2     1 DVN401      0.0000 
     18 OAU      -401.4820 -934.2430    4.7000 O.3       1 DVN401      0.0000 
     19 CAP      -401.9640 -932.9250    4.3380 C.3       1 DVN401      0.0000 
     20 CBH      -400.8650 -931.9000    4.6340 C.3       1 DVN401      0.0000 
     21 OAW      -400.7690 -931.8770    6.0740 O.3       1 DVN401      0.0000 
     22 CBF      -399.4940 -932.3480    4.1190 C.3       1 DVN401      0.0000 
     23 OAH      -398.6960 -931.2190    3.7770 O.3       1 DVN401      0.0000 
     24 CBI      -398.8560 -933.0360    5.3240 C.3       1 DVN401      0.0000 
     25 OAX      -397.4030 -933.0060    5.2400 O.3       1 DVN401      0.0000 
     26 PBL      -396.5720 -934.3830    5.4880 P.3       1 DVN401      0.0000 
     27 OAI      -395.0160 -933.9260    5.5490 O.co2     1 DVN401      0.0000 
     28 OAJ      -396.7670 -935.2740    4.1400 O.co2     1 DVN401      0.0000 
     29 OAB      -397.0380 -935.1050    6.7080 O.co2     1 DVN401      0.0000 
     30 CBJ      -399.3900 -932.1480    6.4470 C.3       1 DVN401      0.0000 
     31 N9       -399.4950 -932.8200    7.7710 N.pl3     1 DVN401      0.0000 
     32 C8       -399.9480 -934.0460    8.0410 C.2       1 DVN401      0.0000 
     33 N7       -399.9000 -934.2330    9.3640 N.2       1 DVN401      0.0000 
     34 C5       -399.4150 -933.1170    9.9180 C.ar      1 DVN401      0.0000 
     35 C4       -399.1770 -932.2340    8.9260 C.ar      1 DVN401      0.0000 
     36 N3       -398.6880 -931.0020    9.1800 N.ar      1 DVN401      0.0000 
     37 C2       -398.4260 -930.6390   10.4980 C.ar      1 DVN401      0.0000 
     38 N1       -398.6930 -931.5760   11.5080 N.ar      1 DVN401      0.0000 
     39 C6       -399.1770 -932.7870   11.1950 C.ar      1 DVN401      0.0000 
     40 N6       -399.4430 -933.7100   12.1380 N.pl3     1 DVN401      0.0000 
     41 H        -400.7437 -934.0123   -1.5734 H         1 DVN401      0.0000 
     42 H        -400.5166 -932.1265   -0.3457 H         1 DVN401      0.0000 
     43 H        -402.2838 -931.1133    0.6890 H         1 DVN401      0.0000 
     44 H        -403.0278 -934.8585   -0.5321 H         1 DVN401      0.0000 
     45 H        -400.6732 -933.7930    0.9662 H         1 DVN401      0.0000 
     46 H        -400.8664 -935.4455    0.3565 H         1 DVN401      0.0000 
     47 H        -402.8461 -932.6515    4.9151 H         1 DVN401      0.0000 
     48 H        -402.2044 -932.8666    3.2775 H         1 DVN401      0.0000 
     49 H        -401.1222 -930.9677    4.2495 H         1 DVN401      0.0000 
     50 H        -399.6176 -933.0434    3.3543 H         1 DVN401      0.0000 
     51 H        -399.2712 -933.9899    5.4215 H         1 DVN401      0.0000 
     52 H        -398.8477 -931.2561    6.5024 H         1 DVN401      0.0000 
     53 H        -400.2600 -934.6937    7.3881 H         1 DVN401      0.0000 
     54 H        -398.0531 -929.7256   10.7271 H         1 DVN401      0.0000 
     55 H        -399.7759 -934.5932   11.8077 H         1 DVN401      0.0000 
     56 H        -399.2840 -933.4302   13.0848 H         1 DVN401      0.0000 
     57 H        -403.4433 -933.6411   -2.3822 H         1 DVN401      0.0000 
     58 H        -400.3800 -930.6611   -1.8932 H         1 DVN401      0.0000 
     59 H        -404.2461 -930.7269   -0.2123 H         1 DVN401      0.0000 
     60 H        -397.7571 -931.4934    3.9846 H         1 DVN401      0.0000 
@<TRIPOS>BOND
     1    2    1 1    
     2   57    1 1    
     3    3    2 1    
     4    8    2 1    
     5   41    2 1    
     6    4    3 1    
     7    5    3 1    
     8   42    3 1    
     9   58    4 1    
    10    6    5 1    
    11    7    5 1    
    12   43    5 1    
    13   59    6 1    
    14    8    7 1    
    15    9    8 1    
    16   44    8 1    
    17   10    9 1    
    18   45    9 1    
    19   46    9 1    
    20   11   10 1    
    21   12   11 ar   
    22   13   11 ar   
    23   14   11 1    
    24   15   14 1    
    25   16   15 ar   
    26   17   15 ar   
    27   18   15 1    
    28   19   18 1    
    29   20   19 1    
    30   47   19 1    
    31   48   19 1    
    32   21   20 1    
    33   22   20 1    
    34   49   20 1    
    35   30   21 1    
    36   23   22 1    
    37   24   22 1    
    38   50   22 1    
    39   60   23 1    
    40   25   24 1    
    41   30   24 1    
    42   51   24 1    
    43   26   25 1    
    44   27   26 ar   
    45   28   26 ar   
    46   29   26 ar   
    47   31   30 1    
    48   52   30 1    
    49   32   31 1    
    50   35   31 1    
    51   33   32 2    
    52   53   32 1    
    53   34   33 1    
    54   35   34 ar   
    55   39   34 ar   
    56   36   35 ar   
    57   37   36 ar   
    58   38   37 ar   
    59   54   37 1    
    60   39   38 ar   
    61   40   39 1    
    62   55   40 1    
    63   56   40 1    
@<TRIPOS>SUBSTRUCTURE
     1 DVN401      1 GROUP   
@<TRIPOS>SET

