#    Name: 4jbp_YPH_1_INTS_M
#    Modification time : Tue Mar 25 05:43:16 2014

@<TRIPOS>MOLECULE
4jbp_YPH_1_INTS_M
  111     0     9     0     0
SMALL
NO_CHARGES


@<TRIPOS>ATOM
      1 CA          2.2700   38.7740    4.2865 C.3       3 GLC5        0.0000 
      2 CA          1.5620   38.5130    2.2140 C.3       9 GLL5        0.0000 
      3 CA          2.9780   39.0350    6.3590 C.3       6 GLP5        0.0000 
      4 CA          4.0375   37.6955   -0.0905 C.3       3 GLC5        0.0000 
      5 CA          2.7080   38.8140    1.2540 C.3       9 GLL5        0.0000 
      6 CA          5.3670   36.5770   -1.4350 C.3       6 GLP5        0.0000 
      7 N          -0.4075   34.3345    2.8420 N.am      2 SEC2        0.0000 
      8 N           0.8320   35.3130    2.8700 N.am      8 SEL2        0.0000 
      9 N          -1.6470   33.3560    2.8140 N.am      5 SEP2        0.0000 
     10 CA          2.1740   30.8520    4.5680 C.3       3 GLC5        0.0000 
     11 CA          3.0100   32.6740    4.1330 C.3       9 GLL5        0.0000 
     12 CA          1.3380   29.0300    5.0030 C.3       6 GLP5        0.0000 
     13 CA          2.0590   30.8125    6.8850 C.3       3 GLC5        0.0000 
     14 CA          3.5070   32.0080    6.4380 C.3       9 GLL5        0.0000 
     15 CA          0.6110   29.6170    7.3320 C.3       6 GLP5        0.0000 
     16 CA          2.8685   30.0160    5.6500 C.3       3 GLC5        0.0000 
     17 CA          4.3990   31.0020    6.2970 C.3       9 GLL5        0.0000 
     18 CA          3.0195   29.8745    9.7110 C.3       3 GLC5        0.0000 
     19 CA          4.0220   31.3440    8.4570 C.3       9 GLL5        0.0000 
     20 CA          2.0170   28.4050   10.9650 C.3       6 GLP5        0.0000 
     21 CA          4.5570   33.1085    9.3135 C.3       3 GLC5        0.0000 
     22 CA          5.0920   34.8730   10.1700 C.3       6 GLP5        0.0000 
     23 N           3.5940   32.5710   10.4445 N.am      2 SEC2        0.0000 
     24 N           4.1360   31.1470    9.7720 N.am      8 SEL2        0.0000 
     25 N           3.0520   33.9950   11.1170 N.am      5 SEP2        0.0000 
     26 CA          3.4785   29.2985   10.5910 C.3       3 GLC5        0.0000 
     27 CA          4.9400   30.1920   10.2170 C.3       9 GLL5        0.0000 
     28 CA          6.4695   30.3735   11.2950 C.3       3 GLC5        0.0000 
     29 CA          7.9990   30.5550   12.3730 C.3       6 GLP5        0.0000 
     30 CA          4.9820   28.7900   11.9200 C.3       3 GLC5        0.0000 
     31 CA          5.0240   27.3880   13.6230 C.3       6 GLP5        0.0000 
     32 CA          3.4345   31.3170   11.4120 C.3       3 GLC5        0.0000 
     33 CA          1.9290   32.4420   12.6070 C.3       6 GLP5        0.0000 
     34 CA          6.3010   31.1470    9.6580 C.3       3 GLC5        0.0000 
     35 CA          7.6620   32.1020    9.0990 C.3       6 GLP5        0.0000 
     36 CA          6.2210   26.5410    7.0610 C.3       3 GLC5        0.0000 
     37 CA          7.1850   27.7220    7.8720 C.3       9 GLL5        0.0000 
     38 CA          5.2570   25.3600    6.2500 C.3       6 GLP5        0.0000 
     39 CA          6.6710   26.9120    9.7990 C.3       3 GLC5        0.0000 
     40 CA          6.1570   26.1020   11.7260 C.3       6 GLP5        0.0000 
     41 CA          8.1030   30.1835    8.7415 C.3       3 GLC5        0.0000 
     42 CA          8.5440   28.2650    8.3840 C.3       9 GLL5        0.0000 
     43 CA          9.4560   23.7305   11.7540 C.3       3 GLC5        0.0000 
     44 CA         10.0590   25.5510   10.6120 C.3       9 GLL5        0.0000 
     45 CA          8.8530   21.9100   12.8960 C.3       6 GLP5        0.0000 
     46 CA         11.9320   26.2040   10.7415 C.3       3 GLC5        0.0000 
     47 CA         13.8050   26.8570   10.8710 C.3       6 GLP5        0.0000 
     48 O          12.2880   23.0025   11.5670 O.2       1 ALC1        0.0000 
     49 O          11.7440   23.9450   10.2470 O.2       7 ALL1        0.0000 
     50 O          12.8320   22.0600   12.8870 O.2       4 ALP1        0.0000 
     51 O          12.1485   24.0815   11.7405 O.2       1 ALC1        0.0000 
     52 O          12.5530   24.2180   13.2340 O.2       4 ALP1        0.0000 
     53 N          10.3820   22.8060    7.6235 N.am      2 SEC2        0.0000 
     54 N          11.3930   22.5110    8.5460 N.am      8 SEL2        0.0000 
     55 N           9.3710   23.1010    6.7010 N.am      5 SEP2        0.0000 
     56 O          12.7935   21.9800   11.5545 O.2       1 ALC1        0.0000 
     57 O          12.7550   21.9000   10.2220 O.2       7 ALL1        0.0000 
     58 CA         16.2920   18.0300   10.9250 C.3       3 GLC5        0.0000 
     59 CA         14.4170   18.6750   10.0450 C.3       9 GLL5        0.0000 
     60 CA         18.1670   17.3850   11.8050 C.3       6 GLP5        0.0000 
     61 CA         14.6715   16.4870    8.1935 C.3       3 GLC5        0.0000 
     62 CA         13.8870   18.1470    8.8710 C.3       9 GLL5        0.0000 
     63 CA         15.4560   14.8270    7.5160 C.3       6 GLP5        0.0000 
     64 CA         12.0275   18.3280    6.5795 C.3       3 GLC5        0.0000 
     65 CA         12.9570   18.8880    8.1420 C.3       9 GLL5        0.0000 
     66 CA         11.0980   17.7680    5.0170 C.3       6 GLP5        0.0000 
     67 CA          2.0640   39.4120   -2.3465 C.3       3 GLC5        0.0000 
     68 CA          2.2220   39.5470   -0.0120 C.3       9 GLL5        0.0000 
     69 CA          2.5080   39.6420   -4.3730 C.3       6 GLP5        0.0000 
     70 CA          3.3255   35.0003    4.1920 C.3       3 GLC5        0.0000 
     71 CA          1.4900   34.5080    3.7430 C.3       9 GLL5        0.0000 
     72 CA          4.7400   35.9900    4.8870 C.3       6 GLP5        0.0000 
     73 CA          1.2790   35.6425    7.2167 C.3       3 GLC5        0.0000 
     74 CA          2.0080   33.8320    5.9950 C.3       9 GLL5        0.0000 
     75 CA          0.8950   37.0380    8.8760 C.3       6 GLP5        0.0000 
     76 CA          3.2015   35.1185    5.2222 C.3       3 GLC5        0.0000 
     77 CA          0.8360   32.0918    5.4344 C.3       3 GLC5        0.0000 
     78 CA         -0.5840   30.6470    5.3330 C.3       6 GLP5        0.0000 
     79 CA          3.9791   34.1845    5.2589 C.3       3 GLC5        0.0000 
     80 CA          5.8695   32.3545    6.6152 C.3       3 GLC5        0.0000 
     81 CA          7.7860   33.2040    6.8630 C.3       6 GLP5        0.0000 
     82 CA          2.4940   30.2873    7.6628 C.3       3 GLC5        0.0000 
     83 CA          4.7320   30.5710    7.5300 C.3       9 GLL5        0.0000 
     84 CA          4.3483   28.1983    7.7775 C.3       3 GLC5        0.0000 
     85 CA          3.5410   26.3180    7.7680 C.3       6 GLP5        0.0000 
     86 CA          6.3200   31.1869    8.5589 C.3       3 GLC5        0.0000 
     87 CA          8.6118   24.5570    9.3993 C.3       3 GLC5        0.0000 
     88 CA          9.2820   26.6070   10.1490 C.3       9 GLL5        0.0000 
     89 CA          7.5530   23.0350    8.4180 C.3       6 GLP5        0.0000 
     90 CA         10.2556   28.7850    9.7658 C.3       3 GLC5        0.0000 
     91 CA         11.3770   30.4240   10.1460 C.3       6 GLP5        0.0000 
     92 CA          7.9321   26.1527   10.8921 C.3       3 GLC5        0.0000 
     93 CA          9.4290   27.1050    8.8600 C.3       9 GLL5        0.0000 
     94 CA          9.3090   24.1210    8.7715 C.3       3 GLC5        0.0000 
     95 CA         11.1420   25.4590    8.4760 C.3       9 GLL5        0.0000 
     96 CA         12.4567   26.0950    9.1898 C.3       3 GLC5        0.0000 
     97 CA         10.9880   24.9550    9.7740 C.3       9 GLL5        0.0000 
     98 CA         14.0410   26.7160    9.3690 C.3       6 GLP5        0.0000 
     99 CA         11.1525   19.5498    8.9180 C.3       3 GLC5        0.0000 
    100 CA         13.0860   20.6890    9.7520 C.3       9 GLL5        0.0000 
    101 CA          9.4820   18.6780    8.6710 C.3       6 GLP5        0.0000 
    102 CA         13.6210   17.7735   11.3080 C.3       3 GLC5        0.0000 
    103 CA         13.0900   17.1360   13.1580 C.3       6 GLP5        0.0000 
    104 CA         15.2401   20.8724   10.8881 C.3       3 GLC5        0.0000 
    105 CA         16.4960   22.2500   11.6970 C.3       6 GLP5        0.0000 
    106 CA         11.4520   18.5978    8.5888 C.3       3 GLC5        0.0000 
    107 CA         12.8797   17.0502    8.5145 C.3       3 GLC5        0.0000 
    108 CA         12.2050   15.4510    8.2290 C.3       6 GLP5        0.0000 
    109 CA         12.3049   19.6376   10.9734 C.3       3 GLC5        0.0000 
    110 CA         12.5600   20.1540    8.5780 C.3       9 GLL5        0.0000 
    111 CA         11.5540   19.0410   12.6010 C.3       6 GLP5        0.0000 
@<TRIPOS>BOND
@<TRIPOS>SUBSTRUCTURE
     1 ALC1       48 GROUP        1 X    ALC  0     ROOT ALC X 1
     2 SEC2        7 GROUP        1 X    SEC  0     **** SEC X 2
     3 GLC5        1 GROUP        1 X    GLC  0     **** GLC X 6
     4 ALP1       50 GROUP        1 Y    ALP  0     ROOT ALP Y 8
     5 SEP2        9 GROUP        1 Y    SEP  0     **** SEP Y 9
     6 GLP5        3 GROUP        1 Y    GLP  0     **** GLP Y 13
     7 ALL1       49 GROUP        1 Z    ALL  0     ROOT ALL Z 15
     8 SEL2        8 GROUP        1 Z    SEL  0     **** SEL Z 16
     9 GLL5        2 GROUP        1 Z    GLL  0     **** GLL Z 20
@<TRIPOS>SET

