#    Name: 4jbp_YPH_1_ligand
#    Modification time : Tue Mar 25 05:43:16 2014

@<TRIPOS>MOLECULE
4jbp_YPH_1_ligand
   81    86     1     0     0
SMALL
NO_CHARGES


@<TRIPOS>ATOM
      1 C38         1.5620   38.5130    2.2140 C.3       1 YPH501      0.0000 
      2 C39         2.7080   38.8140    1.2540 C.3       1 YPH501      0.0000 
      3 C40         2.2220   39.5470   -0.0120 C.3       1 YPH501      0.0000 
      4 O43         3.2860   39.6140   -0.9720 O.3       1 YPH501      0.0000 
      5 C41         1.0180   38.8170   -0.6280 C.3       1 YPH501      0.0000 
      6 C42        -0.0520   38.5450    0.4350 C.3       1 YPH501      0.0000 
      7 N35         0.5300   37.7310    1.5160 N.4       1 YPH501      0.0000 
      8 C36        -0.5220   37.3180    2.4510 C.3       1 YPH501      0.0000 
      9 C37         0.0520   36.3780    3.5020 C.3       1 YPH501      0.0000 
     10 O34         0.8320   35.3130    2.8700 O.3       1 YPH501      0.0000 
     11 C9          1.4900   34.5080    3.7430 C.ar      1 YPH501      0.0000 
     12 C8          2.3320   33.5130    3.2510 C.ar      1 YPH501      0.0000 
     13 C7          3.0100   32.6740    4.1330 C.ar      1 YPH501      0.0000 
     14 C10         1.3180   34.6620    5.1200 C.ar      1 YPH501      0.0000 
     15 C11         2.0080   33.8320    5.9950 C.ar      1 YPH501      0.0000 
     16 C6          2.8490   32.8260    5.5140 C.ar      1 YPH501      0.0000 
     17 C2          3.5070   32.0080    6.4380 C.2       1 YPH501      0.0000 
     18 O3          3.2800   32.2240    7.7600 O.3       1 YPH501      0.0000 
     19 C1          4.3990   31.0020    6.2970 C.2       1 YPH501      0.0000 
     20 C5          4.7320   30.5710    7.5300 C.ar      1 YPH501      0.0000 
     21 C4          4.0220   31.3440    8.4570 C.ar      1 YPH501      0.0000 
     22 N12         4.1360   31.1470    9.7720 N.ar      1 YPH501      0.0000 
     23 C13         4.9400   30.1920   10.2170 C.ar      1 YPH501      0.0000 
     24 N14         5.6390   29.4330    9.3820 N.ar      1 YPH501      0.0000 
     25 C15         5.5790   29.5860    8.0440 C.ar      1 YPH501      0.0000 
     26 N44         6.3330   28.7870    7.2760 N.pl3     1 YPH501      0.0000 
     27 C16         7.1850   27.7220    7.8720 C.3       1 YPH501      0.0000 
     28 C17         8.5440   28.2650    8.3840 C.3       1 YPH501      0.0000 
     29 C18         9.4290   27.1050    8.8600 C.ar      1 YPH501      0.0000 
     30 C19         9.2820   26.6070   10.1490 C.ar      1 YPH501      0.0000 
     31 C20        10.0590   25.5510   10.6120 C.ar      1 YPH501      0.0000 
     32 C23        10.3720   26.5270    8.0180 C.ar      1 YPH501      0.0000 
     33 C22        11.1420   25.4590    8.4760 C.ar      1 YPH501      0.0000 
     34 C21        10.9880   24.9550    9.7740 C.ar      1 YPH501      0.0000 
     35 N24        11.7440   23.9450   10.2470 N.am      1 YPH501      0.0000 
     36 C25        11.9340   22.7720    9.6150 C.2       1 YPH501      0.0000 
     37 O33        11.3930   22.5110    8.5460 O.2       1 YPH501      0.0000 
     38 N26        12.7550   21.9000   10.2220 N.am      1 YPH501      0.0000 
     39 C27        13.0860   20.6890    9.7520 C.ar      1 YPH501      0.0000 
     40 C28        14.0170   19.9400   10.4750 C.ar      1 YPH501      0.0000 
     41 C29        14.4170   18.6750   10.0450 C.ar      1 YPH501      0.0000 
     42 C30        13.8870   18.1470    8.8710 C.ar      1 YPH501      0.0000 
     43 C31        12.9570   18.8880    8.1420 C.ar      1 YPH501      0.0000 
     44 C32        12.5600   20.1540    8.5780 C.ar      1 YPH501      0.0000 
     45 H           1.1533   39.4575    2.5730 H         1 YPH501      0.0000 
     46 H           1.9583   37.9571    3.0636 H         1 YPH501      0.0000 
     47 H           3.1880   37.8789    0.9564 H         1 YPH501      0.0000 
     48 H           3.4502   39.4373    1.7580 H         1 YPH501      0.0000 
     49 H           1.8996   40.5354    0.2797 H         1 YPH501      0.0000 
     50 H           1.3519   37.8735   -1.0513 H         1 YPH501      0.0000 
     51 H           0.5931   39.4328   -1.4161 H         1 YPH501      0.0000 
     52 H          -0.8817   38.0232   -0.0381 H         1 YPH501      0.0000 
     53 H          -0.4065   39.5000    0.8181 H         1 YPH501      0.0000 
     54 H           0.9897   36.8476    1.0800 H         1 YPH501      0.0000 
     55 H          -1.3262   36.7983    1.9234 H         1 YPH501      0.0000 
     56 H          -0.9503   38.1860    2.9592 H         1 YPH501      0.0000 
     57 H          -0.7785   35.9591    4.0814 H         1 YPH501      0.0000 
     58 H           0.6774   36.9639    4.1850 H         1 YPH501      0.0000 
     59 H           2.4532   33.3977    2.2371 H         1 YPH501      0.0000 
     60 H           3.6314   31.9399    3.7697 H         1 YPH501      0.0000 
     61 H           0.6860   35.3837    5.4802 H         1 YPH501      0.0000 
     62 H           1.8997   33.9580    7.0148 H         1 YPH501      0.0000 
     63 H           4.7346   30.6571    5.4646 H         1 YPH501      0.0000 
     64 H           5.0272   30.0304   11.2597 H         1 YPH501      0.0000 
     65 H           6.3675   28.8603    6.2477 H         1 YPH501      0.0000 
     66 H           7.3920   26.9384    7.1308 H         1 YPH501      0.0000 
     67 H           6.6696   27.2492    8.7188 H         1 YPH501      0.0000 
     68 H           8.3627   28.9433    9.2076 H         1 YPH501      0.0000 
     69 H           9.0385   28.7897    7.5768 H         1 YPH501      0.0000 
     70 H           8.5761   27.0329   10.7809 H         1 YPH501      0.0000 
     71 H           9.9427   25.2135   11.5772 H         1 YPH501      0.0000 
     72 H          10.5018   26.8828    7.0654 H         1 YPH501      0.0000 
     73 H          11.8420   25.0279    7.8471 H         1 YPH501      0.0000 
     74 H          12.2290   24.0865   11.1952 H         1 YPH501      0.0000 
     75 H          13.1843   22.2002   11.1682 H         1 YPH501      0.0000 
     76 H          14.4169   20.3315   11.3457 H         1 YPH501      0.0000 
     77 H          15.0977   18.1378   10.5913 H         1 YPH501      0.0000 
     78 H          14.1772   17.2209    8.5438 H         1 YPH501      0.0000 
     79 H          12.5593   18.4990    7.2748 H         1 YPH501      0.0000 
     80 H          11.8766   20.6923    8.0292 H         1 YPH501      0.0000 
     81 H           2.9771   40.2762   -1.6547 H         1 YPH501      0.0000 
@<TRIPOS>BOND
     1    2    1 1    
     2    7    1 1    
     3   45    1 1    
     4   46    1 1    
     5    3    2 1    
     6   47    2 1    
     7   48    2 1    
     8    4    3 1    
     9    5    3 1    
    10   49    3 1    
    11   81    4 1    
    12    6    5 1    
    13   50    5 1    
    14   51    5 1    
    15    7    6 1    
    16   52    6 1    
    17   53    6 1    
    18    8    7 1    
    19   54    7 1    
    20    9    8 1    
    21   55    8 1    
    22   56    8 1    
    23   10    9 1    
    24   57    9 1    
    25   58    9 1    
    26   11   10 1    
    27   12   11 ar   
    28   14   11 ar   
    29   13   12 ar   
    30   59   12 1    
    31   16   13 ar   
    32   60   13 1    
    33   15   14 ar   
    34   61   14 1    
    35   16   15 ar   
    36   62   15 1    
    37   17   16 1    
    38   18   17 1    
    39   19   17 2    
    40   21   18 1    
    41   20   19 1    
    42   63   19 1    
    43   21   20 ar   
    44   25   20 ar   
    45   22   21 ar   
    46   23   22 ar   
    47   24   23 ar   
    48   64   23 1    
    49   25   24 ar   
    50   26   25 1    
    51   27   26 1    
    52   65   26 1    
    53   28   27 1    
    54   66   27 1    
    55   67   27 1    
    56   29   28 1    
    57   68   28 1    
    58   69   28 1    
    59   30   29 ar   
    60   32   29 ar   
    61   31   30 ar   
    62   70   30 1    
    63   34   31 ar   
    64   71   31 1    
    65   33   32 ar   
    66   72   32 1    
    67   34   33 ar   
    68   73   33 1    
    69   35   34 1    
    70   36   35 am   
    71   74   35 1    
    72   37   36 2    
    73   38   36 am   
    74   39   38 1    
    75   75   38 1    
    76   40   39 ar   
    77   44   39 ar   
    78   41   40 ar   
    79   76   40 1    
    80   42   41 ar   
    81   77   41 1    
    82   43   42 ar   
    83   78   42 1    
    84   44   43 ar   
    85   79   43 1    
    86   80   44 1    
@<TRIPOS>SUBSTRUCTURE
     1 YPH501      1 GROUP   
@<TRIPOS>SET

