#    Name: 1uk1_FRQ_1_INTS_M
#    Modification time : Tue Mar 25 06:38:26 2014

@<TRIPOS>MOLECULE
1uk1_FRQ_1_INTS_M
   62     0    12     0     0
SMALL
NO_CHARGES


@<TRIPOS>ATOM
      1 CA          7.1990   -9.8170   34.1910 C.3       4 GLC5        0.0000 
      2 CA          6.5240   -8.0790   32.9930 C.3      12 GLL5        0.0000 
      3 CA          7.8740  -11.5550   35.3890 C.3       8 GLP5        0.0000 
      4 O           6.4565   -2.9445   35.8480 O.2       1 ALC1        0.0000 
      5 O           6.6400   -3.7060   34.7200 O.2       9 ALL1        0.0000 
      6 O           6.2730   -2.1830   36.9760 O.2       5 ALP1        0.0000 
      7 N           4.5360   -4.4045   36.6490 N.am      2 SEC2        0.0000 
      8 N           5.1070   -5.0400   35.5180 N.am     10 SEL2        0.0000 
      9 N           3.9650   -3.7690   37.7800 N.am      6 SEP2        0.0000 
     10 CA         10.4195   -4.7395   34.0010 C.3       4 GLC5        0.0000 
     11 CA          9.5310   -4.0410   32.7140 C.3      12 GLL5        0.0000 
     12 CA         11.3080   -5.4380   35.2880 C.3       8 GLP5        0.0000 
     13 CA          7.6075   -4.1645   30.6155 C.3       4 GLC5        0.0000 
     14 CA          9.3860   -3.4660   31.3230 C.3      12 GLL5        0.0000 
     15 CA          5.8290   -4.8630   29.9080 C.3       8 GLP5        0.0000 
     16 CA         10.6095   -1.4030   28.3330 C.3       4 GLC5        0.0000 
     17 CA          9.4010   -1.4750   29.8970 C.3      12 GLL5        0.0000 
     18 CA         11.8180   -1.3310   26.7690 C.3       8 GLP5        0.0000 
     19 OD1        10.5910    0.7760   29.7560 O.co2     3 ASC3        0.0000 
     20 OD1         9.0110   -0.0870   29.7140 O.co2    11 ASL3        0.0000 
     21 OD1        12.1710    1.6390   29.7980 O.co2     7 ASP3        0.0000 
     22 CA          9.1925    2.3145   26.2100 C.3       4 GLC5        0.0000 
     23 CA          8.9560    1.7710   28.1380 C.3      12 GLL5        0.0000 
     24 CA          9.4290    2.8580   24.2820 C.3       8 GLP5        0.0000 
     25 CA          7.7650   -1.7290   28.2135 C.3       4 GLC5        0.0000 
     26 CA          8.4970    0.3440   28.4150 C.3      12 GLL5        0.0000 
     27 CA          7.0330   -3.8020   28.0120 C.3       8 GLP5        0.0000 
     28 CA         10.3545    4.2970   30.6045 C.3       4 GLC5        0.0000 
     29 CA          8.4500    4.9790   30.1090 C.3      12 GLL5        0.0000 
     30 CA         12.2590    3.6150   31.1000 C.3       8 GLP5        0.0000 
     31 CA          6.8652   -6.0155   31.0583 C.3       4 GLC5        0.0000 
     32 CA          7.6140   -7.7970   32.1870 C.3      12 GLL5        0.0000 
     33 CA          6.3125   -9.4470   31.2680 C.3       4 GLC5        0.0000 
     34 CA          5.5560  -10.9560   29.9460 C.3       8 GLP5        0.0000 
     35 CA          6.2045   -5.6370   31.7763 C.3       4 GLC5        0.0000 
     36 CA          6.5890   -5.8690   33.8730 C.3      12 GLL5        0.0000 
     37 CA          3.8587   -7.1100   32.9818 C.3       4 GLC5        0.0000 
     38 CA          6.0230   -7.0990   33.8040 C.3      12 GLL5        0.0000 
     39 CA          2.2320   -7.0040   31.8070 C.3       8 GLP5        0.0000 
     40 CA          5.0278   -7.0545   36.0487 C.3       4 GLC5        0.0000 
     41 CA          4.9480   -7.3330   34.5090 C.3      12 GLL5        0.0000 
     42 CA          4.5700   -6.8930   37.9410 C.3       8 GLP5        0.0000 
     43 CA          8.1163   -2.7730   29.2957 C.3       4 GLC5        0.0000 
     44 CA          8.9980   -2.0130   31.2620 C.3      12 GLL5        0.0000 
     45 CA         10.3810    3.0150   30.4940 C.3       4 GLC5        0.0000 
     46 CA          8.4270    2.1540   30.5010 C.3      12 GLL5        0.0000 
     47 CA         10.3477    0.5367   27.6962 C.3       4 GLC5        0.0000 
     48 CA         11.9690    0.0160   27.1160 C.3       8 GLP5        0.0000 
     49 CA          9.2492    7.0948   29.0990 C.3       4 GLC5        0.0000 
     50 CA         10.2510    8.5530   28.1540 C.3       8 GLP5        0.0000 
     51 CA          8.8217    7.4200   28.2118 C.3       4 GLC5        0.0000 
     52 CA          7.4740    6.7300   28.8000 C.3      12 GLL5        0.0000 
     53 CA          7.9350    4.5732   26.1100 C.3       4 GLC5        0.0000 
     54 CA          7.3110    5.8440   27.7390 C.3      12 GLL5        0.0000 
     55 CA          8.3800    3.9680   24.4050 C.3       8 GLP5        0.0000 
     56 CA          8.8535    5.6588   26.3945 C.3       4 GLC5        0.0000 
     57 CA          7.6690    4.5130   27.8910 C.3      12 GLL5        0.0000 
     58 CA         10.2170    6.1390   24.9740 C.3       8 GLP5        0.0000 
     59 CA          5.4734    5.6415   27.7721 C.3       4 GLC5        0.0000 
     60 CA          3.4160    5.8830   27.4640 C.3       8 GLP5        0.0000 
     61 CA          4.6749   -8.8985   34.4609 C.3       4 GLC5        0.0000 
     62 CA          3.7390  -10.3360   34.9680 C.3       8 GLP5        0.0000 
@<TRIPOS>BOND
@<TRIPOS>SUBSTRUCTURE
     1 ALC1        4 GROUP        1 X    ALC  0     ROOT ALC X 1
     2 SEC2        7 GROUP        1 X    SEC  0     **** SEC X 2
     3 ASC3       19 GROUP        1 X    ASC  0     **** ASC X 3
     4 GLC5        1 GROUP        1 X    GLC  0     **** GLC X 6
     5 ALP1        6 GROUP        1 Y    ALP  0     ROOT ALP Y 8
     6 SEP2        9 GROUP        1 Y    SEP  0     **** SEP Y 9
     7 ASP3       21 GROUP        1 Y    ASP  0     **** ASP Y 10
     8 GLP5        3 GROUP        1 Y    GLP  0     **** GLP Y 13
     9 ALL1        5 GROUP        1 Z    ALL  0     ROOT ALL Z 15
    10 SEL2        8 GROUP        1 Z    SEL  0     **** SEL Z 16
    11 ASL3       20 GROUP        1 Z    ASL  0     **** ASL Z 17
    12 GLL5        2 GROUP        1 Z    GLL  0     **** GLL Z 20
@<TRIPOS>SET

