#    Name: 1uk1_FRQ_1_ligand
#    Modification time : Tue Mar 25 06:38:26 2014

@<TRIPOS>MOLECULE
1uk1_FRQ_1_ligand
   54    57     1     0     0
SMALL
NO_CHARGES


@<TRIPOS>ATOM
      1 C1          7.6140   -7.7970   32.1870 C.ar      1 FRQ501      0.0000 
      2 C2          8.1890   -6.5390   32.2300 C.ar      1 FRQ501      0.0000 
      3 C3          7.6850   -5.5770   33.0970 C.ar      1 FRQ501      0.0000 
      4 C4          6.5890   -5.8690   33.8730 C.ar      1 FRQ501      0.0000 
      5 C5          6.0230   -7.0990   33.8040 C.ar      1 FRQ501      0.0000 
      6 C6          6.5240   -8.0790   32.9930 C.ar      1 FRQ501      0.0000 
      7 N10         8.2480   -4.3570   33.2710 N.am      1 FRQ501      0.0000 
      8 C11         7.7040   -3.4420   34.0540 C.2       1 FRQ501      0.0000 
      9 N12         6.6400   -3.7060   34.7200 N.am      1 FRQ501      0.0000 
     10 C13         6.0480   -4.8680   34.7540 C.2       1 FRQ501      0.0000 
     11 O14         5.1070   -5.0400   35.5180 O.2       1 FRQ501      0.0000 
     12 O15         8.2020   -2.3610   34.1990 O.2       1 FRQ501      0.0000 
     13 C16         9.5310   -4.0410   32.7140 C.3       1 FRQ501      0.0000 
     14 C17         9.3860   -3.4660   31.3230 C.3       1 FRQ501      0.0000 
     15 C20         8.9980   -2.0130   31.2620 C.3       1 FRQ501      0.0000 
     16 C23         9.4010   -1.4750   29.8970 C.3       1 FRQ501      0.0000 
     17 N26         9.0110   -0.0870   29.7140 N.4       1 FRQ501      0.0000 
     18 C29         8.6410    0.7200   30.8850 C.3       1 FRQ501      0.0000 
     19 C30         8.4270    2.1540   30.5010 C.3       1 FRQ501      0.0000 
     20 C31         8.5790    2.6760   29.2750 C.2       1 FRQ501      0.0000 
     21 C32         8.9560    1.7710   28.1380 C.2       1 FRQ501      0.0000 
     22 C33         8.4970    0.3440   28.4150 C.3       1 FRQ501      0.0000 
     23 C40         8.2340    4.0760   29.0770 C.ar      1 FRQ501      0.0000 
     24 C42         8.4500    4.9790   30.1090 C.ar      1 FRQ501      0.0000 
     25 C43         8.0450    6.2940   29.9790 C.ar      1 FRQ501      0.0000 
     26 C44         7.4740    6.7300   28.8000 C.ar      1 FRQ501      0.0000 
     27 C45         7.3110    5.8440   27.7390 C.ar      1 FRQ501      0.0000 
     28 C46         7.6690    4.5130   27.8910 C.ar      1 FRQ501      0.0000 
     29 F53         4.9480   -7.3330   34.5090 F         1 FRQ501      0.0000 
     30 H           7.9935   -8.5180   31.5606 H         1 FRQ501      0.0000 
     31 H           8.9879   -6.3139   31.6225 H         1 FRQ501      0.0000 
     32 H           6.1024   -9.0160   32.9760 H         1 FRQ501      0.0000 
     33 H           6.1879   -2.9017   35.3069 H         1 FRQ501      0.0000 
     34 H          10.1699   -4.9358   32.6498 H         1 FRQ501      0.0000 
     35 H          10.0656   -3.3049   33.3348 H         1 FRQ501      0.0000 
     36 H           8.6327   -4.0659   30.7650 H         1 FRQ501      0.0000 
     37 H          10.3446   -3.6084   30.7757 H         1 FRQ501      0.0000 
     38 H           9.5167   -1.4598   32.0314 H         1 FRQ501      0.0000 
     39 H           7.9296   -1.9108   31.3851 H         1 FRQ501      0.0000 
     40 H           8.9384   -2.1165   29.1262 H         1 FRQ501      0.0000 
     41 H          10.4942   -1.5915   29.7925 H         1 FRQ501      0.0000 
     42 H          10.2232    0.4072   29.5688 H         1 FRQ501      0.0000 
     43 H           9.4313    0.6681   31.6466 H         1 FRQ501      0.0000 
     44 H           7.7193    0.3301   31.3386 H         1 FRQ501      0.0000 
     45 H           9.0567    2.7698   31.2916 H         1 FRQ501      0.0000 
     46 H           7.3572    2.4198   30.9319 H         1 FRQ501      0.0000 
     47 H           9.4003    2.0287   27.3779 H         1 FRQ501      0.0000 
     48 H           7.4067    0.3237   28.4009 H         1 FRQ501      0.0000 
     49 H           8.8683   -0.2988   27.6160 H         1 FRQ501      0.0000 
     50 H           8.9146    4.6648   30.9748 H         1 FRQ501      0.0000 
     51 H           8.1699    6.9510   30.7653 H         1 FRQ501      0.0000 
     52 H           7.1678    7.7073   28.7008 H         1 FRQ501      0.0000 
     53 H           6.9263    6.1775   26.8466 H         1 FRQ501      0.0000 
     54 H           7.5137    3.8481   27.1185 H         1 FRQ501      0.0000 
@<TRIPOS>BOND
     1    2    1 ar   
     2    6    1 ar   
     3   30    1 1    
     4    3    2 ar   
     5   31    2 1    
     6    4    3 ar   
     7    7    3 1    
     8    5    4 ar   
     9   10    4 1    
    10    6    5 ar   
    11   29    5 1    
    12   32    6 1    
    13    8    7 1    
    14   13    7 1    
    15    9    8 1    
    16   12    8 2    
    17   10    9 1    
    18   33    9 1    
    19   11   10 2    
    20   14   13 1    
    21   34   13 1    
    22   35   13 1    
    23   15   14 1    
    24   36   14 1    
    25   37   14 1    
    26   16   15 1    
    27   38   15 1    
    28   39   15 1    
    29   17   16 1    
    30   40   16 1    
    31   41   16 1    
    32   18   17 1    
    33   22   17 1    
    34   42   17 1    
    35   19   18 1    
    36   43   18 1    
    37   44   18 1    
    38   20   19 1    
    39   45   19 1    
    40   46   19 1    
    41   21   20 2    
    42   23   20 1    
    43   22   21 1    
    44   47   21 1    
    45   48   22 1    
    46   49   22 1    
    47   24   23 ar   
    48   28   23 ar   
    49   25   24 ar   
    50   50   24 1    
    51   26   25 ar   
    52   51   25 1    
    53   27   26 ar   
    54   52   26 1    
    55   28   27 ar   
    56   53   27 1    
    57   54   28 1    
@<TRIPOS>SUBSTRUCTURE
     1 FRQ501      1 GROUP   
@<TRIPOS>SET

