#    Name: 3omq_W23_1_INTS_M
#    Modification time : Tue Mar 25 04:52:24 2014

@<TRIPOS>MOLECULE
3omq_W23_1_INTS_M
   53     0     9     0     0
SMALL
NO_CHARGES


@<TRIPOS>ATOM
      1 CA         -0.5685   28.1120   -9.7105 C.3       3 GLC5        0.0000 
      2 CA         -1.0300   27.6730  -11.7800 C.3       9 GLL5        0.0000 
      3 CA         -0.1070   28.5510   -7.6410 C.3       6 GLP5        0.0000 
      4 CA         -2.3200   27.1265  -10.5115 C.3       3 GLC5        0.0000 
      5 CA         -3.6100   26.5800   -9.2430 C.3       6 GLP5        0.0000 
      6 CA          3.0355   29.4685  -13.8445 C.3       3 GLC5        0.0000 
      7 CA          1.6690   28.8180  -12.4070 C.3       9 GLL5        0.0000 
      8 CA          4.4020   30.1190  -15.2820 C.3       6 GLP5        0.0000 
      9 CA          0.5225   28.6365  -14.1905 C.3       3 GLC5        0.0000 
     10 CA         -0.6240   28.4550  -15.9740 C.3       6 GLP5        0.0000 
     11 CA         -0.5165   32.6620  -15.0105 C.3       3 GLC5        0.0000 
     12 CA         -0.5850   31.7800  -13.2410 C.3       9 GLL5        0.0000 
     13 CA         -0.4480   33.5440  -16.7800 C.3       6 GLP5        0.0000 
     14 CA         -0.8185   32.1995  -11.0895 C.3       3 GLC5        0.0000 
     15 CA         -1.0520   32.6190   -8.9380 C.3       6 GLP5        0.0000 
     16 CA          6.1150   26.5740  -11.6290 C.3       3 GLC5        0.0000 
     17 CA          4.4200   25.4750  -10.9090 C.3       9 GLL5        0.0000 
     18 CA          7.8100   27.6730  -12.3490 C.3       6 GLP5        0.0000 
     19 CA          3.9540   23.5330  -10.4435 C.3       3 GLC5        0.0000 
     20 CA          3.4880   21.5910   -9.9780 C.3       6 GLP5        0.0000 
     21 CA          5.8745   24.3240  -10.1835 C.3       3 GLC5        0.0000 
     22 CA          7.3290   23.1730   -9.4580 C.3       6 GLP5        0.0000 
     23 CA          5.9090   27.2875  -12.5095 C.3       3 GLC5        0.0000 
     24 CA          4.0080   26.9020  -12.6700 C.3       9 GLL5        0.0000 
     25 CA          4.1615   27.3340  -14.3555 C.3       3 GLC5        0.0000 
     26 CA          4.3150   27.7660  -16.0410 C.3       6 GLP5        0.0000 
     27 CA          1.6430   23.6885  -11.6975 C.3       3 GLC5        0.0000 
     28 CA          2.7420   25.1620  -12.3340 C.3       9 GLL5        0.0000 
     29 CA          0.5440   22.2150  -11.0610 C.3       6 GLP5        0.0000 
     30 CA          2.2145   24.5005  -14.2910 C.3       3 GLC5        0.0000 
     31 CA          1.6870   23.8390  -16.2480 C.3       6 GLP5        0.0000 
     32 N          -4.0100   32.1440  -14.5685 N.am      2 SEC2        0.0000 
     33 N          -2.9790   31.9730  -13.1720 N.am      8 SEL2        0.0000 
     34 N          -5.0410   32.3150  -15.9650 N.am      5 SEP2        0.0000 
     35 N          -4.3900   32.4875  -12.8320 N.am      2 SEC2        0.0000 
     36 N          -5.8010   33.0020  -12.4920 N.am      5 SEP2        0.0000 
     37 O          -2.6170   33.1965  -13.2275 O.2       1 ALC1        0.0000 
     38 O          -2.9790   31.9730  -13.1720 O.2       7 ALL1        0.0000 
     39 O          -2.2550   34.4200  -13.2830 O.2       4 ALP1        0.0000 
     40 CA         -2.5680   31.0842  -11.0240 C.3       3 GLC5        0.0000 
     41 CA         -1.9600   29.9190  -12.5000 C.3       9 GLL5        0.0000 
     42 CA         -3.2330   31.5890   -9.3240 C.3       6 GLP5        0.0000 
     43 CA         -2.4789   27.8117  -13.4031 C.3       3 GLC5        0.0000 
     44 CA         -3.7420   27.0200  -14.7210 C.3       6 GLP5        0.0000 
     45 CA         -0.5085   27.8450  -13.9432 C.3       3 GLC5        0.0000 
     46 CA         -1.4100   25.5150  -12.4922 C.3       3 GLC5        0.0000 
     47 CA         -2.4270   23.7950  -13.0720 C.3       6 GLP5        0.0000 
     48 CA          1.0145   32.5343  -11.9497 C.3       3 GLC5        0.0000 
     49 CA          0.5410   30.9950  -13.0320 C.3       9 GLL5        0.0000 
     50 CA          2.0510   33.6810  -10.7630 C.3       6 GLP5        0.0000 
     51 CA          4.0949   25.0004  -13.2813 C.3       3 GLC5        0.0000 
     52 CA          3.5630   26.0310  -11.7960 C.3       9 GLL5        0.0000 
     53 CA          4.8190   24.2560  -14.3900 C.3       6 GLP5        0.0000 
@<TRIPOS>BOND
@<TRIPOS>SUBSTRUCTURE
     1 ALC1       37 GROUP        1 X    ALC  0     ROOT ALC X 1
     2 SEC2       32 GROUP        1 X    SEC  0     **** SEC X 2
     3 GLC5        1 GROUP        1 X    GLC  0     **** GLC X 6
     4 ALP1       39 GROUP        1 Y    ALP  0     ROOT ALP Y 8
     5 SEP2       34 GROUP        1 Y    SEP  0     **** SEP Y 9
     6 GLP5        3 GROUP        1 Y    GLP  0     **** GLP Y 13
     7 ALL1       38 GROUP        1 Z    ALL  0     ROOT ALL Z 15
     8 SEL2       33 GROUP        1 Z    SEL  0     **** SEL Z 16
     9 GLL5        2 GROUP        1 Z    GLL  0     **** GLL Z 20
@<TRIPOS>SET

