#    Name: 3omq_W23_1_ligand
#    Modification time : Tue Mar 25 04:52:24 2014

@<TRIPOS>MOLECULE
3omq_W23_1_ligand
   28    29     1     0     0
SMALL
NO_CHARGES


@<TRIPOS>ATOM
      1 CAA        -0.8430   29.1490  -12.2810 C.ar      1 W231        0.0000 
      2 CAB         0.4050   29.6850  -12.5590 C.ar      1 W231        0.0000 
      3 CAC        -1.9600   29.9190  -12.5000 C.ar      1 W231        0.0000 
      4 CAD        -1.0300   27.6730  -11.7800 C.3       1 W231        0.0000 
      5 CAE         0.5410   30.9950  -13.0320 C.ar      1 W231        0.0000 
      6 CAF         1.6690   28.8180  -12.4070 C.3       1 W231        0.0000 
      7 CAG        -0.5850   31.7800  -13.2410 C.ar      1 W231        0.0000 
      8 CAH        -1.8460   31.2400  -12.9480 C.ar      1 W231        0.0000 
      9 CAI         0.2440   26.7970  -12.0450 C.3       1 W231        0.0000 
     10 CAJ         3.5630   26.0310  -11.7960 C.3       1 W231        0.0000 
     11 FAK         4.4200   25.4750  -10.9090 F         1 W231        0.0000 
     12 FAL         4.0080   26.9020  -12.6700 F         1 W231        0.0000 
     13 FAM         2.7420   25.1620  -12.3340 F         1 W231        0.0000 
     14 NAN         1.3130   27.6960  -11.5370 N.pl3     1 W231        0.0000 
     15 OAO        -2.9790   31.9730  -13.1720 O.3       1 W231        0.0000 
     16 OAP         3.3600   27.9470   -9.8840 O.2       1 W231        0.0000 
     17 OAQ         2.0410   25.8400   -9.8480 O.2       1 W231        0.0000 
     18 SAR         2.5790   26.9410  -10.6800 S.o2      1 W231        0.0000 
     19 H          -2.9043   29.5265  -12.3345 H         1 W231        0.0000 
     20 H          -1.8733   27.2315  -12.3002 H         1 W231        0.0000 
     21 H          -1.2292   27.6883  -10.7138 H         1 W231        0.0000 
     22 H           1.4778   31.3721  -13.2235 H         1 W231        0.0000 
     23 H           2.4452   29.4253  -11.9683 H         1 W231        0.0000 
     24 H           1.9657   28.4776  -13.3867 H         1 W231        0.0000 
     25 H          -0.5040   32.7288  -13.5993 H         1 W231        0.0000 
     26 H           0.3274   26.6425  -13.0802 H         1 W231        0.0000 
     27 H           0.1674   25.9224  -11.4691 H         1 W231        0.0000 
     28 H          -2.6692   32.7818  -13.6719 H         1 W231        0.0000 
@<TRIPOS>BOND
     1    2    1 ar   
     2    3    1 ar   
     3    4    1 1    
     4    5    2 ar   
     5    6    2 1    
     6    8    3 ar   
     7   19    3 1    
     8    9    4 1    
     9   20    4 1    
    10   21    4 1    
    11    7    5 ar   
    12   22    5 1    
    13   14    6 1    
    14   23    6 1    
    15   24    6 1    
    16    8    7 ar   
    17   25    7 1    
    18   15    8 1    
    19   14    9 1    
    20   26    9 1    
    21   27    9 1    
    22   11   10 1    
    23   12   10 1    
    24   13   10 1    
    25   18   10 1    
    26   18   14 1    
    27   28   15 1    
    28   18   16 2    
    29   18   17 2    
@<TRIPOS>SUBSTRUCTURE
     1 W231        1 GROUP   
@<TRIPOS>SET

