#    Name: 2c29_DQH_2_INTS_M
#    Modification time : Mon Mar 24 22:17:39 2014

@<TRIPOS>MOLECULE
2c29_DQH_2_INTS_M
   68     0     9     0     0
SMALL
NO_CHARGES


@<TRIPOS>ATOM
      1 CA         45.9050   34.5355   33.9905 C.3       3 GLC5        0.0000 
      2 CA         44.6770   33.6190   32.6950 C.3       9 GLL5        0.0000 
      3 CA         47.1330   35.4520   35.2860 C.3       6 GLP5        0.0000 
      4 CA         43.5260   32.1435   33.1565 C.3       3 GLC5        0.0000 
      5 CA         42.3750   30.6680   33.6180 C.3       6 GLP5        0.0000 
      6 CA         43.4045   33.7225   28.2680 C.3       3 GLC5        0.0000 
      7 CA         44.6680   33.2410   29.9420 C.3       9 GLL5        0.0000 
      8 CA         42.1410   34.2040   26.5940 C.3       6 GLP5        0.0000 
      9 CA         43.1540   35.4240   29.2945 C.3       3 GLC5        0.0000 
     10 CA         43.6010   33.9000   30.5460 C.3       9 GLL5        0.0000 
     11 CA         42.7070   36.9480   28.0430 C.3       6 GLP5        0.0000 
     12 CA         42.5635   32.9515   33.0445 C.3       3 GLC5        0.0000 
     13 CA         43.6070   34.0900   31.9200 C.3       9 GLL5        0.0000 
     14 CA         41.5200   31.8130   34.1690 C.3       6 GLP5        0.0000 
     15 CA         46.2285   29.4295   27.6945 C.3       3 GLC5        0.0000 
     16 CA         46.4120   31.4030   28.6990 C.3       9 GLL5        0.0000 
     17 CA         46.0450   27.4560   26.6900 C.3       6 GLP5        0.0000 
     18 CA         46.8110   30.4580   29.9510 C.3       3 GLC5        0.0000 
     19 CA         47.2100   29.5130   31.2030 C.3       6 GLP5        0.0000 
     20 CA         46.6835   34.3625   27.7685 C.3       3 GLC5        0.0000 
     21 CA         45.7770   32.5030   27.8800 C.3       9 GLL5        0.0000 
     22 CA         47.5900   36.2220   27.6570 C.3       6 GLP5        0.0000 
     23 CA         45.3325   29.2980   26.3455 C.3       3 GLC5        0.0000 
     24 CA         44.6200   31.1400   26.0010 C.3       9 GLL5        0.0000 
     25 CA         43.2070   30.0970   27.1845 C.3       3 GLC5        0.0000 
     26 CA         41.7940   29.0540   28.3680 C.3       6 GLP5        0.0000 
     27 CA         44.8460   28.9185   25.0725 C.3       3 GLC5        0.0000 
     28 CA         44.4720   30.9740   24.6020 C.3       9 GLL5        0.0000 
     29 CA         45.2200   26.8630   25.5430 C.3       6 GLP5        0.0000 
     30 CA         48.2145   33.5840   25.4910 C.3       3 GLC5        0.0000 
     31 CA         46.1500   32.9270   25.5650 C.3       9 GLL5        0.0000 
     32 CA         50.2790   34.2410   25.4170 C.3       6 GLP5        0.0000 
     33 N          49.0875   32.2505   29.5360 N.am      2 SEC2        0.0000 
     34 N          47.9860   32.1240   30.4160 N.am      8 SEL2        0.0000 
     35 N          50.1890   32.3770   28.6560 N.am      5 SEP2        0.0000 
     36 N          48.7495   32.5750   31.3865 N.am      2 SEC2        0.0000 
     37 N          49.5130   33.0260   32.3570 N.am      5 SEP2        0.0000 
     38 O          47.3930   33.2275   22.3980 O.2       1 ALC1        0.0000 
     39 O          46.7720   33.6170   23.4400 O.2       7 ALL1        0.0000 
     40 O          48.0140   32.8380   21.3560 O.2       4 ALP1        0.0000 
     41 N          45.7360   32.0930   21.0930 N.am      2 SEC2        0.0000 
     42 N          45.0940   31.6450   22.3560 N.am      8 SEL2        0.0000 
     43 N          46.3780   32.5410   19.8300 N.am      5 SEP2        0.0000 
     44 O          44.6860   30.4720   22.1290 O.2       1 ALC1        0.0000 
     45 O          45.0940   31.6450   22.3560 O.2       7 ALL1        0.0000 
     46 O          44.2780   29.2990   21.9020 O.2       4 ALP1        0.0000 
     47 N          48.8080   30.4600   27.2780 N.am      2 SEC2        0.0000 
     48 N          47.5110   30.7040   28.0590 N.am      8 SEL2        0.0000 
     49 N          50.1050   30.2160   26.4970 N.am      5 SEP2        0.0000 
     50 O          48.8500   31.5405   28.3575 O.2       1 ALC1        0.0000 
     51 O          47.5110   30.7040   28.0590 O.2       7 ALL1        0.0000 
     52 O          50.1890   32.3770   28.6560 O.2       4 ALP1        0.0000 
     53 O          41.4410   34.9865   31.8365 O.2       1 ALC1        0.0000 
     54 O          42.5640   34.7380   32.4760 O.2       7 ALL1        0.0000 
     55 O          40.3180   35.2350   31.1970 O.2       4 ALP1        0.0000 
     56 CA         43.5262   32.0343   30.1355 C.3       3 GLC5        0.0000 
     57 CA         41.8580   31.0640   29.9420 C.3       6 GLP5        0.0000 
     58 CA         42.7310   32.5295   30.5875 C.3       3 GLC5        0.0000 
     59 CA         41.5425   34.0725   30.9820 C.3       3 GLC5        0.0000 
     60 CA         39.4810   34.1500   30.7310 C.3       6 GLP5        0.0000 
     61 CA         46.6977   30.8695   25.5222 C.3       3 GLC5        0.0000 
     62 CA         45.4710   32.1380   26.4640 C.3       9 GLL5        0.0000 
     63 CA         48.3500   30.1000   24.8120 C.3       6 GLP5        0.0000 
     64 CA         43.3435   32.6305   25.9477 C.3       3 GLC5        0.0000 
     65 CA         46.5938   30.7380   24.4827 C.3       3 GLC5        0.0000 
     66 CA         47.2195   31.4740   24.8488 C.3       3 GLC5        0.0000 
     67 CA         46.0280   32.7690   24.2060 C.3       9 GLL5        0.0000 
     68 CA         44.0140   33.4139   26.4813 C.3       3 GLC5        0.0000 
@<TRIPOS>BOND
@<TRIPOS>SUBSTRUCTURE
     1 ALC1       38 GROUP        1 X    ALC  0     ROOT ALC X 1
     2 SEC2       33 GROUP        1 X    SEC  0     **** SEC X 2
     3 GLC5        1 GROUP        1 X    GLC  0     **** GLC X 6
     4 ALP1       40 GROUP        1 Y    ALP  0     ROOT ALP Y 8
     5 SEP2       35 GROUP        1 Y    SEP  0     **** SEP Y 9
     6 GLP5        3 GROUP        1 Y    GLP  0     **** GLP Y 13
     7 ALL1       39 GROUP        1 Z    ALL  0     ROOT ALL Z 15
     8 SEL2       34 GROUP        1 Z    SEL  0     **** SEL Z 16
     9 GLL5        2 GROUP        1 Z    GLL  0     **** GLL Z 20
@<TRIPOS>SET

