#    Name: 2c29_DQH_2_ligand
#    Modification time : Mon Mar 24 22:17:39 2014

@<TRIPOS>MOLECULE
2c29_DQH_2_ligand
   33    35     1     0     0
SMALL
NO_CHARGES


@<TRIPOS>ATOM
      1 C1         44.6770   33.6190   32.6950 C.ar      1 DQH1332     0.0000 
      2 C2         45.7460   32.9610   32.1000 C.ar      1 DQH1332     0.0000 
      3 C3         45.7210   32.7680   30.7160 C.ar      1 DQH1332     0.0000 
      4 C4         44.6680   33.2410   29.9420 C.ar      1 DQH1332     0.0000 
      5 C5         43.6010   33.9000   30.5460 C.ar      1 DQH1332     0.0000 
      6 C6         43.6070   34.0900   31.9200 C.ar      1 DQH1332     0.0000 
      7 C9         46.8280   32.0900   29.9840 C.2       1 DQH1332     0.0000 
      8 C10        46.4120   31.4030   28.6990 C.3       1 DQH1332     0.0000 
      9 C11        45.7770   32.5030   27.8800 C.3       1 DQH1332     0.0000 
     10 C14        45.4710   32.1380   26.4640 C.ar      1 DQH1332     0.0000 
     11 C15        44.6200   31.1400   26.0010 C.ar      1 DQH1332     0.0000 
     12 C16        44.4720   30.9740   24.6020 C.ar      1 DQH1332     0.0000 
     13 C17        45.2030   31.7780   23.7050 C.ar      1 DQH1332     0.0000 
     14 C18        46.0280   32.7690   24.2060 C.ar      1 DQH1332     0.0000 
     15 C19        46.1500   32.9270   25.5650 C.ar      1 DQH1332     0.0000 
     16 O12        44.6490   33.0400   28.5640 O.3       1 DQH1332     0.0000 
     17 O13        47.9860   32.1240   30.4160 O.2       1 DQH1332     0.0000 
     18 O23        46.7720   33.6170   23.4400 O.3       1 DQH1332     0.0000 
     19 O24        45.0940   31.6450   22.3560 O.3       1 DQH1332     0.0000 
     20 O27        47.5110   30.7040   28.0590 O.3       1 DQH1332     0.0000 
     21 O29        42.5640   34.7380   32.4760 O.3       1 DQH1332     0.0000 
     22 O30        46.7870   32.4930   32.8670 O.co2     1 DQH1332     0.0000 
     23 H          44.6644   33.7655   33.7154 H         1 DQH1332     0.0000 
     24 H          42.8189   34.2410   29.9786 H         1 DQH1332     0.0000 
     25 H          45.6068   30.7059   28.9745 H         1 DQH1332     0.0000 
     26 H          46.5612   33.3289   27.8326 H         1 DQH1332     0.0000 
     27 H          44.1124   30.5395   26.6400 H         1 DQH1332     0.0000 
     28 H          43.8277   30.2630   24.2429 H         1 DQH1332     0.0000 
     29 H          46.7858   33.6787   25.9324 H         1 DQH1332     0.0000 
     30 H          47.1068   33.0556   22.6832 H         1 DQH1332     0.0000 
     31 H          45.2316   30.6702   22.1802 H         1 DQH1332     0.0000 
     32 H          48.3148   31.2738   28.2303 H         1 DQH1332     0.0000 
     33 H          41.8339   34.6856   31.7946 H         1 DQH1332     0.0000 
@<TRIPOS>BOND
     1    2    1 ar   
     2    6    1 ar   
     3   23    1 1    
     4    3    2 ar   
     5   22    2 ar   
     6    4    3 ar   
     7    7    3 1    
     8    5    4 ar   
     9   16    4 1    
    10    6    5 ar   
    11   24    5 1    
    12   21    6 1    
    13    8    7 1    
    14   17    7 2    
    15    9    8 1    
    16   20    8 1    
    17   25    8 1    
    18   10    9 1    
    19   16    9 1    
    20   26    9 1    
    21   11   10 ar   
    22   15   10 ar   
    23   12   11 ar   
    24   27   11 1    
    25   13   12 ar   
    26   28   12 1    
    27   14   13 ar   
    28   19   13 1    
    29   15   14 ar   
    30   18   14 1    
    31   29   15 1    
    32   30   18 1    
    33   31   19 1    
    34   32   20 1    
    35   33   21 1    
@<TRIPOS>SUBSTRUCTURE
     1 DQH1332     1 GROUP   
@<TRIPOS>SET

