#    Name: 2D33_2_CAVITY_N1_ALL.mol2
#    Modification time : Tue Mar 11 08:08:14 2014

@<TRIPOS>MOLECULE
2D33_2_CAVITY_N1_ALL.mol2
  102     0     6     0     0
SMALL
NO_CHARGES


@<TRIPOS>ATOM
      1 CA         19.9482   83.3548  -30.4853 C.3       5 GLY6        0.0000 
      2 CA         20.1027   83.4706  -32.5978 C.3       5 GLY6        0.0000 
      3 OD1        19.2164   82.7337  -31.6380 O.3       3 ASP3        0.0000 
      4 OD1        18.3301   81.9967  -30.6781 O.3       3 ASP3        0.0000 
      5 OG         17.4437   81.2598  -29.7182 O.2       1 SER1        0.0000 
      6 CA         20.2572   83.5864  -34.7103 C.3       5 GLY6        0.0000 
      7 DU         19.3709   82.8495  -33.7505 H         6 CUB7        0.0000 
      8 OD1        18.4846   82.1125  -32.7906 O.3       3 ASP3        0.0000 
      9 OD1        17.5982   81.3756  -31.8308 O.3       3 ASP3        0.0000 
     10 OG         16.7119   80.6386  -30.8709 O.2       1 SER1        0.0000 
     11 DU         18.6391   82.2283  -34.9031 H         6 CUB7        0.0000 
     12 DU         17.7527   81.4914  -33.9433 H         6 CUB7        0.0000 
     13 DU         16.8664   80.7545  -32.9834 H         6 CUB7        0.0000 
     14 N          18.9845   84.5042  -30.4928 N.2       2 ALA2        0.0000 
     15 OD1        21.0305   76.3885  -37.1785 O.3       3 ASP3        0.0000 
     16 OD1        20.1442   75.6516  -36.2187 O.3       3 ASP3        0.0000 
     17 OD1        19.2578   74.9146  -35.2588 O.3       3 ASP3        0.0000 
     18 O          20.2987   75.7674  -38.3312 O.2       2 ALA2        0.0000 
     19 NZ         19.4123   75.0304  -37.3713 N.2       4 LYS4        0.0000 
     20 O          18.6031   76.2956  -39.4913 O.2       2 ALA2        0.0000 
     21 N          17.7167   75.5587  -38.5315 N.2       2 ALA2        0.0000 
     22 CA         23.2260   78.2519  -33.7205 C.3       5 GLY6        0.0000 
     23 O          22.3396   77.5150  -32.7607 O.2       2 ALA2        0.0000 
     24 O          22.4941   77.6308  -34.8732 O.2       2 ALA2        0.0000 
     25 NZ         21.6078   76.8938  -33.9133 N.2       4 LYS4        0.0000 
     26 OD1        20.7215   76.1569  -32.9535 O.3       3 ASP3        0.0000 
     27 OD1        21.7623   77.0096  -36.0259 O.3       3 ASP3        0.0000 
     28 OD1        20.8760   76.2727  -35.0660 O.3       3 ASP3        0.0000 
     29 OD1        19.9896   75.5357  -34.1061 O.3       3 ASP3        0.0000 
     30 N          22.9166   81.9088  -33.5427 N.2       2 ALA2        0.0000 
     31 O          21.2984   80.5507  -33.7355 O.2       2 ALA2        0.0000 
     32 OD1        20.4121   79.8137  -32.7756 O.3       3 ASP3        0.0000 
     33 OD1        18.6394   78.3399  -30.8559 O.3       3 ASP3        0.0000 
     34 NZ         17.7531   77.6029  -29.8961 N.2       4 LYS4        0.0000 
     35 O          20.5666   79.9296  -34.8882 O.2       2 ALA2        0.0000 
     36 DU         19.6803   79.1926  -33.9283 H         6 CUB7        0.0000 
     37 OD1        18.7939   78.4557  -32.9685 O.3       3 ASP3        0.0000 
     38 OD1        17.9076   77.7187  -32.0086 O.3       3 ASP3        0.0000 
     39 NZ         17.0213   76.9818  -31.0487 N.2       4 LYS4        0.0000 
     40 O          20.7211   80.0454  -37.0007 O.2       2 ALA2        0.0000 
     41 O          19.8348   79.3084  -36.0408 O.2       2 ALA2        0.0000 
     42 DU         18.9484   78.5715  -35.0810 H         6 CUB7        0.0000 
     43 OD1        18.0621   77.8345  -34.1211 O.3       3 ASP3        0.0000 
     44 CA         19.9893   79.4242  -38.1533 C.3       5 GLY6        0.0000 
     45 DU         19.1030   78.6873  -37.1935 H         6 CUB7        0.0000 
     46 DU         18.2166   77.9503  -36.2336 H         6 CUB7        0.0000 
     47 OD1        17.3303   77.2134  -35.2738 O.3       3 ASP3        0.0000 
     48 CA         19.2575   78.8031  -39.3060 C.3       5 GLY6        0.0000 
     49 CA         18.3711   78.0661  -38.3461 C.3       5 GLY6        0.0000 
     50 DU         17.4848   77.3292  -37.3863 H         6 CUB7        0.0000 
     51 OD1        16.5985   76.5923  -36.4264 O.3       3 ASP3        0.0000 
     52 CA         18.5256   78.1819  -40.4587 C.3       5 GLY6        0.0000 
     53 CA         17.6393   77.4450  -39.4988 C.3       5 GLY6        0.0000 
     54 OG         16.7530   76.7081  -38.5389 O.2       1 SER1        0.0000 
     55 CA         15.8666   75.9711  -37.5791 C.3       5 GLY6        0.0000 
     56 O          15.6707   83.6744  -31.8457 O.2       2 ALA2        0.0000 
     57 CA         21.0665   82.3212  -32.5903 C.3       5 GLY6        0.0000 
     58 O          21.2210   82.4370  -34.7028 O.2       2 ALA2        0.0000 
     59 DU         20.3347   81.7001  -33.7430 H         6 CUB7        0.0000 
     60 OD1        19.4483   80.9631  -32.7831 O.3       3 ASP3        0.0000 
     61 OD1        18.5620   80.2262  -31.8233 O.3       3 ASP3        0.0000 
     62 OD1        17.6757   79.4893  -30.8634 O.3       3 ASP3        0.0000 
     63 OG         16.7893   78.7523  -29.9036 O.2       1 SER1        0.0000 
     64 O          20.4892   81.8159  -35.8555 O.2       2 ALA2        0.0000 
     65 DU         19.6028   81.0789  -34.8956 H         6 CUB7        0.0000 
     66 DU         18.7165   80.3420  -33.9358 H         6 CUB7        0.0000 
     67 DU         17.8302   79.6051  -32.9759 H         6 CUB7        0.0000 
     68 DU         16.9438   78.8681  -32.0161 H         6 CUB7        0.0000 
     69 DU         16.0575   78.1312  -31.0562 H         6 CUB7        0.0000 
     70 DU         18.8710   80.4578  -36.0483 H         6 CUB7        0.0000 
     71 DU         17.0983   78.9839  -34.1286 H         6 CUB7        0.0000 
     72 OD1        16.2120   78.2470  -33.1687 O.3       3 ASP3        0.0000 
     73 DU         18.1392   79.8367  -37.2010 H         6 CUB7        0.0000 
     74 DU         17.2529   79.0997  -36.2411 H         6 CUB7        0.0000 
     75 OD1        15.4802   77.6258  -34.3214 O.3       3 ASP3        0.0000 
     76 CA         17.4074   79.2155  -38.3536 C.3       5 GLY6        0.0000 
     77 DU         16.5210   78.4786  -37.3938 H         6 CUB7        0.0000 
     78 CA         15.6347   77.7416  -36.4339 C.3       5 GLY6        0.0000 
     79 CA         16.6755   78.5944  -39.5063 C.3       5 GLY6        0.0000 
     80 OG         15.7892   77.8575  -38.5464 O.2       1 SER1        0.0000 
     81 OG         15.9437   77.9733  -40.6589 O.2       1 SER1        0.0000 
     82 CA         18.2526   83.8831  -31.6454 C.3       5 GLY6        0.0000 
     83 N          17.3663   83.1461  -30.6856 N.2       2 ALA2        0.0000 
     84 OG         19.2935   84.7358  -34.7178 O.2       1 SER1        0.0000 
     85 OG         18.4071   83.9989  -33.7580 O.2       1 SER1        0.0000 
     86 OG         15.7481   81.7880  -30.8784 O.2       1 SER1        0.0000 
     87 O          22.2622   79.4013  -33.7280 O.2       2 ALA2        0.0000 
     88 OD1        21.3759   78.6644  -32.7682 O.3       3 ASP3        0.0000 
     89 OD1        20.4895   77.9274  -31.8083 O.3       3 ASP3        0.0000 
     90 O          21.5304   78.7802  -34.8807 O.2       2 ALA2        0.0000 
     91 O          20.6440   78.0432  -33.9208 O.2       2 ALA2        0.0000 
     92 OD1        19.7577   77.3063  -32.9610 O.3       3 ASP3        0.0000 
     93 O          20.7985   78.1590  -36.0333 O.2       2 ALA2        0.0000 
     94 OD1        19.9122   77.4221  -35.0735 O.3       3 ASP3        0.0000 
     95 OD1        19.0259   76.6851  -34.1136 O.3       3 ASP3        0.0000 
     96 O          20.9531   78.2748  -38.1459 O.2       2 ALA2        0.0000 
     97 DU         20.0667   77.5379  -37.1860 H         6 CUB7        0.0000 
     98 OD1        19.1804   76.8009  -36.2261 O.3       3 ASP3        0.0000 
     99 O          20.2212   77.6537  -39.2985 O.2       2 ALA2        0.0000 
    100 O          19.3349   76.9167  -38.3387 O.2       2 ALA2        0.0000 
    101 DU         18.4486   76.1798  -37.3788 H         6 CUB7        0.0000 
    102 OD1        17.5622   75.4429  -36.4189 O.3       3 ASP3        0.0000 
@<TRIPOS>BOND
@<TRIPOS>SUBSTRUCTURE
     1 SER1        5 GROUP   
     2 ALA2       14 GROUP   
     3 ASP3        3 GROUP   
     4 LYS4       19 GROUP   
     5 GLY6        1 GROUP   
     6 CUB7        7 GROUP   
@<TRIPOS>SET

