#    Name: 2d33_ADP_2_INTS_M
#    Modification time : Tue Mar 25 04:34:49 2014

@<TRIPOS>MOLECULE
2d33_ADP_2_INTS_M
   64     0    15     0     0
SMALL
NO_CHARGES


@<TRIPOS>ATOM
      1 Zn         17.7410   75.8290  -33.4625 Zn        4 ZIC7        0.0000 
      2 Zn         18.2630   76.6880  -33.2010 Zn       14 ZIL7        0.0000 
      3 Zn         17.2190   74.9700  -33.7240 Zn        9 ZIP7        0.0000 
      4 NZ         19.8775   79.4490  -31.0655 N.4       3 LYC4        0.0000 
      5 NZ         19.2510   78.7550  -32.0930 N.4      13 LYL4        0.0000 
      6 NZ         20.5040   80.1430  -30.0380 N.4       8 LYP4        0.0000 
      7 NZ         19.5785   78.4095  -30.3855 N.4       3 LYC4        0.0000 
      8 NZ         18.6530   76.6760  -30.7330 N.4      13 LYL4        0.0000 
      9 Zn         19.0975   75.6995  -30.7145 Zn        4 ZIC7        0.0000 
     10 Zn         18.6530   76.6760  -30.7330 Zn       14 ZIL7        0.0000 
     11 Zn         19.5420   74.7230  -30.6960 Zn        9 ZIP7        0.0000 
     12 Zn         16.5360   75.4730  -33.2210 Zn        4 ZIC7        0.0000 
     13 Zn         15.8530   75.9760  -32.7180 Zn       14 ZIL7        0.0000 
     14 CA         14.7615   75.3730  -29.6240 C.3       5 GLC5        0.0000 
     15 CA         13.9050   77.2260  -28.7230 C.3      15 GLL5        0.0000 
     16 CA         15.6180   73.5200  -30.5250 C.3      10 GLP5        0.0000 
     17 CA         14.5235   76.6380  -26.7705 C.3       5 GLC5        0.0000 
     18 CA         15.1420   76.0500  -24.8180 C.3      10 GLP5        0.0000 
     19 O          10.8740   75.5455  -28.8140 O.2       1 ALC1        0.0000 
     20 O          12.3250   75.5380  -28.4260 O.2      11 ALL1        0.0000 
     21 O           9.4230   75.5530  -29.2020 O.2       6 ALP1        0.0000 
     22 CA          9.8665   78.0400  -26.8250 C.3       5 GLC5        0.0000 
     23 CA         11.7400   77.8620  -27.9950 C.3      15 GLL5        0.0000 
     24 CA          7.9930   78.2180  -25.6550 C.3      10 GLP5        0.0000 
     25 O           9.9605   76.4715  -28.3400 O.2       1 ALC1        0.0000 
     26 O          10.4980   77.3900  -27.4780 O.2      11 ALL1        0.0000 
     27 CA         13.9365   77.0300  -25.8450 C.3       5 GLC5        0.0000 
     28 CA         12.7310   78.0100  -26.8720 C.3      15 GLL5        0.0000 
     29 CA         14.5480   79.2505  -26.5415 C.3       5 GLC5        0.0000 
     30 CA         16.3650   80.4910  -26.2110 C.3      10 GLP5        0.0000 
     31 CA         12.9860   81.0815  -21.0165 C.3       5 GLC5        0.0000 
     32 CA         12.4050   81.1080  -23.0290 C.3      15 GLL5        0.0000 
     33 CA         13.5670   81.0550  -19.0040 C.3      10 GLP5        0.0000 
     34 O          12.2530   81.6275  -21.0925 O.2       1 ALC1        0.0000 
     35 O          12.2480   82.3650  -22.6400 O.2      11 ALL1        0.0000 
     36 O          12.2580   80.8900  -19.5450 O.2       6 ALP1        0.0000 
     37 O          12.3800   83.9065  -23.2555 O.2       1 ALC1        0.0000 
     38 O          12.5120   85.4480  -23.8710 O.2       6 ALP1        0.0000 
     39 N          12.4165   80.5095  -20.8325 N.am      2 SEC2        0.0000 
     40 N          12.5750   80.1290  -22.1200 N.am     12 SEL2        0.0000 
     41 N          12.2580   80.8900  -19.5450 N.am      7 SEP2        0.0000 
     42 CA         10.9980   79.1090  -21.2790 C.3       5 GLC5        0.0000 
     43 CA         12.7530   78.8450  -22.4870 C.3      15 GLL5        0.0000 
     44 CA          9.2430   79.3730  -20.0710 C.3      10 GLP5        0.0000 
     45 CA         11.7085   77.0885  -22.1160 C.3       5 GLC5        0.0000 
     46 CA         10.6640   75.3320  -21.7450 C.3      10 GLP5        0.0000 
     47 CA         10.8550   79.2190  -23.0750 C.3       5 GLC5        0.0000 
     48 CA          8.9570   79.5930  -23.6630 C.3      10 GLP5        0.0000 
     49 CA         13.9475   77.4475  -23.6525 C.3       5 GLC5        0.0000 
     50 CA         13.7495   77.7435  -21.3045 C.3       5 GLC5        0.0000 
     51 CA         14.7460   76.6420  -20.1220 C.3      10 GLP5        0.0000 
     52 CA         13.1600   79.9500  -20.7455 C.3       5 GLC5        0.0000 
     53 CA         14.2900   79.8875  -22.2240 C.3       5 GLC5        0.0000 
     54 CA         15.8270   80.9300  -21.9610 C.3      10 GLP5        0.0000 
     55 CA         13.8715   77.7010  -24.7990 C.3       5 GLC5        0.0000 
     56 CA         12.6010   79.3520  -24.7800 C.3      15 GLL5        0.0000 
     57 CA         12.5120   76.3321  -30.6084 C.3       5 GLC5        0.0000 
     58 CA         12.4480   76.8720  -28.9010 C.3      15 GLL5        0.0000 
     59 CA         11.7280   75.4090  -32.1100 C.3      10 GLP5        0.0000 
     60 CA         11.7828   76.1287  -26.5275 C.3       5 GLC5        0.0000 
     61 CA         11.1530   74.5690  -25.3950 C.3      10 GLP5        0.0000 
     62 CA         14.1167   80.9330  -22.8515 C.3       5 GLC5        0.0000 
     63 CA         12.4080   80.7640  -24.4550 C.3      15 GLL5        0.0000 
     64 CA         10.7304   79.8685  -23.9620 C.3       5 GLC5        0.0000 
@<TRIPOS>BOND
@<TRIPOS>SUBSTRUCTURE
     1 ALC1       19 GROUP        1 X    ALC  0     ROOT ALC X 1
     2 SEC2       39 GROUP        1 X    SEC  0     **** SEC X 2
     3 LYC4        4 GROUP        1 X    LYC  0     **** LYC X 4
     4 ZIC7        1 GROUP        1 X    ZIC  0     **** ZIC X 5
     5 GLC5       14 GROUP        1 X    GLC  0     **** GLC X 6
     6 ALP1       21 GROUP        1 Y    ALP  0     ROOT ALP Y 8
     7 SEP2       41 GROUP        1 Y    SEP  0     **** SEP Y 9
     8 LYP4        6 GROUP        1 Y    LYP  0     **** LYP Y 11
     9 ZIP7        3 GROUP        1 Y    ZIP  0     **** ZIP Y 12
    10 GLP5       16 GROUP        1 Y    GLP  0     **** GLP Y 13
    11 ALL1       20 GROUP        1 Z    ALL  0     ROOT ALL Z 15
    12 SEL2       40 GROUP        1 Z    SEL  0     **** SEL Z 16
    13 LYL4        5 GROUP        1 Z    LYL  0     **** LYL Z 18
    14 ZIL7        2 GROUP        1 Z    ZIL  0     **** ZIL Z 19
    15 GLL5       15 GROUP        1 Z    GLL  0     **** GLL Z 20
@<TRIPOS>SET

