#    Name: 2d33_ADP_2_ligand
#    Modification time : Tue Mar 25 04:34:49 2014

@<TRIPOS>MOLECULE
2d33_ADP_2_ligand
   39    41     1     0     0
SMALL
NO_CHARGES


@<TRIPOS>ATOM
      1 PB         18.3940   77.5260  -31.9720 P.3       1 ADP1521     0.0000 
      2 O1B        18.2630   76.6880  -33.2010 O.co2     1 ADP1521     0.0000 
      3 O2B        19.2510   78.7550  -32.0930 O.co2     1 ADP1521     0.0000 
      4 O3B        18.6530   76.6760  -30.7330 O.co2     1 ADP1521     0.0000 
      5 PA         15.5580   77.3590  -32.1840 P.3       1 ADP1521     0.0000 
      6 O1A        14.5640   78.2200  -32.9340 O.co2     1 ADP1521     0.0000 
      7 O2A        15.8530   75.9760  -32.7180 O.co2     1 ADP1521     0.0000 
      8 O3A        16.9120   78.1450  -31.7950 O.3       1 ADP1521     0.0000 
      9 O5'        14.9640   77.0750  -30.7320 O.3       1 ADP1521     0.0000 
     10 C5'        14.3830   78.0510  -29.9020 C.3       1 ADP1521     0.0000 
     11 C4'        13.9050   77.2260  -28.7230 C.3       1 ADP1521     0.0000 
     12 O4'        14.0110   77.9680  -27.5070 O.3       1 ADP1521     0.0000 
     13 C3'        12.4480   76.8720  -28.9010 C.3       1 ADP1521     0.0000 
     14 O3'        12.3250   75.5380  -28.4260 O.3       1 ADP1521     0.0000 
     15 C2'        11.7400   77.8620  -27.9950 C.3       1 ADP1521     0.0000 
     16 O2'        10.4980   77.3900  -27.4780 O.3       1 ADP1521     0.0000 
     17 C1'        12.7310   78.0100  -26.8720 C.3       1 ADP1521     0.0000 
     18 N9         12.5670   79.2670  -26.1080 N.pl3     1 ADP1521     0.0000 
     19 C8         12.3710   80.5000  -26.5950 C.2       1 ADP1521     0.0000 
     20 N7         12.2820   81.4230  -25.6140 N.2       1 ADP1521     0.0000 
     21 C5         12.4080   80.7640  -24.4550 C.ar      1 ADP1521     0.0000 
     22 C6         12.4050   81.1080  -23.0290 C.ar      1 ADP1521     0.0000 
     23 N6         12.2480   82.3650  -22.6400 N.pl3     1 ADP1521     0.0000 
     24 N1         12.5750   80.1290  -22.1200 N.ar      1 ADP1521     0.0000 
     25 C2         12.7530   78.8450  -22.4870 C.ar      1 ADP1521     0.0000 
     26 N3         12.7650   78.4610  -23.7720 N.ar      1 ADP1521     0.0000 
     27 C4         12.6010   79.3520  -24.7800 C.ar      1 ADP1521     0.0000 
     28 H          13.5325   78.5237  -30.3486 H         1 ADP1521     0.0000 
     29 H          15.0925   78.7687  -29.5447 H         1 ADP1521     0.0000 
     30 H          14.4712   76.3169  -28.6759 H         1 ADP1521     0.0000 
     31 H          12.1779   77.0148  -29.8862 H         1 ADP1521     0.0000 
     32 H          11.6752   78.7944  -28.4972 H         1 ADP1521     0.0000 
     33 H          12.6224   77.1557  -26.2173 H         1 ADP1521     0.0000 
     34 H          12.2992   80.7142  -27.5593 H         1 ADP1521     0.0000 
     35 H          12.0994   83.0353  -23.3671 H         1 ADP1521     0.0000 
     36 H          12.2923   82.5295  -21.6546 H         1 ADP1521     0.0000 
     37 H          12.8881   78.1143  -21.7315 H         1 ADP1521     0.0000 
     38 H          11.3798   75.2788  -28.6246 H         1 ADP1521     0.0000 
     39 H          10.1862   76.7063  -28.1378 H         1 ADP1521     0.0000 
@<TRIPOS>BOND
     1    2    1 ar   
     2    3    1 ar   
     3    4    1 ar   
     4    8    1 1    
     5    6    5 ar   
     6    7    5 ar   
     7    8    5 1    
     8    9    5 1    
     9   10    9 1    
    10   11   10 1    
    11   28   10 1    
    12   29   10 1    
    13   12   11 1    
    14   13   11 1    
    15   30   11 1    
    16   17   12 1    
    17   14   13 1    
    18   15   13 1    
    19   31   13 1    
    20   38   14 1    
    21   16   15 1    
    22   17   15 1    
    23   32   15 1    
    24   39   16 1    
    25   18   17 1    
    26   33   17 1    
    27   19   18 1    
    28   27   18 1    
    29   20   19 2    
    30   34   19 1    
    31   21   20 1    
    32   22   21 ar   
    33   27   21 ar   
    34   23   22 1    
    35   24   22 ar   
    36   35   23 1    
    37   36   23 1    
    38   25   24 ar   
    39   26   25 ar   
    40   37   25 1    
    41   27   26 ar   
@<TRIPOS>SUBSTRUCTURE
     1 ADP1521     1 GROUP   
@<TRIPOS>SET

