#    Name: 3pt6_SAH_2_INTS_M
#    Modification time : Tue Mar 25 08:27:44 2014

@<TRIPOS>MOLECULE
3pt6_SAH_2_INTS_M
   59     0    12     0     0
SMALL
NO_CHARGES


@<TRIPOS>ATOM
      1 OD1       -32.9900  -25.9130  -21.4485 O.co2     3 ASC3        0.0000 
      2 OD1       -33.1510  -23.9760  -21.2600 O.co2    11 ASL3        0.0000 
      3 OD1       -32.8290  -27.8500  -21.6370 O.co2     7 ASP3        0.0000 
      4 O         -34.5530  -23.4230  -21.2920 O.2       1 ALC1        0.0000 
      5 O         -33.1510  -23.9760  -21.2600 O.2       9 ALL1        0.0000 
      6 O         -35.9550  -22.8700  -21.3240 O.2       5 ALP1        0.0000 
      7 CA        -34.2830  -25.1565  -18.8735 C.3       4 GLC5        0.0000 
      8 CA        -32.5310  -23.8010  -18.6520 C.3      12 GLL5        0.0000 
      9 CA        -36.0350  -26.5120  -19.0950 C.3       8 GLP5        0.0000 
     10 CA        -29.4420  -23.5315  -17.4990 C.3       4 GLC5        0.0000 
     11 CA        -31.4280  -23.8610  -17.2200 C.3      12 GLL5        0.0000 
     12 CA        -27.4560  -23.2020  -17.7780 C.3       8 GLP5        0.0000 
     13 N         -32.2515  -21.8470  -24.5205 N.am      2 SEC2        0.0000 
     14 N         -31.8730  -22.2130  -23.0550 N.am     10 SEL2        0.0000 
     15 N         -32.6300  -21.4810  -25.9860 N.am      6 SEP2        0.0000 
     16 N         -30.7610  -23.1800  -23.4470 N.am      2 SEC2        0.0000 
     17 N         -29.6490  -24.1470  -23.8390 N.am      6 SEP2        0.0000 
     18 CA        -34.0355  -25.0435  -14.8275 C.3       4 GLC5        0.0000 
     19 CA        -32.8170  -23.6940  -16.0600 C.3      12 GLL5        0.0000 
     20 CA        -35.2540  -26.3930  -13.5950 C.3       8 GLP5        0.0000 
     21 O         -32.4940  -19.8280  -15.6545 O.2       1 ALC1        0.0000 
     22 O         -31.1430  -20.7030  -15.3410 O.2       9 ALL1        0.0000 
     23 O         -33.8450  -18.9530  -15.9680 O.2       5 ALP1        0.0000 
     24 O         -31.9625  -19.5205  -14.7485 O.2       1 ALC1        0.0000 
     25 O         -32.7820  -18.3380  -14.1560 O.2       5 ALP1        0.0000 
     26 O         -32.2385  -19.2965  -13.4965 O.2       1 ALC1        0.0000 
     27 O         -31.6950  -20.2550  -12.8370 O.2       9 ALL1        0.0000 
     28 CA        -36.7010  -23.7620  -10.6425 C.3       4 GLC5        0.0000 
     29 CA        -36.2670  -21.6320  -10.8930 C.3      12 GLL5        0.0000 
     30 CA        -37.1350  -25.8920  -10.3920 C.3       8 GLP5        0.0000 
     31 CA        -39.5490  -21.7345  -10.9610 C.3       4 GLC5        0.0000 
     32 CA        -37.5280  -21.2810  -10.3960 C.3      12 GLL5        0.0000 
     33 CA        -41.5700  -22.1880  -11.5260 C.3       8 GLP5        0.0000 
     34 CA        -38.4310  -23.2705   -9.9010 C.3       4 GLC5        0.0000 
     35 CA        -39.3340  -25.2600   -9.4060 C.3       8 GLP5        0.0000 
     36 O         -38.7840  -21.3085   -8.3415 O.2       1 ALC1        0.0000 
     37 O         -37.9520  -21.7780   -9.2330 O.2       9 ALL1        0.0000 
     38 O         -39.6160  -20.8390   -7.4500 O.2       5 ALP1        0.0000 
     39 CA        -39.2620  -18.6935  -13.2855 C.3       4 GLC5        0.0000 
     40 CA        -37.8840  -19.9030  -12.3240 C.3      12 GLL5        0.0000 
     41 CA        -40.6400  -17.4840  -14.2470 C.3       8 GLP5        0.0000 
     42 CA        -37.0520  -18.3810  -13.5945 C.3       4 GLC5        0.0000 
     43 CA        -36.2200  -16.8590  -14.8650 C.3       8 GLP5        0.0000 
     44 CA        -36.8375  -18.9570  -11.2570 C.3       4 GLC5        0.0000 
     45 CA        -35.7910  -18.0110  -10.1900 C.3       8 GLP5        0.0000 
     46 CA        -39.7270  -21.0455  -11.9250 C.3       4 GLC5        0.0000 
     47 N         -36.1895  -18.7350  -12.6620 N.am      2 SEC2        0.0000 
     48 N         -36.6360  -20.2570  -12.8110 N.am     10 SEL2        0.0000 
     49 N         -35.7430  -17.2130  -12.5130 N.am      6 SEP2        0.0000 
     50 CA        -34.0860  -20.9975  -20.0120 C.3       4 GLC5        0.0000 
     51 CA        -32.4160  -22.4950  -19.4290 C.3      12 GLL5        0.0000 
     52 CA        -35.5360  -19.4530  -19.8630 C.3       8 GLP5        0.0000 
     53 CA        -32.3435  -20.6845  -19.3720 C.3       4 GLC5        0.0000 
     54 CA        -32.8560  -22.5890  -20.8930 C.3      12 GLL5        0.0000 
     55 CA        -32.0510  -18.8270  -18.5830 C.3       8 GLP5        0.0000 
     56 CA        -34.8035  -22.9765  -16.2192 C.3       4 GLC5        0.0000 
     57 CA        -32.9530  -22.2860  -15.4810 C.3      12 GLL5        0.0000 
     58 CA        -36.7220  -22.9630  -16.6680 C.3       8 GLP5        0.0000 
     59 CA        -36.0786  -19.6456  -10.7834 C.3       4 GLC5        0.0000 
@<TRIPOS>BOND
@<TRIPOS>SUBSTRUCTURE
     1 ALC1        4 GROUP        1 X    ALC  0     ROOT ALC X 1
     2 SEC2       13 GROUP        1 X    SEC  0     **** SEC X 2
     3 ASC3        1 GROUP        1 X    ASC  0     **** ASC X 3
     4 GLC5        7 GROUP        1 X    GLC  0     **** GLC X 6
     5 ALP1        6 GROUP        1 Y    ALP  0     ROOT ALP Y 8
     6 SEP2       15 GROUP        1 Y    SEP  0     **** SEP Y 9
     7 ASP3        3 GROUP        1 Y    ASP  0     **** ASP Y 10
     8 GLP5        9 GROUP        1 Y    GLP  0     **** GLP Y 13
     9 ALL1        5 GROUP        1 Z    ALL  0     ROOT ALL Z 15
    10 SEL2       14 GROUP        1 Z    SEL  0     **** SEL Z 16
    11 ASL3        2 GROUP        1 Z    ASL  0     **** ASL Z 17
    12 GLL5        8 GROUP        1 Z    GLL  0     **** GLL Z 20
@<TRIPOS>SET

