#    Name: 3pt6_SAH_2_ligand
#    Modification time : Tue Mar 25 08:27:44 2014

@<TRIPOS>MOLECULE
3pt6_SAH_2_ligand
   46    48     1     0     0
SMALL
NO_CHARGES


@<TRIPOS>ATOM
      1 N         -33.1510  -23.9760  -21.2600 N.4       1 SAH1603     0.0000 
      2 CA        -32.8560  -22.5890  -20.8930 C.3       1 SAH1603     0.0000 
      3 CB        -32.4160  -22.4950  -19.4290 C.3       1 SAH1603     0.0000 
      4 CG        -32.5310  -23.8010  -18.6520 C.3       1 SAH1603     0.0000 
      5 SD        -31.4280  -23.8610  -17.2200 S.3       1 SAH1603     0.0000 
      6 C         -31.8550  -21.9250  -21.8520 C.2       1 SAH1603     0.0000 
      7 O         -31.8730  -22.2130  -23.0550 O.co2     1 SAH1603     0.0000 
      8 OXT       -31.0210  -21.0860  -21.4590 O.co2     1 SAH1603     0.0000 
      9 C5'       -32.8170  -23.6940  -16.0600 C.3       1 SAH1603     0.0000 
     10 C4'       -32.9530  -22.2860  -15.4810 C.3       1 SAH1603     0.0000 
     11 O4'       -34.0500  -22.2310  -14.5840 O.3       1 SAH1603     0.0000 
     12 C3'       -31.7270  -21.8200  -14.6970 C.3       1 SAH1603     0.0000 
     13 O3'       -31.1430  -20.7030  -15.3410 O.3       1 SAH1603     0.0000 
     14 C2'       -32.2620  -21.4530  -13.3170 C.3       1 SAH1603     0.0000 
     15 O2'       -31.6950  -20.2550  -12.8370 O.3       1 SAH1603     0.0000 
     16 C1'       -33.7600  -21.3120  -13.5450 C.3       1 SAH1603     0.0000 
     17 N9        -34.5770  -21.6100  -12.3520 N.pl3     1 SAH1603     0.0000 
     18 C8        -34.2510  -22.4310  -11.3030 C.2       1 SAH1603     0.0000 
     19 N7        -35.2810  -22.4380  -10.4240 N.2       1 SAH1603     0.0000 
     20 C5        -36.2670  -21.6320  -10.8930 C.ar      1 SAH1603     0.0000 
     21 C6        -37.5280  -21.2810  -10.3960 C.ar      1 SAH1603     0.0000 
     22 N6        -37.9520  -21.7780   -9.2330 N.pl3     1 SAH1603     0.0000 
     23 N1        -38.3330  -20.4130  -11.1180 N.ar      1 SAH1603     0.0000 
     24 C2        -37.8840  -19.9030  -12.3240 C.ar      1 SAH1603     0.0000 
     25 N3        -36.6360  -20.2570  -12.8110 N.ar      1 SAH1603     0.0000 
     26 C4        -35.8350  -21.1040  -12.1090 C.ar      1 SAH1603     0.0000 
     27 H         -33.8042  -22.0012  -20.9701 H         1 SAH1603     0.0000 
     28 H         -33.0231  -21.7221  -18.9254 H         1 SAH1603     0.0000 
     29 H         -31.3683  -22.1475  -19.3954 H         1 SAH1603     0.0000 
     30 H         -32.2252  -24.6629  -19.2147 H         1 SAH1603     0.0000 
     31 H         -33.4962  -23.9508  -18.2059 H         1 SAH1603     0.0000 
     32 H         -32.5882  -24.4409  -15.3217 H         1 SAH1603     0.0000 
     33 H         -33.6550  -23.9922  -16.6636 H         1 SAH1603     0.0000 
     34 H         -33.1056  -21.5878  -16.3000 H         1 SAH1603     0.0000 
     35 H         -31.0685  -22.6478  -14.5949 H         1 SAH1603     0.0000 
     36 H         -32.1083  -22.2939  -12.6752 H         1 SAH1603     0.0000 
     37 H         -33.9431  -20.3018  -13.8870 H         1 SAH1603     0.0000 
     38 H         -33.4256  -22.9166  -11.2155 H         1 SAH1603     0.0000 
     39 H         -37.6218  -22.6924   -8.9987 H         1 SAH1603     0.0000 
     40 H         -38.5618  -21.1915   -8.7000 H         1 SAH1603     0.0000 
     41 H         -38.4809  -19.2563  -12.8632 H         1 SAH1603     0.0000 
     42 H         -34.0975  -24.0867  -21.5632 H         1 SAH1603     0.0000 
     43 H         -32.5653  -24.2957  -22.0048 H         1 SAH1603     0.0000 
     44 H         -33.0146  -24.6007  -20.4911 H         1 SAH1603     0.0000 
     45 H         -31.6571  -19.9133  -15.0061 H         1 SAH1603     0.0000 
     46 H         -32.4093  -19.5652  -12.9550 H         1 SAH1603     0.0000 
@<TRIPOS>BOND
     1    2    1 1    
     2   42    1 1    
     3   43    1 1    
     4   44    1 1    
     5    3    2 1    
     6    6    2 1    
     7   27    2 1    
     8    4    3 1    
     9   28    3 1    
    10   29    3 1    
    11    5    4 1    
    12   30    4 1    
    13   31    4 1    
    14    9    5 1    
    15    7    6 ar   
    16    8    6 ar   
    17   10    9 1    
    18   32    9 1    
    19   33    9 1    
    20   11   10 1    
    21   12   10 1    
    22   34   10 1    
    23   16   11 1    
    24   13   12 1    
    25   14   12 1    
    26   35   12 1    
    27   45   13 1    
    28   15   14 1    
    29   16   14 1    
    30   36   14 1    
    31   46   15 1    
    32   17   16 1    
    33   37   16 1    
    34   18   17 1    
    35   26   17 1    
    36   19   18 2    
    37   38   18 1    
    38   20   19 1    
    39   21   20 ar   
    40   26   20 ar   
    41   22   21 1    
    42   23   21 ar   
    43   39   22 1    
    44   40   22 1    
    45   24   23 ar   
    46   25   24 ar   
    47   41   24 1    
    48   26   25 ar   
@<TRIPOS>SUBSTRUCTURE
     1 SAH1603     1 GROUP   
@<TRIPOS>SET

