#    Name: 4gk4_L90_1_INTS_M
#    Modification time : Mon Mar 24 22:18:26 2014

@<TRIPOS>MOLECULE
4gk4_L90_1_INTS_M
   64     0     9     0     0
SMALL
NO_CHARGES


@<TRIPOS>ATOM
      1 N          -7.7450    4.9095   46.5145 N.am      2 SEC2        0.0000 
      2 N          -8.5980    5.3350   47.5880 N.am      8 SEL2        0.0000 
      3 N          -6.8920    4.4840   45.4410 N.am      5 SEP2        0.0000 
      4 CA        -10.0300    5.6855   48.8740 C.3       3 GLC5        0.0000 
      5 CA         -8.6210    5.0460   49.8710 C.3       9 GLL5        0.0000 
      6 CA        -11.4390    6.3250   47.8770 C.3       6 GLP5        0.0000 
      7 CA         -7.0655    6.2570   50.1450 C.3       3 GLC5        0.0000 
      8 CA         -5.5100    7.4680   50.4190 C.3       6 GLP5        0.0000 
      9 CA         -7.9940    8.7720   48.7065 C.3       3 GLC5        0.0000 
     10 CA         -9.3800    7.5390   49.9740 C.3       9 GLL5        0.0000 
     11 CA         -6.6080   10.0050   47.4390 C.3       6 GLP5        0.0000 
     12 CA        -11.2000    6.1930   53.1390 C.3       3 GLC5        0.0000 
     13 CA         -9.5140    7.3460   53.7160 C.3       9 GLL5        0.0000 
     14 CA        -12.8860    5.0400   52.5620 C.3       6 GLP5        0.0000 
     15 CA        -11.0960    8.6230   53.8620 C.3       3 GLC5        0.0000 
     16 CA        -12.6780    9.9000   54.0080 C.3       6 GLP5        0.0000 
     17 CA         -5.1500    9.7490   53.1495 C.3       3 GLC5        0.0000 
     18 CA         -5.8830    8.4300   54.3080 C.3       9 GLL5        0.0000 
     19 CA         -4.4170   11.0680   51.9910 C.3       6 GLP5        0.0000 
     20 CA         -5.5495   10.1840   55.4115 C.3       3 GLC5        0.0000 
     21 CA         -5.2160   11.9380   56.5150 C.3       6 GLP5        0.0000 
     22 CA         -6.4605    4.8840   51.3350 C.3       3 GLC5        0.0000 
     23 CA         -8.4140    4.1890   50.9470 C.3       9 GLL5        0.0000 
     24 CA         -4.5070    5.5790   51.7230 C.3       6 GLP5        0.0000 
     25 CA         -9.5775    0.9015   51.6115 C.3       3 GLC5        0.0000 
     26 CA         -7.8020    2.0320   51.8990 C.3       9 GLL5        0.0000 
     27 CA        -11.3530   -0.2290   51.3240 C.3       6 GLP5        0.0000 
     28 CA         -5.9880    1.6940   51.2305 C.3       3 GLC5        0.0000 
     29 CA         -4.1740    1.3560   50.5620 C.3       6 GLP5        0.0000 
     30 N          -6.4145   12.0775   53.6435 N.am      2 SEC2        0.0000 
     31 N          -7.5770   11.5030   53.1270 N.am      8 SEL2        0.0000 
     32 N          -5.2520   12.6520   54.1600 N.am      5 SEP2        0.0000 
     33 O          -8.5315   13.5425   53.5835 O.2       1 ALC1        0.0000 
     34 O          -8.6430   12.4030   52.9590 O.2       7 ALL1        0.0000 
     35 O          -8.4200   14.6820   54.2080 O.2       4 ALP1        0.0000 
     36 CA        -10.7000   14.0445   53.0415 C.3       3 GLC5        0.0000 
     37 CA        -10.9170   12.2190   51.9340 C.3       9 GLL5        0.0000 
     38 CA        -10.4830   15.8700   54.1490 C.3       6 GLP5        0.0000 
     39 CA        -11.8800    7.7140   49.1115 C.3       3 GLC5        0.0000 
     40 CA        -12.3210    9.1030   50.3460 C.3       9 GLL5        0.0000 
     41 CA        -14.0770    8.2245   49.5465 C.3       3 GLC5        0.0000 
     42 CA        -15.8330    7.3460   48.7470 C.3       6 GLP5        0.0000 
     43 CA        -13.0170    9.0020   51.9230 C.3       3 GLC5        0.0000 
     44 CA        -13.7130    8.9010   53.5000 C.3       6 GLP5        0.0000 
     45 CA        -11.6205   10.5130   49.2290 C.3       3 GLC5        0.0000 
     46 CA        -10.9200   11.9230   48.1120 C.3       6 GLP5        0.0000 
     47 CA        -10.4733    7.0940   49.2377 C.3       3 GLC5        0.0000 
     48 CA         -9.6350    8.1870   51.2230 C.3       9 GLL5        0.0000 
     49 CA         -7.5088    7.6655   50.5087 C.3       3 GLC5        0.0000 
     50 CA         -5.9700    7.7095   52.2578 C.3       3 GLC5        0.0000 
     51 CA         -6.9770    7.4720   53.8850 C.3       9 GLL5        0.0000 
     52 CA        -11.0638   10.5200   53.1125 C.3       3 GLC5        0.0000 
     53 CA         -9.2390   10.4910   52.1030 C.3       9 GLL5        0.0000 
     54 CA         -9.3288   12.9205   51.4305 C.3       3 GLC5        0.0000 
     55 CA         -9.6600   11.7890   52.3310 C.3       9 GLL5        0.0000 
     56 CA         -9.2080   14.7010   50.6440 C.3       6 GLP5        0.0000 
     57 CA        -12.0092   10.8370   52.8113 C.3       3 GLC5        0.0000 
     58 CA        -11.7640   11.3290   51.2950 C.3       9 GLL5        0.0000 
     59 CA        -10.2743   13.2375   51.1292 C.3       3 GLC5        0.0000 
     60 CA        -12.6277   12.8320   50.8987 C.3       3 GLC5        0.0000 
     61 CA        -13.9150   13.8900   50.1830 C.3       6 GLP5        0.0000 
     62 CA        -11.6431    9.6788   52.6005 C.3       3 GLC5        0.0000 
     63 CA        -11.3560   10.0220   51.0530 C.3       9 GLL5        0.0000 
     64 CA        -10.8427   11.6049   49.9070 C.3       3 GLC5        0.0000 
@<TRIPOS>BOND
@<TRIPOS>SUBSTRUCTURE
     1 ALC1       33 GROUP        1 X    ALC  0     ROOT ALC X 1
     2 SEC2        1 GROUP        1 X    SEC  0     **** SEC X 2
     3 GLC5        4 GROUP        1 X    GLC  0     **** GLC X 6
     4 ALP1       35 GROUP        1 Y    ALP  0     ROOT ALP Y 8
     5 SEP2        3 GROUP        1 Y    SEP  0     **** SEP Y 9
     6 GLP5        6 GROUP        1 Y    GLP  0     **** GLP Y 13
     7 ALL1       34 GROUP        1 Z    ALL  0     ROOT ALL Z 15
     8 SEL2        2 GROUP        1 Z    SEL  0     **** SEL Z 16
     9 GLL5        5 GROUP        1 Z    GLL  0     **** GLL Z 20
@<TRIPOS>SET

