#    Name: 4gk4_L90_1_ligand
#    Modification time : Mon Mar 24 22:18:27 2014

@<TRIPOS>MOLECULE
4gk4_L90_1_ligand
   50    54     1     0     0
SMALL
NO_CHARGES


@<TRIPOS>ATOM
      1 O3         -8.5980    5.3350   47.5880 O.2       1 L901001     0.0000 
      2 C16        -8.4230    4.5950   48.5760 C.2       1 L901001     0.0000 
      3 N4         -8.0360    3.3070   48.4240 N.am      1 L901001     0.0000 
      4 C3         -8.6210    5.0460   49.8710 C.2       1 L901001     0.0000 
      5 N2         -9.0160    6.2600   50.3720 N.pl3     1 L901001     0.0000 
      6 C4         -9.3800    7.5390   49.9740 C.2       1 L901001     0.0000 
      7 C5         -9.6350    8.1870   51.2230 C.2       1 L901001     0.0000 
      8 N3         -9.4020    7.3170   52.2550 N.pl3     1 L901001     0.0000 
      9 C6         -9.5140    7.3460   53.7160 C.3       1 L901001     0.0000 
     10 C7         -8.3140    7.9750   54.4080 C.3       1 L901001     0.0000 
     11 C8         -6.9770    7.4720   53.8850 C.3       1 L901001     0.0000 
     12 C9         -5.8830    8.4300   54.3080 C.3       1 L901001     0.0000 
     13 C1         -9.0370    6.1170   51.6900 C.2       1 L901001     0.0000 
     14 N1         -8.6660    4.8430   52.1400 N.2       1 L901001     0.0000 
     15 C2         -8.4140    4.1890   50.9470 C.2       1 L901001     0.0000 
     16 N5         -8.0220    2.9260   50.7560 N.am      1 L901001     0.0000 
     17 C18        -7.8020    2.0320   51.8990 C.3       1 L901001     0.0000 
     18 C17        -7.8310    2.4910   49.4970 C.2       1 L901001     0.0000 
     19 O2         -7.4640    1.3070   49.3060 O.2       1 L901001     0.0000 
     20 C10       -10.0860    9.5990   51.4430 C.ar      1 L901001     0.0000 
     21 C15        -9.2390   10.4910   52.1030 C.ar      1 L901001     0.0000 
     22 C29        -7.9160   10.3030   52.5990 C.2       1 L901001     0.0000 
     23 N28        -7.5770   11.5030   53.1270 N.2       1 L901001     0.0000 
     24 N27        -8.6430   12.4030   52.9590 N.pl3     1 L901001     0.0000 
     25 C14        -9.6600   11.7890   52.3310 C.ar      1 L901001     0.0000 
     26 C13       -10.9170   12.2190   51.9340 C.ar      1 L901001     0.0000 
     27 C12       -11.7640   11.3290   51.2950 C.ar      1 L901001     0.0000 
     28 C11       -11.3560   10.0220   51.0530 C.ar      1 L901001     0.0000 
     29 C26       -12.3210    9.1030   50.3460 C.3       1 L901001     0.0000 
     30 H          -7.8889    2.9226   47.4580 H         1 L901001     0.0000 
     31 H          -9.4468    7.8962   49.1472 H         1 L901001     0.0000 
     32 H          -9.6405    6.3183   54.1126 H         1 L901001     0.0000 
     33 H         -10.4204    7.9068   54.0212 H         1 L901001     0.0000 
     34 H          -8.3760    7.7716   55.4894 H         1 L901001     0.0000 
     35 H          -8.3600    9.0690   54.2825 H         1 L901001     0.0000 
     36 H          -7.0128    7.4149   52.8028 H         1 L901001     0.0000 
     37 H          -6.7780    6.4879   54.2946 H         1 L901001     0.0000 
     38 H          -7.4322    9.5155   52.5495 H         1 L901001     0.0000 
     39 H          -8.6151   13.3187   53.2617 H         1 L901001     0.0000 
     40 H         -11.2146   13.1827   52.1114 H         1 L901001     0.0000 
     41 H         -12.7027   11.6348   50.9961 H         1 L901001     0.0000 
     42 H          -4.9841    8.1329   53.9859 H         1 L901001     0.0000 
     43 H          -6.0346    9.3499   53.9463 H         1 L901001     0.0000 
     44 H          -5.8254    8.5120   55.3030 H         1 L901001     0.0000 
     45 H          -7.5103    1.1211   51.6073 H         1 L901001     0.0000 
     46 H          -7.0960    2.3827   52.5143 H         1 L901001     0.0000 
     47 H          -8.6326    1.9136   52.4431 H         1 L901001     0.0000 
     48 H         -11.9505    8.7719   49.4782 H         1 L901001     0.0000 
     49 H         -12.5392    8.2980   50.8977 H         1 L901001     0.0000 
     50 H         -13.1861    9.5603   50.1399 H         1 L901001     0.0000 
@<TRIPOS>BOND
     1    2    1 2    
     2    3    2 1    
     3    4    2 1    
     4   18    3 1    
     5   30    3 1    
     6    5    4 1    
     7   15    4 2    
     8    6    5 1    
     9   13    5 1    
    10    7    6 2    
    11   31    6 1    
    12    8    7 1    
    13   20    7 1    
    14    9    8 1    
    15   13    8 1    
    16   10    9 1    
    17   32    9 1    
    18   33    9 1    
    19   11   10 1    
    20   34   10 1    
    21   35   10 1    
    22   12   11 1    
    23   36   11 1    
    24   37   11 1    
    25   42   12 1    
    26   43   12 1    
    27   44   12 1    
    28   14   13 2    
    29   15   14 1    
    30   16   15 1    
    31   17   16 1    
    32   18   16 1    
    33   45   17 1    
    34   46   17 1    
    35   47   17 1    
    36   19   18 2    
    37   21   20 ar   
    38   28   20 ar   
    39   22   21 1    
    40   25   21 ar   
    41   23   22 2    
    42   38   22 1    
    43   24   23 1    
    44   25   24 1    
    45   39   24 1    
    46   26   25 ar   
    47   27   26 ar   
    48   40   26 1    
    49   28   27 ar   
    50   41   27 1    
    51   29   28 1    
    52   48   29 1    
    53   49   29 1    
    54   50   29 1    
@<TRIPOS>SUBSTRUCTURE
     1 L901001     1 GROUP   
@<TRIPOS>SET

