#    Name: 3all_FAD_1_INTS_M
#    Modification time : Mon Mar 24 17:44:13 2014

@<TRIPOS>MOLECULE
3all_FAD_1_INTS_M
  106     0     9     0     0
SMALL
NO_CHARGES


@<TRIPOS>ATOM
      1 CA         19.9175   63.0315   -3.3915 C.3       3 GLC5        0.0000 
      2 CA         20.2520   61.6640   -1.6800 C.3       9 GLL5        0.0000 
      3 CA         19.5830   64.3990   -5.1030 C.3       6 GLP5        0.0000 
      4 CA         18.8555   63.0930   -1.8425 C.3       3 GLC5        0.0000 
      5 CA         17.4590   64.5220   -2.0050 C.3       6 GLP5        0.0000 
      6 CA         22.1195   61.4070   -3.9965 C.3       3 GLC5        0.0000 
      7 CA         21.7710   61.4370   -1.9940 C.3       9 GLL5        0.0000 
      8 CA         22.4680   61.3770   -5.9990 C.3       6 GLP5        0.0000 
      9 O          24.5365   60.4780   -1.8335 O.2       1 ALC1        0.0000 
     10 O          23.7630   60.5680   -0.7750 O.2       7 ALL1        0.0000 
     11 O          25.3100   60.3880   -2.8920 O.2       4 ALP1        0.0000 
     12 O          25.5315   62.4530   -1.0390 O.2       1 ALC1        0.0000 
     13 O          24.6380   62.9750   -0.3740 O.2       7 ALL1        0.0000 
     14 O          26.4250   61.9310   -1.7040 O.2       4 ALP1        0.0000 
     15 CA         22.9745   62.2310   -4.1905 C.3       3 GLC5        0.0000 
     16 CA         23.4810   63.0850   -2.3820 C.3       9 GLL5        0.0000 
     17 CA         25.2030   67.9385   -5.6005 C.3       3 GLC5        0.0000 
     18 CA         23.6910   66.7920   -5.4980 C.3       9 GLL5        0.0000 
     19 CA         26.7150   69.0850   -5.7030 C.3       6 GLP5        0.0000 
     20 O          23.6740   68.8560   -6.8675 O.2       1 ALC1        0.0000 
     21 O          23.2750   68.0660   -5.7470 O.2       7 ALL1        0.0000 
     22 O          24.0730   69.6460   -7.9880 O.2       4 ALP1        0.0000 
     23 N          25.1005   66.8185   -7.4975 N.am      2 SEC2        0.0000 
     24 N          24.4710   66.1080   -6.4070 N.am      8 SEL2        0.0000 
     25 N          25.7300   67.5290   -8.5880 N.am      5 SEP2        0.0000 
     26 CA         23.6480   63.1020   -6.1040 C.3       3 GLC5        0.0000 
     27 CA         24.8280   64.8270   -6.2090 C.3       9 GLL5        0.0000 
     28 CA         26.0495   63.1475   -5.8565 C.3       3 GLC5        0.0000 
     29 CA         27.2710   61.4680   -5.5040 C.3       6 GLP5        0.0000 
     30 CA         25.9945   65.3080   -4.7725 C.3       3 GLC5        0.0000 
     31 CA         27.1610   65.7890   -3.3360 C.3       6 GLP5        0.0000 
     32 CA         26.2640   66.0385   -6.7155 C.3       3 GLC5        0.0000 
     33 CA         27.7000   67.2500   -7.2220 C.3       6 GLP5        0.0000 
     34 CA         22.6120   65.1585   -6.0750 C.3       3 GLC5        0.0000 
     35 CA         20.3960   65.4900   -5.9410 C.3       6 GLP5        0.0000 
     36 N          26.0175   63.8925   -4.6870 N.am      2 SEC2        0.0000 
     37 N          24.5390   64.1970   -5.0730 N.am      8 SEL2        0.0000 
     38 N          27.4960   63.5880   -4.3010 N.am      5 SEP2        0.0000 
     39 CA         23.1145   63.1105   -5.0660 C.3       3 GLC5        0.0000 
     40 CA         23.7610   64.8440   -4.1330 C.3       9 GLL5        0.0000 
     41 N          11.6035   55.8470    3.1945 N.am      2 SEC2        0.0000 
     42 N          11.7720   55.6800    4.6890 N.am      8 SEL2        0.0000 
     43 N          11.4350   56.0140    1.7000 N.am      5 SEP2        0.0000 
     44 N          11.3270   54.9000    2.6355 N.am      2 SEC2        0.0000 
     45 N          11.2190   53.7860    3.5710 N.am      8 SEL2        0.0000 
     46 N          10.8610   53.7395    2.0520 N.am      2 SEC2        0.0000 
     47 N          10.5030   53.6930    0.5330 N.am      5 SEP2        0.0000 
     48 O          11.4315   52.2235    5.6855 O.2       1 ALC1        0.0000 
     49 O          11.4040   53.6140    5.8660 O.2       7 ALL1        0.0000 
     50 O          11.4590   50.8330    5.5050 O.2       4 ALP1        0.0000 
     51 N          12.2700   52.1330    7.9865 N.am      2 SEC2        0.0000 
     52 N          11.6720   53.4250    8.0450 N.am      8 SEL2        0.0000 
     53 N          12.8680   50.8410    7.9280 N.am      5 SEP2        0.0000 
     54 CA         14.3670   58.2145   11.0230 C.3       3 GLC5        0.0000 
     55 CA         12.6810   58.1990    9.5430 C.3       9 GLL5        0.0000 
     56 CA         16.0530   58.2300   12.5030 C.3       6 GLP5        0.0000 
     57 CA         13.4225   60.9230   12.4265 C.3       3 GLC5        0.0000 
     58 CA         13.0740   60.3330   10.8450 C.3       9 GLL5        0.0000 
     59 CA         13.7710   61.5130   14.0080 C.3       6 GLP5        0.0000 
     60 CA         14.5635   59.2815   11.6740 C.3       3 GLC5        0.0000 
     61 CA         11.2215   60.7790   10.4215 C.3       3 GLC5        0.0000 
     62 CA          9.3690   61.2250    9.9980 C.3       6 GLP5        0.0000 
     63 CA         11.9410   63.2530    8.7040 C.3       3 GLC5        0.0000 
     64 CA         13.3420   61.8010    8.2430 C.3       9 GLL5        0.0000 
     65 CA         10.5400   64.7050    9.1650 C.3       6 GLP5        0.0000 
     66 CA         11.0745   57.9625    3.3570 C.3       3 GLC5        0.0000 
     67 CA         12.4960   58.2860    4.5250 C.3       9 GLL5        0.0000 
     68 CA          9.6530   57.6390    2.1890 C.3       6 GLP5        0.0000 
     69 CA         13.7200   56.3160    2.7965 C.3       3 GLC5        0.0000 
     70 CA         13.9610   58.0850    3.9330 C.3       9 GLL5        0.0000 
     71 CA         13.4790   54.5470    1.6600 C.3       6 GLP5        0.0000 
     72 N          16.0205   57.5620    5.1195 N.am      2 SEC2        0.0000 
     73 N          14.9640   58.4180    4.8900 N.am      8 SEL2        0.0000 
     74 N          17.0770   56.7060    5.3490 N.am      5 SEP2        0.0000 
     75 N          15.2225   57.4805    5.9685 N.am      2 SEC2        0.0000 
     76 N          15.4810   56.5430    7.0470 N.am      5 SEP2        0.0000 
     77 O          12.7245   60.3095    1.3550 O.2       1 ALC1        0.0000 
     78 O          12.7110   59.1080    1.9890 O.2       7 ALL1        0.0000 
     79 O          12.7380   61.5110    0.7210 O.2       4 ALP1        0.0000 
     80 CA         16.2070   56.6770    1.4600 C.3       3 GLC5        0.0000 
     81 CA         14.9270   58.3060    1.6590 C.3       9 GLL5        0.0000 
     82 CA         17.4870   55.0480    1.2610 C.3       6 GLP5        0.0000 
     83 CA         14.5220   61.2040   -0.0225 C.3       3 GLC5        0.0000 
     84 CA         15.0090   59.2020    0.4410 C.3       9 GLL5        0.0000 
     85 CA         14.0350   63.2060   -0.4860 C.3       6 GLP5        0.0000 
     86 N          17.3535   57.5355   -3.1345 N.am      2 SEC2        0.0000 
     87 N          17.6390   58.7580   -2.4480 N.am      8 SEL2        0.0000 
     88 N          17.0680   56.3130   -3.8210 N.am      5 SEP2        0.0000 
     89 N          14.3485   61.0950   -2.3985 N.am      2 SEC2        0.0000 
     90 N          15.5190   60.2490   -2.3350 N.am      8 SEL2        0.0000 
     91 N          13.1780   61.9410   -2.4620 N.am      5 SEP2        0.0000 
     92 N          15.7005   61.2570   -3.2325 N.am      2 SEC2        0.0000 
     93 N          15.8820   62.2650   -4.1300 N.am      5 SEP2        0.0000 
     94 CA         20.9712   59.5018   -1.9145 C.3       3 GLC5        0.0000 
     95 CA         20.9310   57.4530   -1.9920 C.3       6 GLP5        0.0000 
     96 CA         25.4042   65.7267   -3.9264 C.3       3 GLC5        0.0000 
     97 CA         23.3770   66.1780   -4.3030 C.3       9 GLL5        0.0000 
     98 CA         22.0217   65.5772   -5.2289 C.3       3 GLC5        0.0000 
     99 CA         10.9098   59.2062    9.6086 C.3       3 GLC5        0.0000 
    100 CA         12.8920   59.5790    9.5320 C.3       9 GLL5        0.0000 
    101 CA          9.0740   59.6820    9.9950 C.3       6 GLP5        0.0000 
    102 CA         11.2702   61.1278    9.1380 C.3       3 GLC5        0.0000 
    103 CA         13.0010   60.2600    8.3130 C.3       9 GLL5        0.0000 
    104 CA         13.4437   56.9790    1.4932 C.3       3 GLC5        0.0000 
    105 CA         14.0560   58.9660    2.6740 C.3       9 GLL5        0.0000 
    106 CA         12.3960   55.3220    0.8200 C.3       6 GLP5        0.0000 
@<TRIPOS>BOND
@<TRIPOS>SUBSTRUCTURE
     1 ALC1        9 GROUP        1 X    ALC  0     ROOT ALC X 1
     2 SEC2       23 GROUP        1 X    SEC  0     **** SEC X 2
     3 GLC5        1 GROUP        1 X    GLC  0     **** GLC X 6
     4 ALP1       11 GROUP        1 Y    ALP  0     ROOT ALP Y 8
     5 SEP2       25 GROUP        1 Y    SEP  0     **** SEP Y 9
     6 GLP5        3 GROUP        1 Y    GLP  0     **** GLP Y 13
     7 ALL1       10 GROUP        1 Z    ALL  0     ROOT ALL Z 15
     8 SEL2       24 GROUP        1 Z    SEL  0     **** SEL Z 16
     9 GLL5        2 GROUP        1 Z    GLL  0     **** GLL Z 20
@<TRIPOS>SET

