#    Name: 2c6i_DT1_1_INTS_M
#    Modification time : Mon Mar 24 22:43:27 2014

@<TRIPOS>MOLECULE
2c6i_DT1_1_INTS_M
   76     0     9     0     0
SMALL
NO_CHARGES


@<TRIPOS>ATOM
      1 N           7.7950   27.2590    9.2110 N.am      2 SEC2        0.0000 
      2 N           7.8650   26.0800    8.2840 N.am      8 SEL2        0.0000 
      3 N           7.7250   28.4380   10.1380 N.am      5 SEP2        0.0000 
      4 N           8.5275   24.5825    5.7420 N.am      2 SEC2        0.0000 
      5 N           7.1400   25.2340    6.2070 N.am      8 SEL2        0.0000 
      6 N           9.9150   23.9310    5.2770 N.am      5 SEP2        0.0000 
      7 O           5.8600   24.9130    9.8185 O.2       1 ALC1        0.0000 
      8 O           6.0630   24.3420    8.3670 O.2       7 ALL1        0.0000 
      9 O           5.6570   25.4840   11.2700 O.2       4 ALP1        0.0000 
     10 CA          5.8190   29.8155    5.3520 C.3       3 GLC5        0.0000 
     11 CA          4.3590   28.3610    5.8990 C.3       9 GLL5        0.0000 
     12 CA          7.2790   31.2700    4.8050 C.3       6 GLP5        0.0000 
     13 O           3.7235   30.6805    6.3080 O.2       1 ALC1        0.0000 
     14 O           2.7320   29.8180    6.8610 O.2       7 ALL1        0.0000 
     15 O           4.7150   31.5430    5.7550 O.2       4 ALP1        0.0000 
     16 CA         -0.8965   31.8715    6.8515 C.3       3 GLC5        0.0000 
     17 CA         -0.0430   31.5170    8.4690 C.3       9 GLL5        0.0000 
     18 CA         -1.7500   32.2260    5.2340 C.3       6 GLP5        0.0000 
     19 CA         -1.9320   31.1655    8.8190 C.3       3 GLC5        0.0000 
     20 CA         -3.8210   30.8140    9.1690 C.3       6 GLP5        0.0000 
     21 CA          1.3185   31.8840    9.3300 C.3       3 GLC5        0.0000 
     22 CA          2.6800   32.2510   10.1910 C.3       6 GLP5        0.0000 
     23 N          -1.9995   30.6780    9.9160 N.am      2 SEC2        0.0000 
     24 N          -0.6290   30.5620    9.2090 N.am      8 SEL2        0.0000 
     25 N          -3.3700   30.7940   10.6230 N.am      5 SEP2        0.0000 
     26 CA         -0.5950   32.7840    6.3795 C.3       3 GLC5        0.0000 
     27 CA          0.5600   33.3420    7.5250 C.3       9 GLL5        0.0000 
     28 CA          0.2270   34.9365    8.4940 C.3       3 GLC5        0.0000 
     29 CA         -0.1060   36.5310    9.4630 C.3       6 GLP5        0.0000 
     30 CA         -1.3130   34.4105    7.4130 C.3       3 GLC5        0.0000 
     31 CA         -3.1860   35.4790    7.3010 C.3       6 GLP5        0.0000 
     32 CA          1.1685   34.1170    5.8445 C.3       3 GLC5        0.0000 
     33 CA          1.7770   34.8920    4.1640 C.3       6 GLP5        0.0000 
     34 CA          2.1725   34.8115    7.8285 C.3       3 GLC5        0.0000 
     35 CA          3.7850   36.2810    8.1320 C.3       6 GLP5        0.0000 
     36 CA          1.6200   32.7965    8.8580 C.3       3 GLC5        0.0000 
     37 N           2.4790   33.2230    6.3825 N.am      2 SEC2        0.0000 
     38 N           1.4030   32.3730    7.1160 N.am      8 SEL2        0.0000 
     39 N           3.5550   34.0730    5.6490 N.am      5 SEP2        0.0000 
     40 CA         -1.9595   30.0535    9.1625 C.3       3 GLC5        0.0000 
     41 CA         -0.0980   29.2930    9.1560 C.3       9 GLL5        0.0000 
     42 CA         -3.0455   26.6980    9.9235 C.3       3 GLC5        0.0000 
     43 CA         -1.7920   26.2940   11.4500 C.3       9 GLL5        0.0000 
     44 CA         -4.2990   27.1020    8.3970 C.3       6 GLP5        0.0000 
     45 CA         -1.4865   24.1575   10.1295 C.3       3 GLC5        0.0000 
     46 CA         -1.8410   24.9440   12.1760 C.3       9 GLL5        0.0000 
     47 CA         -1.1320   23.3710    8.0830 C.3       6 GLP5        0.0000 
     48 CA         -3.0355   23.5940   11.0635 C.3       3 GLC5        0.0000 
     49 CA         -4.2300   22.2440    9.9510 C.3       6 GLP5        0.0000 
     50 CA         -0.8975   25.7645   16.2415 C.3       3 GLC5        0.0000 
     51 CA         -0.7450   25.9710   14.1840 C.3       9 GLL5        0.0000 
     52 CA         -1.0500   25.5580   18.2990 C.3       6 GLP5        0.0000 
     53 CA          6.7094   28.2666    7.7836 C.3       3 GLC5        0.0000 
     54 CA          5.5300   26.8220    7.3390 C.3       9 GLL5        0.0000 
     55 CA          8.2940   29.3750    7.9750 C.3       6 GLP5        0.0000 
     56 CA          5.3007   27.7170   10.1847 C.3       3 GLC5        0.0000 
     57 CA          4.8320   27.2350    8.4800 C.3       9 GLL5        0.0000 
     58 CA          6.2350   27.6900   11.9810 C.3       6 GLP5        0.0000 
     59 CA          4.1757   29.1090    9.8692 C.3       3 GLC5        0.0000 
     60 CA          3.9850   30.4740   11.3500 C.3       6 GLP5        0.0000 
     61 CA          2.1345   28.4320    5.5035 C.3       3 GLC5        0.0000 
     62 CA          3.6510   28.8130    7.0250 C.3       9 GLL5        0.0000 
     63 CA          0.2640   28.2770    4.5450 C.3       6 GLP5        0.0000 
     64 CA          0.7940   28.8935    6.2788 C.3       3 GLC5        0.0000 
     65 CA          1.6300   30.0300    7.6560 C.3       9 GLL5        0.0000 
     66 CA         -1.2095   28.6713    7.6963 C.3       3 GLC5        0.0000 
     67 CA          1.0180   28.9900    8.3690 C.3       9 GLL5        0.0000 
     68 CA         -2.8790   28.2010    6.6300 C.3       6 GLP5        0.0000 
     69 CA          1.6465   30.8262    9.3876 C.3       3 GLC5        0.0000 
     70 CA         -3.6469   24.7945   12.8840 C.3       3 GLC5        0.0000 
     71 CA         -1.9490   25.1650   13.6910 C.3       9 GLL5        0.0000 
     72 CA         -5.4110   24.1970   13.0160 C.3       6 GLP5        0.0000 
     73 CA          1.0485   25.8905   14.3002 C.3       3 GLC5        0.0000 
     74 CA          2.8380   25.1320   14.7690 C.3       6 GLP5        0.0000 
     75 CA         -0.1360   28.1875   14.8128 C.3       3 GLC5        0.0000 
     76 CA          0.4690   29.7260   15.7940 C.3       6 GLP5        0.0000 
@<TRIPOS>BOND
@<TRIPOS>SUBSTRUCTURE
     1 ALC1        7 GROUP        1 X    ALC  0     ROOT ALC X 1
     2 SEC2        1 GROUP        1 X    SEC  0     **** SEC X 2
     3 GLC5       10 GROUP        1 X    GLC  0     **** GLC X 6
     4 ALP1        9 GROUP        1 Y    ALP  0     ROOT ALP Y 8
     5 SEP2        3 GROUP        1 Y    SEP  0     **** SEP Y 9
     6 GLP5       12 GROUP        1 Y    GLP  0     **** GLP Y 13
     7 ALL1        8 GROUP        1 Z    ALL  0     ROOT ALL Z 15
     8 SEL2        2 GROUP        1 Z    SEL  0     **** SEL Z 16
     9 GLL5       11 GROUP        1 Z    GLL  0     **** GLL Z 20
@<TRIPOS>SET

