#    Name: 2c6i_DT1_1_ligand
#    Modification time : Mon Mar 24 22:43:27 2014

@<TRIPOS>MOLECULE
2c6i_DT1_1_ligand
   50    53     1     0     0
SMALL
NO_CHARGES


@<TRIPOS>ATOM
      1 O3          7.8650   26.0800    8.2840 O.2       1 DT11299     0.0000 
      2 S1          6.6910   25.5750    7.5540 S.o2      1 DT11299     0.0000 
      3 O2          7.1400   25.2340    6.2070 O.2       1 DT11299     0.0000 
      4 N6          6.0630   24.3420    8.3670 N.pl3     1 DT11299     0.0000 
      5 C16         5.5300   26.8220    7.3390 C.ar      1 DT11299     0.0000 
      6 C15         5.3050   27.3410    6.0700 C.ar      1 DT11299     0.0000 
      7 C17         4.8320   27.2350    8.4800 C.ar      1 DT11299     0.0000 
      8 C18         3.9010   28.2530    8.2970 C.ar      1 DT11299     0.0000 
      9 C14         4.3590   28.3610    5.8990 C.ar      1 DT11299     0.0000 
     10 C13         3.6510   28.8130    7.0250 C.ar      1 DT11299     0.0000 
     11 N5          2.7320   29.8180    6.8610 N.pl3     1 DT11299     0.0000 
     12 C9          1.6300   30.0300    7.6560 C.ar      1 DT11299     0.0000 
     13 N2          1.0380   31.2550    7.7170 N.pl3     1 DT11299     0.0000 
     14 C10        -0.0430   31.5170    8.4690 C.ar      1 DT11299     0.0000 
     15 N1         -0.6290   30.5620    9.2090 N.ar      1 DT11299     0.0000 
     16 N4         -0.3670   32.8210    8.3680 N.ar      1 DT11299     0.0000 
     17 C11         0.5600   33.3420    7.5250 C.ar      1 DT11299     0.0000 
     18 N3          1.4030   32.3730    7.1160 N.ar      1 DT11299     0.0000 
     19 C8          1.0180   28.9900    8.3690 C.ar      1 DT11299     0.0000 
     20 C7         -0.0980   29.2930    9.1560 C.ar      1 DT11299     0.0000 
     21 C20        -0.3950   28.4590   11.2650 C.3       1 DT11299     0.0000 
     22 O1         -0.6940   28.3000    9.8760 O.3       1 DT11299     0.0000 
     23 C1         -0.6000   27.1080   11.9700 C.3       1 DT11299     0.0000 
     24 C2         -1.7920   26.2940   11.4500 C.3       1 DT11299     0.0000 
     25 C3         -1.8410   24.9440   12.1760 C.3       1 DT11299     0.0000 
     26 C4         -1.9490   25.1650   13.6910 C.3       1 DT11299     0.0000 
     27 C5         -0.7450   25.9710   14.1840 C.3       1 DT11299     0.0000 
     28 C6         -0.7370   27.3270   13.4790 C.3       1 DT11299     0.0000 
     29 H           6.0189   23.4702    7.8793 H         1 DT11299     0.0000 
     30 H           5.7628   24.5377    9.3006 H         1 DT11299     0.0000 
     31 H           5.8232   26.9850    5.2627 H         1 DT11299     0.0000 
     32 H           4.9962   26.8191    9.3749 H         1 DT11299     0.0000 
     33 H           3.3717   28.6164    9.1118 H         1 DT11299     0.0000 
     34 H           4.1887   28.7639    4.9851 H         1 DT11299     0.0000 
     35 H           2.8844   30.4964    6.0444 H         1 DT11299     0.0000 
     36 H           0.6052   34.2774    7.2584 H         1 DT11299     0.0000 
     37 H           1.3756   28.0438    8.3149 H         1 DT11299     0.0000 
     38 H          -1.0525   29.1851   11.7442 H         1 DT11299     0.0000 
     39 H           0.6393   28.7635   11.4283 H         1 DT11299     0.0000 
     40 H           0.3110   26.5085   11.8184 H         1 DT11299     0.0000 
     41 H          -1.6751   26.1261   10.3884 H         1 DT11299     0.0000 
     42 H          -2.7071   26.8372   11.6410 H         1 DT11299     0.0000 
     43 H          -0.9363   24.3874   11.9594 H         1 DT11299     0.0000 
     44 H          -2.7039   24.3841   11.8339 H         1 DT11299     0.0000 
     45 H          -1.9684   24.2044   14.1913 H         1 DT11299     0.0000 
     46 H          -2.8600   25.7094   13.9082 H         1 DT11299     0.0000 
     47 H           0.1642   25.4376   13.9490 H         1 DT11299     0.0000 
     48 H          -0.8257   26.1201   15.2506 H         1 DT11299     0.0000 
     49 H          -1.6641   27.8446   13.6833 H         1 DT11299     0.0000 
     50 H           0.1002   27.9124   13.8336 H         1 DT11299     0.0000 
@<TRIPOS>BOND
     1    2    1 2    
     2    3    2 2    
     3    4    2 1    
     4    5    2 1    
     5   29    4 1    
     6   30    4 1    
     7    6    5 ar   
     8    7    5 ar   
     9    9    6 ar   
    10   31    6 1    
    11    8    7 ar   
    12   32    7 1    
    13   10    8 ar   
    14   33    8 1    
    15   10    9 ar   
    16   34    9 1    
    17   11   10 1    
    18   12   11 1    
    19   35   11 1    
    20   13   12 ar   
    21   19   12 ar   
    22   14   13 ar   
    23   18   13 ar   
    24   15   14 ar   
    25   16   14 ar   
    26   20   15 ar   
    27   17   16 ar   
    28   18   17 ar   
    29   36   17 1    
    30   20   19 ar   
    31   37   19 1    
    32   22   20 1    
    33   22   21 1    
    34   23   21 1    
    35   38   21 1    
    36   39   21 1    
    37   24   23 1    
    38   28   23 1    
    39   40   23 1    
    40   25   24 1    
    41   41   24 1    
    42   42   24 1    
    43   26   25 1    
    44   43   25 1    
    45   44   25 1    
    46   27   26 1    
    47   45   26 1    
    48   46   26 1    
    49   28   27 1    
    50   47   27 1    
    51   48   27 1    
    52   49   28 1    
    53   50   28 1    
@<TRIPOS>SUBSTRUCTURE
     1 DT11299     1 GROUP   
@<TRIPOS>SET

