#    Name: 2d5n_NDP_1_INTS_M
#    Modification time : Tue Mar 25 09:43:07 2014

@<TRIPOS>MOLECULE
2d5n_NDP_1_INTS_M
   71     0     9     0     0
SMALL
NO_CHARGES


@<TRIPOS>ATOM
      1 N          39.4930   62.1875   71.6405 N.am      2 SEC2        0.0000 
      2 N          39.2280   63.1480   70.6170 N.am      8 SEL2        0.0000 
      3 N          39.7580   61.2270   72.6640 N.am      5 SEP2        0.0000 
      4 N          41.3385   64.2970   67.4800 N.am      2 SEC2        0.0000 
      5 N          40.2700   63.8330   68.3990 N.am      8 SEL2        0.0000 
      6 N          42.4070   64.7610   66.5610 N.am      5 SEP2        0.0000 
      7 N          37.2840   65.0995   70.5625 N.am      2 SEC2        0.0000 
      8 N          38.2400   64.9800   69.3540 N.am      8 SEL2        0.0000 
      9 N          36.3280   65.2190   71.7710 N.am      5 SEP2        0.0000 
     10 CA         38.7790   65.1020   66.6105 C.3       3 GLC5        0.0000 
     11 CA         37.8710   65.6290   68.1240 C.3       9 GLL5        0.0000 
     12 CA         39.6870   64.5750   65.0970 C.3       6 GLP5        0.0000 
     13 CA         36.2990   67.5095   70.2790 C.3       3 GLC5        0.0000 
     14 CA         37.1040   66.8400   68.5130 C.3       9 GLL5        0.0000 
     15 CA         35.4940   68.1790   72.0450 C.3       6 GLP5        0.0000 
     16 CA         42.2565   69.8790   68.3325 C.3       3 GLC5        0.0000 
     17 CA         40.9850   69.7920   66.5810 C.3       9 GLL5        0.0000 
     18 CA         43.5280   69.9660   70.0840 C.3       6 GLP5        0.0000 
     19 CA         43.3020   69.7405   64.9130 C.3       3 GLC5        0.0000 
     20 CA         41.7610   70.7940   65.9760 C.3       9 GLL5        0.0000 
     21 CA         44.8430   68.6870   63.8500 C.3       6 GLP5        0.0000 
     22 O          43.1615   69.5535   64.4065 O.2       1 ALC1        0.0000 
     23 O          42.8540   70.4950   65.2630 O.2       7 ALL1        0.0000 
     24 O          43.4690   68.6120   63.5500 O.2       4 ALP1        0.0000 
     25 CA         40.9275   73.6335   67.5350 C.3       3 GLC5        0.0000 
     26 CA         40.2350   72.3870   66.8690 C.3       9 GLL5        0.0000 
     27 CA         41.6200   74.8800   68.2010 C.3       6 GLP5        0.0000 
     28 N          39.7570   60.8560   66.9220 N.am      2 SEC2        0.0000 
     29 N          38.2010   61.1290   66.6040 N.am      8 SEL2        0.0000 
     30 N          41.3130   60.5830   67.2400 N.am      5 SEP2        0.0000 
     31 N          39.6095   61.8450   65.9885 N.am      2 SEC2        0.0000 
     32 N          41.0180   62.5610   65.3730 N.am      5 SEP2        0.0000 
     33 CA         40.0715   60.3280   69.1850 C.3       3 GLC5        0.0000 
     34 CA         38.7940   59.2310   68.8730 C.3       9 GLL5        0.0000 
     35 CA         41.3490   61.4250   69.4970 C.3       6 GLP5        0.0000 
     36 CA         39.8465   59.3450   66.9890 C.3       3 GLC5        0.0000 
     37 CA         40.8990   59.4590   65.1050 C.3       6 GLP5        0.0000 
     38 CA         37.8990   57.0035   67.2000 C.3       3 GLC5        0.0000 
     39 CA         38.0710   57.9150   69.1000 C.3       9 GLL5        0.0000 
     40 CA         37.7270   56.0920   65.3000 C.3       6 GLP5        0.0000 
     41 CA         40.2790   56.7590   69.2725 C.3       3 GLC5        0.0000 
     42 CA         38.9620   56.6410   70.8750 C.3       9 GLL5        0.0000 
     43 CA         41.5960   56.8770   67.6700 C.3       6 GLP5        0.0000 
     44 CA         38.1410   54.9620   69.7460 C.3       3 GLC5        0.0000 
     45 CA         37.3200   53.2830   68.6170 C.3       6 GLP5        0.0000 
     46 CA         41.4390   56.3905   69.4695 C.3       3 GLC5        0.0000 
     47 CA         41.2820   55.9040   71.2690 C.3       9 GLL5        0.0000 
     48 CA         42.3900   55.2330   69.7995 C.3       3 GLC5        0.0000 
     49 CA         42.5830   56.0460   71.7640 C.3       9 GLL5        0.0000 
     50 CA         42.1970   54.4200   67.8350 C.3       6 GLP5        0.0000 
     51 N          45.9300   54.4255   71.1150 N.am      2 SEC2        0.0000 
     52 N          44.7970   55.2530   71.4250 N.am      8 SEL2        0.0000 
     53 N          47.0630   53.5980   70.8050 N.am      5 SEP2        0.0000 
     54 O          44.0000   52.9655   70.7690 O.2       1 ALC1        0.0000 
     55 O          43.1760   53.6970   71.5510 O.2       7 ALL1        0.0000 
     56 O          44.8240   52.2340   69.9870 O.2       4 ALP1        0.0000 
     57 CA         42.9080   60.1300   72.4595 C.3       3 GLC5        0.0000 
     58 CA         41.9710   58.2530   72.6500 C.3       9 GLL5        0.0000 
     59 CA         43.8450   62.0070   72.2690 C.3       6 GLP5        0.0000 
     60 CA         41.0110   59.7555   70.8200 C.3       3 GLC5        0.0000 
     61 CA         40.6730   58.0860   72.1430 C.3       9 GLL5        0.0000 
     62 N          35.5520   72.6435   69.6220 N.am      2 SEC2        0.0000 
     63 N          34.5940   71.7850   68.6810 N.am      8 SEL2        0.0000 
     64 N          36.5100   73.5020   70.5630 N.am      5 SEP2        0.0000 
     65 CA         36.5983   65.1157   69.7897 C.3       3 GLC5        0.0000 
     66 CA         35.7090   63.9970   71.2610 C.3       6 GLP5        0.0000 
     67 CA         36.4637   68.6192   70.1475 C.3       3 GLC5        0.0000 
     68 CA         38.0880   69.0050   68.6230 C.3       9 GLL5        0.0000 
     69 CA         40.0142   57.7250   68.3282 C.3       3 GLC5        0.0000 
     70 CA         40.4490   59.5568   73.7223 C.3       3 GLC5        0.0000 
     71 CA         39.5760   60.9440   75.0480 C.3       6 GLP5        0.0000 
@<TRIPOS>BOND
@<TRIPOS>SUBSTRUCTURE
     1 ALC1       22 GROUP        1 X    ALC  0     ROOT ALC X 1
     2 SEC2        1 GROUP        1 X    SEC  0     **** SEC X 2
     3 GLC5       10 GROUP        1 X    GLC  0     **** GLC X 6
     4 ALP1       24 GROUP        1 Y    ALP  0     ROOT ALP Y 8
     5 SEP2        3 GROUP        1 Y    SEP  0     **** SEP Y 9
     6 GLP5       12 GROUP        1 Y    GLP  0     **** GLP Y 13
     7 ALL1       23 GROUP        1 Z    ALL  0     ROOT ALL Z 15
     8 SEL2        2 GROUP        1 Z    SEL  0     **** SEL Z 16
     9 GLL5       11 GROUP        1 Z    GLL  0     **** GLL Z 20
@<TRIPOS>SET

