#    Name: 2d5n_NDP_1_ligand
#    Modification time : Tue Mar 25 09:43:07 2014

@<TRIPOS>MOLECULE
2d5n_NDP_1_ligand
   74    78     1     0     0
SMALL
NO_CHARGES


@<TRIPOS>ATOM
      1 PA         39.0760   63.6500   69.2390 P.3       1 NDP381      0.0000 
      2 O1A        39.2280   63.1480   70.6170 O.co2     1 NDP381      0.0000 
      3 O2A        40.2700   63.8330   68.3990 O.co2     1 NDP381      0.0000 
      4 O5B        38.2400   64.9800   69.3540 O.3       1 NDP381      0.0000 
      5 C5B        37.8710   65.6290   68.1240 C.3       1 NDP381      0.0000 
      6 C4B        37.1040   66.8400   68.5130 C.3       1 NDP381      0.0000 
      7 O4B        38.0360   67.7230   69.2320 O.3       1 NDP381      0.0000 
      8 C3B        36.5670   67.6830   67.3580 C.3       1 NDP381      0.0000 
      9 O3B        35.2180   67.3290   67.1250 O.3       1 NDP381      0.0000 
     10 C2B        36.7790   69.1140   67.8770 C.3       1 NDP381      0.0000 
     11 O2B        35.7220   69.5450   68.7510 O.3       1 NDP381      0.0000 
     12 C1B        38.0880   69.0050   68.6230 C.3       1 NDP381      0.0000 
     13 N9A        39.3020   69.0990   67.7840 N.pl3     1 NDP381      0.0000 
     14 C8A        40.1050   68.0610   67.3270 C.2       1 NDP381      0.0000 
     15 N7A        41.1190   68.4510   66.6030 N.2       1 NDP381      0.0000 
     16 C5A        40.9850   69.7920   66.5810 C.ar      1 NDP381      0.0000 
     17 C6A        41.7610   70.7940   65.9760 C.ar      1 NDP381      0.0000 
     18 N6A        42.8540   70.4950   65.2630 N.pl3     1 NDP381      0.0000 
     19 N1A        41.3520   72.0890   66.1400 N.ar      1 NDP381      0.0000 
     20 C2A        40.2350   72.3870   66.8690 C.ar      1 NDP381      0.0000 
     21 N3A        39.4250   71.4920   67.4960 N.ar      1 NDP381      0.0000 
     22 C4A        39.8680   70.2130   67.3080 C.ar      1 NDP381      0.0000 
     23 O3         37.9600   62.8300   68.4050 O.3       1 NDP381      0.0000 
     24 PN         37.5430   61.3990   67.9300 P.3       1 NDP381      0.0000 
     25 O1N        38.2010   61.1290   66.6040 O.co2     1 NDP381      0.0000 
     26 O2N        36.0490   61.4320   67.9680 O.co2     1 NDP381      0.0000 
     27 O5D        37.9680   60.3830   69.0860 O.3       1 NDP381      0.0000 
     28 C5D        38.7940   59.2310   68.8730 C.3       1 NDP381      0.0000 
     29 C4D        38.0710   57.9150   69.1000 C.3       1 NDP381      0.0000 
     30 O4D        39.0390   56.9250   69.4930 O.3       1 NDP381      0.0000 
     31 C3D        37.0000   57.8350   70.2100 C.3       1 NDP381      0.0000 
     32 O3D        35.9570   56.9270   69.9080 O.3       1 NDP381      0.0000 
     33 C2D        37.8260   57.4980   71.4610 C.3       1 NDP381      0.0000 
     34 O2D        37.0030   56.8030   72.3870 O.3       1 NDP381      0.0000 
     35 C1D        38.9620   56.6410   70.8750 C.3       1 NDP381      0.0000 
     36 N1N        40.3360   56.9010   71.4520 N.pl3     1 NDP381      0.0000 
     37 C2N        41.2820   55.9040   71.2690 C.2       1 NDP381      0.0000 
     38 C3N        42.5830   56.0460   71.7640 C.2       1 NDP381      0.0000 
     39 C7N        43.6130   54.9600   71.5660 C.2       1 NDP381      0.0000 
     40 O7N        44.7970   55.2530   71.4250 O.2       1 NDP381      0.0000 
     41 N7N        43.1760   53.6970   71.5510 N.am      1 NDP381      0.0000 
     42 C4N        42.9360   57.2420   72.4690 C.3       1 NDP381      0.0000 
     43 C5N        41.9710   58.2530   72.6500 C.2       1 NDP381      0.0000 
     44 C6N        40.6730   58.0860   72.1430 C.2       1 NDP381      0.0000 
     45 P2B        34.3700   70.3320   68.3110 P.3       1 NDP381      0.0000 
     46 O1X        34.1780   70.1480   66.8140 O.co2     1 NDP381      0.0000 
     47 O2X        33.3350   69.6720   69.2020 O.co2     1 NDP381      0.0000 
     48 O3X        34.5940   71.7850   68.6810 O.co2     1 NDP381      0.0000 
     49 H          37.2443   64.9878   67.5144 H         1 NDP381      0.0000 
     50 H          38.7471   65.9256   67.5584 H         1 NDP381      0.0000 
     51 H          36.2972   66.5897   69.1695 H         1 NDP381      0.0000 
     52 H          37.2149   67.5282   66.5308 H         1 NDP381      0.0000 
     53 H          36.9248   69.7478   67.0371 H         1 NDP381      0.0000 
     54 H          38.0999   69.7663   69.3922 H         1 NDP381      0.0000 
     55 H          39.8875   67.1085   67.5573 H         1 NDP381      0.0000 
     56 H          43.5756   71.1873   65.2526 H         1 NDP381      0.0000 
     57 H          42.8509   69.6062   64.8047 H         1 NDP381      0.0000 
     58 H          39.9731   73.4311   66.9537 H         1 NDP381      0.0000 
     59 H          39.6821   59.2475   69.5428 H         1 NDP381      0.0000 
     60 H          39.2009   59.2178   67.8377 H         1 NDP381      0.0000 
     61 H          37.6083   57.5839   68.1714 H         1 NDP381      0.0000 
     62 H          36.6459   58.8624   70.3461 H         1 NDP381      0.0000 
     63 H          38.2370   58.4005   71.8216 H         1 NDP381      0.0000 
     64 H          38.7109   55.5977   71.0230 H         1 NDP381      0.0000 
     65 H          41.0277   55.0403   70.7597 H         1 NDP381      0.0000 
     66 H          43.8786   52.9891   71.4791 H         1 NDP381      0.0000 
     67 H          42.1856   53.5733   71.6131 H         1 NDP381      0.0000 
     68 H          43.8681   57.6944   71.9683 H         1 NDP381      0.0000 
     69 H          43.3673   56.9434   73.4932 H         1 NDP381      0.0000 
     70 H          42.2197   59.1096   73.1524 H         1 NDP381      0.0000 
     71 H          39.9713   58.8167   72.2712 H         1 NDP381      0.0000 
     72 H          34.7475   68.1962   66.9618 H         1 NDP381      0.0000 
     73 H          35.2693   57.4729   69.4294 H         1 NDP381      0.0000 
     74 H          36.1226   56.7001   71.9241 H         1 NDP381      0.0000 
@<TRIPOS>BOND
     1    2    1 ar   
     2    3    1 ar   
     3    4    1 1    
     4   23    1 1    
     5    5    4 1    
     6    6    5 1    
     7   49    5 1    
     8   50    5 1    
     9    7    6 1    
    10    8    6 1    
    11   51    6 1    
    12   12    7 1    
    13    9    8 1    
    14   10    8 1    
    15   52    8 1    
    16   72    9 1    
    17   11   10 1    
    18   12   10 1    
    19   53   10 1    
    20   45   11 1    
    21   13   12 1    
    22   54   12 1    
    23   14   13 1    
    24   22   13 1    
    25   15   14 2    
    26   55   14 1    
    27   16   15 1    
    28   17   16 ar   
    29   22   16 ar   
    30   18   17 1    
    31   19   17 ar   
    32   56   18 1    
    33   57   18 1    
    34   20   19 ar   
    35   21   20 ar   
    36   58   20 1    
    37   22   21 ar   
    38   24   23 1    
    39   25   24 ar   
    40   26   24 ar   
    41   27   24 1    
    42   28   27 1    
    43   29   28 1    
    44   59   28 1    
    45   60   28 1    
    46   30   29 1    
    47   31   29 1    
    48   61   29 1    
    49   35   30 1    
    50   32   31 1    
    51   33   31 1    
    52   62   31 1    
    53   73   32 1    
    54   34   33 1    
    55   35   33 1    
    56   63   33 1    
    57   74   34 1    
    58   36   35 1    
    59   64   35 1    
    60   37   36 1    
    61   44   36 1    
    62   38   37 2    
    63   65   37 1    
    64   39   38 1    
    65   42   38 1    
    66   40   39 2    
    67   41   39 am   
    68   66   41 1    
    69   67   41 1    
    70   43   42 1    
    71   68   42 1    
    72   69   42 1    
    73   44   43 2    
    74   70   43 1    
    75   71   44 1    
    76   46   45 ar   
    77   47   45 ar   
    78   48   45 ar   
@<TRIPOS>SUBSTRUCTURE
     1 NDP381      1 GROUP   
@<TRIPOS>SET

