#    Name: 3a2c_PDY_15_INTS_M
#    Modification time : Tue Mar 25 11:32:48 2014

@<TRIPOS>MOLECULE
3a2c_PDY_15_INTS_M
   42     0     9     0     0
SMALL
NO_CHARGES


@<TRIPOS>ATOM
      1 OD1        90.1390   79.7705   82.9835 O.co2     2 ASC3        0.0000 
      2 OD1        91.8970   79.4860   82.7210 O.co2     8 ASL3        0.0000 
      3 OD1        88.3810   80.0550   83.2460 O.co2     5 ASP3        0.0000 
      4 OD1        90.6785   79.1875   82.2255 O.co2     2 ASC3        0.0000 
      5 OD1        89.4600   78.8890   81.7300 O.co2     5 ASP3        0.0000 
      6 CA         91.2310   74.3410   85.7260 C.3       3 GLC5        0.0000 
      7 CA         91.8200   74.0530   83.8580 C.3       9 GLL5        0.0000 
      8 CA         90.6420   74.6290   87.5940 C.3       6 GLP5        0.0000 
      9 CA         93.2920   74.8465   82.9175 C.3       3 GLC5        0.0000 
     10 CA         94.7640   75.6400   81.9770 C.3       6 GLP5        0.0000 
     11 CA         90.1170   72.0590   81.8285 C.3       3 GLC5        0.0000 
     12 CA         90.8150   73.4120   83.2640 C.3       9 GLL5        0.0000 
     13 CA         89.4190   70.7060   80.3930 C.3       6 GLP5        0.0000 
     14 CA         91.9100   72.8280   81.5260 C.3       3 GLC5        0.0000 
     15 CA         93.0050   72.2440   79.7880 C.3       6 GLP5        0.0000 
     16 N          93.4585   70.8295   83.4825 N.am      1 SEC2        0.0000 
     17 N          92.4770   71.9670   83.9430 N.am      7 SEL2        0.0000 
     18 N          94.4400   69.6920   83.0220 N.am      4 SEP2        0.0000 
     19 CA         94.3950   72.4000   83.0295 C.3       3 GLC5        0.0000 
     20 CA         93.9620   73.5360   84.8830 C.3       9 GLL5        0.0000 
     21 CA         94.8280   71.2640   81.1760 C.3       6 GLP5        0.0000 
     22 CA         97.4175   70.5930   85.3095 C.3       3 GLC5        0.0000 
     23 CA         96.1540   71.4620   86.8070 C.3       9 GLL5        0.0000 
     24 CA         98.6810   69.7240   83.8120 C.3       6 GLP5        0.0000 
     25 CA         96.5905   70.3130   90.6010 C.3       3 GLC5        0.0000 
     26 CA         98.1090   71.2970   90.0580 C.3       9 GLL5        0.0000 
     27 CA         95.0720   69.3290   91.1440 C.3       6 GLP5        0.0000 
     28 CA         93.6370   76.9290   82.9768 C.3       3 GLC5        0.0000 
     29 CA         92.2710   78.0150   84.6760 C.3       9 GLL5        0.0000 
     30 CA         91.0399   77.9635   86.2804 C.3       3 GLC5        0.0000 
     31 CA         90.0260   77.0270   87.5730 C.3       6 GLP5        0.0000 
     32 CA         92.3217   74.4123   86.3442 C.3       3 GLC5        0.0000 
     33 CA         94.0410   74.8550   85.3060 C.3       9 GLL5        0.0000 
     34 CA         89.6257   73.2417   84.3345 C.3       3 GLC5        0.0000 
     35 CA         87.9340   72.7510   85.1080 C.3       6 GLP5        0.0000 
     36 CA         91.0383   74.4963   81.7160 C.3       3 GLC5        0.0000 
     37 CA         90.7590   75.2600   79.8710 C.3       6 GLP5        0.0000 
     38 CA         94.5364   74.9915   83.6233 C.3       3 GLC5        0.0000 
     39 CA         95.8613   70.6292   89.8298 C.3       3 GLC5        0.0000 
     40 CA         96.7750   71.4350   88.0450 C.3       9 GLL5        0.0000 
     41 CA         95.8145   70.1254   86.8099 C.3       3 GLC5        0.0000 
     42 CA         95.3790   68.5380   86.2580 C.3       6 GLP5        0.0000 
@<TRIPOS>BOND
@<TRIPOS>SUBSTRUCTURE
     1 SEC2       16 GROUP        1 X    SEC  0     ROOT SEC X 2
     2 ASC3        1 GROUP        1 X    ASC  0     **** ASC X 3
     3 GLC5        6 GROUP        1 X    GLC  0     **** GLC X 6
     4 SEP2       18 GROUP        1 Y    SEP  0     ROOT SEP Y 9
     5 ASP3        3 GROUP        1 Y    ASP  0     **** ASP Y 10
     6 GLP5        8 GROUP        1 Y    GLP  0     **** GLP Y 13
     7 SEL2       17 GROUP        1 Z    SEL  0     ROOT SEL Z 16
     8 ASL3        2 GROUP        1 Z    ASL  0     **** ASL Z 17
     9 GLL5        7 GROUP        1 Z    GLL  0     **** GLL Z 20
@<TRIPOS>SET

