#    Name: 3a2c_PDY_15_ligand
#    Modification time : Tue Mar 25 11:32:48 2014

@<TRIPOS>MOLECULE
3a2c_PDY_15_ligand
   52    55     1     0     0
SMALL
NO_CHARGES


@<TRIPOS>ATOM
      1 C25        92.2720   79.2340   85.6020 C.3       1 PDY1        0.0000 
      2 C26        91.4010   80.3360   84.9970 C.3       1 PDY1        0.0000 
      3 C23        91.9170   80.6710   83.5940 C.3       1 PDY1        0.0000 
      4 N12        91.8970   79.4860   82.7210 N.4       1 PDY1        0.0000 
      5 C22        92.7490   78.4210   83.2770 C.3       1 PDY1        0.0000 
      6 C15        92.2710   78.0150   84.6760 C.3       1 PDY1        0.0000 
      7 N10        93.2060   77.0210   85.2230 N.pl3     1 PDY1        0.0000 
      8 C4         93.0090   75.7310   84.9880 C.2       1 PDY1        0.0000 
      9 C3         94.0410   74.8550   85.3060 C.2       1 PDY1        0.0000 
     10 C14        95.2700   75.4450   86.0060 C.3       1 PDY1        0.0000 
     11 N6         91.9430   75.3180   84.2810 N.2       1 PDY1        0.0000 
     12 C5         91.8200   74.0530   83.8580 C.2       1 PDY1        0.0000 
     13 C8         90.8150   73.4120   83.2640 C.2       1 PDY1        0.0000 
     14 C11        91.1930   71.9320   83.2310 C.2       1 PDY1        0.0000 
     15 N7         92.4770   71.9670   83.9430 N.2       1 PDY1        0.0000 
     16 N2         92.8250   73.1250   84.1760 N.pl3     1 PDY1        0.0000 
     17 C1         93.9620   73.5360   84.8830 C.2       1 PDY1        0.0000 
     18 N9         94.6360   72.5140   85.4040 N.pl3     1 PDY1        0.0000 
     19 C13        95.2960   72.5190   86.5500 C.ar      1 PDY1        0.0000 
     20 C17        96.1540   71.4620   86.8070 C.ar      1 PDY1        0.0000 
     21 C20        96.7750   71.4350   88.0450 C.ar      1 PDY1        0.0000 
     22 C18        95.1090   73.5560   87.4540 C.ar      1 PDY1        0.0000 
     23 C19        95.7080   73.5060   88.7020 C.ar      1 PDY1        0.0000 
     24 C16        96.5260   72.4240   88.9860 C.ar      1 PDY1        0.0000 
     25 O21        97.1140   72.3200   90.2030 O.3       1 PDY1        0.0000 
     26 C24        98.1090   71.2970   90.0580 C.3       1 PDY1        0.0000 
     27 C27        99.3270   71.6540   90.9110 C.3       1 PDY1        0.0000 
     28 H          91.8739   78.9507   86.5682 H         1 PDY1        0.0000 
     29 H          93.2855   79.5978   85.7147 H         1 PDY1        0.0000 
     30 H          91.4544   81.2189   85.6185 H         1 PDY1        0.0000 
     31 H          90.3788   79.9907   84.9296 H         1 PDY1        0.0000 
     32 H          92.9364   81.0639   83.6884 H         1 PDY1        0.0000 
     33 H          91.2880   81.4673   83.1785 H         1 PDY1        0.0000 
     34 H          93.7875   78.7579   83.3540 H         1 PDY1        0.0000 
     35 H          92.7261   77.5340   82.6362 H         1 PDY1        0.0000 
     36 H          91.2899   77.6210   84.6134 H         1 PDY1        0.0000 
     37 H          93.9883   77.3893   85.7764 H         1 PDY1        0.0000 
     38 H          90.0075   73.6973   82.9060 H         1 PDY1        0.0000 
     39 H          90.7517   71.2889   82.8836 H         1 PDY1        0.0000 
     40 H          94.6430   71.5864   84.8297 H         1 PDY1        0.0000 
     41 H          96.3201   70.7398   86.1190 H         1 PDY1        0.0000 
     42 H          97.4326   70.6686   88.2718 H         1 PDY1        0.0000 
     43 H          94.5237   74.3632   87.1949 H         1 PDY1        0.0000 
     44 H          95.5528   74.2390   89.3874 H         1 PDY1        0.0000 
     45 H          98.4420   71.2010   89.0213 H         1 PDY1        0.0000 
     46 H          97.7396   70.3237   90.3913 H         1 PDY1        0.0000 
     47 H          95.9618   74.7474   86.1924 H         1 PDY1        0.0000 
     48 H          95.7089   76.1525   85.4521 H         1 PDY1        0.0000 
     49 H          95.0328   75.8640   86.8824 H         1 PDY1        0.0000 
     50 H         100.0483   70.9655   90.8351 H         1 PDY1        0.0000 
     51 H          99.7273   72.5291   90.6390 H         1 PDY1        0.0000 
     52 H          99.0928   71.7275   91.8804 H         1 PDY1        0.0000 
@<TRIPOS>BOND
     1    2    1 1    
     2    6    1 1    
     3   28    1 1    
     4   29    1 1    
     5    3    2 1    
     6   30    2 1    
     7   31    2 1    
     8    4    3 1    
     9   32    3 1    
    10   33    3 1    
    11    5    4 1    
    12    6    5 1    
    13   34    5 1    
    14   35    5 1    
    15    7    6 1    
    16   36    6 1    
    17    8    7 1    
    18   37    7 1    
    19    9    8 1    
    20   11    8 2    
    21   10    9 1    
    22   17    9 2    
    23   47   10 1    
    24   48   10 1    
    25   49   10 1    
    26   12   11 1    
    27   13   12 2    
    28   16   12 1    
    29   14   13 1    
    30   38   13 1    
    31   15   14 2    
    32   39   14 1    
    33   16   15 1    
    34   17   16 1    
    35   18   17 1    
    36   19   18 1    
    37   40   18 1    
    38   20   19 ar   
    39   22   19 ar   
    40   21   20 ar   
    41   41   20 1    
    42   24   21 ar   
    43   42   21 1    
    44   23   22 ar   
    45   43   22 1    
    46   24   23 ar   
    47   44   23 1    
    48   25   24 1    
    49   26   25 1    
    50   27   26 1    
    51   45   26 1    
    52   46   26 1    
    53   50   27 1    
    54   51   27 1    
    55   52   27 1    
@<TRIPOS>SUBSTRUCTURE
     1 PDY1        1 GROUP   
@<TRIPOS>SET

