#    Name: 4j1e_1HM_1_INTS_M
#    Modification time : Tue Mar 25 05:01:31 2014

@<TRIPOS>MOLECULE
4j1e_1HM_1_INTS_M
   64     0     6     0     0
SMALL
NO_CHARGES


@<TRIPOS>ATOM
      1 CA        -15.8255  -39.1330  -11.7990 C.3       2 GLC5        0.0000 
      2 CA        -16.2600  -39.7310  -10.0900 C.3       6 GLL5        0.0000 
      3 CA        -15.3910  -38.5350  -13.5080 C.3       4 GLP5        0.0000 
      4 CA        -15.9805  -40.1740   -5.4500 C.3       2 GLC5        0.0000 
      5 CA        -15.2620  -39.9600   -7.5490 C.3       6 GLL5        0.0000 
      6 CA        -16.6990  -40.3880   -3.3510 C.3       4 GLP5        0.0000 
      7 CA        -18.3775  -36.4785   -8.4835 C.3       2 GLC5        0.0000 
      8 CA        -16.8240  -37.2760   -9.2550 C.3       6 GLL5        0.0000 
      9 CA        -19.9310  -35.6810   -7.7120 C.3       4 GLP5        0.0000 
     10 O         -15.8610  -37.8765   -7.0320 O.2       1 ALC1        0.0000 
     11 O         -16.0390  -38.9300   -7.8270 O.2       5 ALL1        0.0000 
     12 O         -15.6830  -36.8230   -6.2370 O.2       3 ALP1        0.0000 
     13 CA        -17.6685  -40.0290   -5.3390 C.3       2 GLC5        0.0000 
     14 CA        -18.6380  -39.6700   -7.3270 C.3       6 GLL5        0.0000 
     15 CA        -18.4380  -37.8370  -11.9970 C.3       2 GLC5        0.0000 
     16 CA        -19.0980  -38.4810  -10.7620 C.3       6 GLL5        0.0000 
     17 CA        -17.7780  -37.1930  -13.2320 C.3       4 GLP5        0.0000 
     18 CA        -19.9640  -37.1675  -10.9130 C.3       2 GLC5        0.0000 
     19 CA        -20.8300  -35.8540  -11.0640 C.3       4 GLP5        0.0000 
     20 O         -14.5720  -38.9980   -5.5290 O.2       1 ALC1        0.0000 
     21 O         -14.4550  -40.0600   -6.4130 O.2       5 ALL1        0.0000 
     22 O         -14.6890  -37.9360   -4.6450 O.2       3 ALP1        0.0000 
     23 O         -15.0690  -38.4415   -6.3250 O.2       1 ALC1        0.0000 
     24 O         -13.7050  -41.1120   -5.8900 O.2       1 ALC1        0.0000 
     25 O         -12.9550  -42.1640   -5.3670 O.2       3 ALP1        0.0000 
     26 O         -18.8405  -41.1875   -5.4525 O.2       1 ALC1        0.0000 
     27 O         -20.1830  -40.5810   -5.8010 O.2       5 ALL1        0.0000 
     28 O         -17.4980  -41.7940   -5.1040 O.2       3 ALP1        0.0000 
     29 CA        -18.2400  -41.3090   -2.7435 C.3       2 GLC5        0.0000 
     30 CA        -19.7810  -42.2300   -2.1360 C.3       6 GLL5        0.0000 
     31 CA        -18.1605  -43.2075   -3.0500 C.3       2 GLC5        0.0000 
     32 CA        -16.5400  -44.1850   -3.9640 C.3       4 GLP5        0.0000 
     33 CA        -19.0605  -44.4470    0.8365 C.3       2 GLC5        0.0000 
     34 CA        -20.4660  -43.7460   -0.3510 C.3       6 GLL5        0.0000 
     35 CA        -17.6550  -45.1480    2.0240 C.3       4 GLP5        0.0000 
     36 CA        -14.8220  -40.0595  -12.1935 C.3       2 GLC5        0.0000 
     37 CA        -14.2530  -41.5840  -10.8790 C.3       6 GLL5        0.0000 
     38 CA        -16.4980  -41.3150  -13.1025 C.3       2 GLC5        0.0000 
     39 CA        -16.3650  -42.1530  -11.5690 C.3       6 GLL5        0.0000 
     40 CA        -16.6310  -40.4770  -14.6360 C.3       4 GLP5        0.0000 
     41 CA        -15.4350  -37.1025  -11.2860 C.3       2 GLC5        0.0000 
     42 CA        -15.4720  -36.9680   -9.6680 C.3       6 GLL5        0.0000 
     43 CA        -15.3980  -37.2370  -12.9040 C.3       4 GLP5        0.0000 
     44 CA        -16.7503  -37.3392  -10.9580 C.3       2 GLC5        0.0000 
     45 CA        -16.6320  -36.6350  -12.7960 C.3       4 GLP5        0.0000 
     46 CA        -14.6670  -36.2700   -8.8637 C.3       2 GLC5        0.0000 
     47 CA        -13.1860  -35.4180   -8.2660 C.3       4 GLP5        0.0000 
     48 CA        -19.6225  -37.7420   -7.4450 C.3       2 GLC5        0.0000 
     49 CA        -19.9900  -39.9360   -7.0290 C.3       6 GLL5        0.0000 
     50 CA        -20.2280  -38.6158   -5.8955 C.3       2 GLC5        0.0000 
     51 CA        -20.2580  -37.4620   -4.2140 C.3       4 GLP5        0.0000 
     52 CA        -20.4290  -37.5782   -8.1642 C.3       2 GLC5        0.0000 
     53 CA        -21.0820  -39.7360   -7.9760 C.3       6 GLL5        0.0000 
     54 CA        -19.4609  -37.2250   -8.8139 C.3       2 GLC5        0.0000 
     55 CA        -18.3370  -39.1850   -8.6060 C.3       6 GLL5        0.0000 
     56 CA        -19.4690  -45.0662   -1.4047 C.3       2 GLC5        0.0000 
     57 CA        -20.6940  -43.1190   -1.6220 C.3       6 GLL5        0.0000 
     58 CA        -18.3580  -46.7000   -1.8230 C.3       4 GLP5        0.0000 
     59 CA        -23.8548  -42.7180   -2.3455 C.3       2 GLC5        0.0000 
     60 CA        -21.8860  -43.4430   -2.3710 C.3       6 GLL5        0.0000 
     61 CA        -25.6890  -42.3220   -1.7150 C.3       4 GLP5        0.0000 
     62 CA        -22.1869  -41.9074   -1.5303 C.3       2 GLC5        0.0000 
     63 CA        -22.6030  -40.9270    0.0280 C.3       4 GLP5        0.0000 
     64 CA        -21.4774  -42.0686   -0.5435 C.3       2 GLC5        0.0000 
@<TRIPOS>BOND
@<TRIPOS>SUBSTRUCTURE
     1 ALC1       10 GROUP        1 X    ALC  0     ROOT ALC X 1
     2 GLC5        1 GROUP        1 X    GLC  0     **** GLC X 6
     3 ALP1       12 GROUP        1 Y    ALP  0     ROOT ALP Y 8
     4 GLP5        3 GROUP        1 Y    GLP  0     **** GLP Y 13
     5 ALL1       11 GROUP        1 Z    ALL  0     ROOT ALL Z 15
     6 GLL5        2 GROUP        1 Z    GLL  0     **** GLL Z 20
@<TRIPOS>SET

