#    Name: 4j1e_1HM_1_ligand
#    Modification time : Tue Mar 25 05:01:31 2014

@<TRIPOS>MOLECULE
4j1e_1HM_1_ligand
   46    48     1     0     0
SMALL
NO_CHARGES


@<TRIPOS>ATOM
      1 C1        -16.1320  -41.1170   -9.4690 C.3       1 1HM504      0.0000 
      2 C2        -16.2600  -39.7310  -10.0900 C.3       1 1HM504      0.0000 
      3 C4        -15.2620  -39.9600   -7.5490 C.2       1 1HM504      0.0000 
      4 C6        -16.9130  -38.8110   -8.9850 C.3       1 1HM504      0.0000 
      5 C12       -19.4300  -38.9290   -9.5330 C.ar      1 1HM504      0.0000 
      6 C15       -16.8240  -37.2760   -9.2550 C.3       1 1HM504      0.0000 
      7 C17       -21.3020  -41.2030   -5.3160 C.2       1 1HM504      0.0000 
      8 C18       -21.1560  -41.8800   -4.0310 C.ar      1 1HM504      0.0000 
      9 O3        -15.2530  -41.0500   -8.2990 O.3       1 1HM504      0.0000 
     10 N5        -16.0390  -38.9300   -7.8270 N.pl3     1 1HM504      0.0000 
     11 C7        -18.3370  -39.1850   -8.6060 C.ar      1 1HM504      0.0000 
     12 C8        -18.6380  -39.6700   -7.3270 C.ar      1 1HM504      0.0000 
     13 C9        -19.9900  -39.9360   -7.0290 C.ar      1 1HM504      0.0000 
     14 C10       -21.0820  -39.7360   -7.9760 C.ar      1 1HM504      0.0000 
     15 C11       -20.7720  -39.2150   -9.2570 C.ar      1 1HM504      0.0000 
     16 F13       -19.0980  -38.4810  -10.7620 F         1 1HM504      0.0000 
     17 N14       -14.4550  -40.0600   -6.4130 N.pl3     1 1HM504      0.0000 
     18 N16       -20.1830  -40.5810   -5.8010 N.am      1 1HM504      0.0000 
     19 O19       -22.3570  -41.2570   -5.9370 O.2       1 1HM504      0.0000 
     20 N20       -20.0690  -41.5830   -3.2800 N.ar      1 1HM504      0.0000 
     21 C21       -19.7810  -42.2300   -2.1360 C.ar      1 1HM504      0.0000 
     22 C22       -20.6940  -43.1190   -1.6220 C.ar      1 1HM504      0.0000 
     23 C23       -21.8860  -43.4430   -2.3710 C.ar      1 1HM504      0.0000 
     24 C24       -22.1550  -42.7850   -3.5810 C.ar      1 1HM504      0.0000 
     25 C25       -20.4660  -43.7460   -0.3510 C.1       1 1HM504      0.0000 
     26 N26       -20.2930  -44.2550    0.6620 N.1       1 1HM504      0.0000 
     27 C27       -15.4650  -42.0660  -10.5340 C.3       1 1HM504      0.0000 
     28 F28       -14.2530  -41.5840  -10.8790 F         1 1HM504      0.0000 
     29 F29       -15.3230  -43.2360   -9.8920 F         1 1HM504      0.0000 
     30 F30       -16.3650  -42.1530  -11.5690 F         1 1HM504      0.0000 
     31 F31       -15.4720  -36.9680   -9.6680 F         1 1HM504      0.0000 
     32 H         -17.0817  -41.5002   -9.2351 H         1 1HM504      0.0000 
     33 H         -16.9118  -39.7573  -10.9315 H         1 1HM504      0.0000 
     34 H         -15.2995  -39.3379  -10.3278 H         1 1HM504      0.0000 
     35 H         -17.0934  -36.7690   -8.3354 H         1 1HM504      0.0000 
     36 H         -17.5482  -37.0401  -10.0264 H         1 1HM504      0.0000 
     37 H         -16.0664  -38.0797   -7.1749 H         1 1HM504      0.0000 
     38 H         -17.9170  -39.8247   -6.6412 H         1 1HM504      0.0000 
     39 H         -22.0179  -39.9664   -7.7097 H         1 1HM504      0.0000 
     40 H         -21.4958  -39.0594   -9.9371 H         1 1HM504      0.0000 
     41 H         -14.4580  -39.2698   -5.8002 H         1 1HM504      0.0000 
     42 H         -13.9437  -40.9132   -6.3102 H         1 1HM504      0.0000 
     43 H         -19.3068  -40.5820   -5.1423 H         1 1HM504      0.0000 
     44 H         -18.8890  -42.0697   -1.6407 H         1 1HM504      0.0000 
     45 H         -22.5190  -44.1508   -2.0059 H         1 1HM504      0.0000 
     46 H         -22.9889  -42.9364   -4.0971 H         1 1HM504      0.0000 
@<TRIPOS>BOND
     1    2    1 1    
     2    9    1 1    
     3   27    1 1    
     4   32    1 1    
     5    4    2 1    
     6   33    2 1    
     7   34    2 1    
     8    9    3 1    
     9   10    3 1    
    10   17    3 2    
    11    6    4 1    
    12   10    4 1    
    13   11    4 1    
    14   11    5 ar   
    15   15    5 ar   
    16   16    5 1    
    17   31    6 1    
    18   35    6 1    
    19   36    6 1    
    20    8    7 1    
    21   18    7 am   
    22   19    7 2    
    23   20    8 ar   
    24   24    8 ar   
    25   37   10 1    
    26   12   11 ar   
    27   13   12 ar   
    28   38   12 1    
    29   14   13 ar   
    30   18   13 1    
    31   15   14 ar   
    32   39   14 1    
    33   40   15 1    
    34   41   17 1    
    35   42   17 1    
    36   43   18 1    
    37   21   20 ar   
    38   22   21 ar   
    39   44   21 1    
    40   23   22 ar   
    41   25   22 1    
    42   24   23 ar   
    43   45   23 1    
    44   46   24 1    
    45   26   25 3    
    46   28   27 1    
    47   29   27 1    
    48   30   27 1    
@<TRIPOS>SUBSTRUCTURE
     1 1HM504      1 GROUP   
@<TRIPOS>SET

