#    Name: 3oh0_UTP_1_INTS_M
#    Modification time : Tue Mar 25 04:36:46 2014

@<TRIPOS>MOLECULE
3oh0_UTP_1_INTS_M
   37     0    12     0     0
SMALL
NO_CHARGES


@<TRIPOS>ATOM
      1 NZ          6.7900    7.5495   24.7420 N.4       3 LYC4        0.0000 
      2 NZ          6.6720    8.4720   26.0280 N.4      11 LYL4        0.0000 
      3 NZ          6.9080    6.6270   23.4560 N.4       7 LYP4        0.0000 
      4 CA         12.9160    8.8920   29.4350 C.3       4 GLC5        0.0000 
      5 CA         11.7980    8.1030   27.6530 C.3      12 GLL5        0.0000 
      6 CA         14.0340    9.6810   31.2170 C.3       8 GLP5        0.0000 
      7 CA         11.7390    5.0285   28.0065 C.3       4 GLC5        0.0000 
      8 CA         11.0940    7.0740   28.5860 C.3      12 GLL5        0.0000 
      9 CA         12.3840    2.9830   27.4270 C.3       8 GLP5        0.0000 
     10 CA         11.5580    8.5545   32.0640 C.3       4 GLC5        0.0000 
     11 CA         10.0980    7.9760   30.5820 C.3      12 GLL5        0.0000 
     12 CA         13.0180    9.1330   33.5460 C.3       8 GLP5        0.0000 
     13 N           6.9520    7.3010   31.4555 N.am      2 SEC2        0.0000 
     14 N           7.8220    7.2850   30.1870 N.am     10 SEL2        0.0000 
     15 N           6.0820    7.3170   32.7240 N.am      6 SEP2        0.0000 
     16 CA          8.4285    4.8630   28.6890 C.3       4 GLC5        0.0000 
     17 CA          9.7490    6.4370   29.0310 C.3      12 GLL5        0.0000 
     18 CA          7.1080    3.2890   28.3470 C.3       8 GLP5        0.0000 
     19 N           9.7315    4.0375   29.0335 N.am      2 SEC2        0.0000 
     20 N           9.9770    5.4430   30.0160 N.am     10 SEL2        0.0000 
     21 N           9.4860    2.6320   28.0510 N.am      6 SEP2        0.0000 
     22 CA         12.1015   10.0650   31.0605 C.3       4 GLC5        0.0000 
     23 CA         10.1690   10.4490   30.9040 C.3      12 GLL5        0.0000 
     24 N           7.5685    7.6835   32.9930 N.am      2 SEC2        0.0000 
     25 N           9.0550    8.0500   33.2620 N.am     10 SEL2        0.0000 
     26 O           8.4480   10.2940   34.6825 O.2       1 ALC1        0.0000 
     27 O           9.1600   10.3010   33.4800 O.2       9 ALL1        0.0000 
     28 O           7.7360   10.2870   35.8850 O.2       5 ALP1        0.0000 
     29 N           9.2085   12.1860   35.2180 N.am      2 SEC2        0.0000 
     30 N           9.3090   12.5800   33.6050 N.am     10 SEL2        0.0000 
     31 N           9.1080   11.7920   36.8310 N.am      6 SEP2        0.0000 
     32 CA         11.0640   12.7290   33.0265 C.3       4 GLC5        0.0000 
     33 CA          9.9790   11.6130   31.6470 C.3      12 GLL5        0.0000 
     34 CA         12.1490   13.8450   34.4060 C.3       8 GLP5        0.0000 
     35 CA         11.4985   10.3730   32.5965 C.3       4 GLC5        0.0000 
     36 CA         10.4531    6.6659   31.1366 C.3       4 GLC5        0.0000 
     37 CA         10.9130    6.0430   32.8370 C.3       8 GLP5        0.0000 
@<TRIPOS>BOND
@<TRIPOS>SUBSTRUCTURE
     1 ALC1       26 GROUP        1 X    ALC  0     ROOT ALC X 1
     2 SEC2       13 GROUP        1 X    SEC  0     **** SEC X 2
     3 LYC4        1 GROUP        1 X    LYC  0     **** LYC X 4
     4 GLC5        4 GROUP        1 X    GLC  0     **** GLC X 6
     5 ALP1       28 GROUP        1 Y    ALP  0     ROOT ALP Y 8
     6 SEP2       15 GROUP        1 Y    SEP  0     **** SEP Y 9
     7 LYP4        3 GROUP        1 Y    LYP  0     **** LYP Y 11
     8 GLP5        6 GROUP        1 Y    GLP  0     **** GLP Y 13
     9 ALL1       27 GROUP        1 Z    ALL  0     ROOT ALL Z 15
    10 SEL2       14 GROUP        1 Z    SEL  0     **** SEL Z 16
    11 LYL4        2 GROUP        1 Z    LYL  0     **** LYL Z 18
    12 GLL5        5 GROUP        1 Z    GLL  0     **** GLL Z 20
@<TRIPOS>SET

