#    Name: 3oh0_UTP_1_ligand
#    Modification time : Tue Mar 25 04:36:46 2014

@<TRIPOS>MOLECULE
3oh0_UTP_1_ligand
   40    41     1     0     0
SMALL
NO_CHARGES


@<TRIPOS>ATOM
      1 PA         11.8080   10.6350   26.9770 P.3       1 UTP642      0.0000 
      2 O1A        11.9310   11.8300   27.8400 O.co2     1 UTP642      0.0000 
      3 O2A        12.9680   10.1760   26.1830 O.co2     1 UTP642      0.0000 
      4 O3A        10.5500   10.8260   25.9940 O.3       1 UTP642      0.0000 
      5 O5'        11.3020    9.4220   27.8860 O.3       1 UTP642      0.0000 
      6 PB          9.2300   11.6090   26.4990 P.3       1 UTP642      0.0000 
      7 O1B         9.1410   12.8860   25.7610 O.co2     1 UTP642      0.0000 
      8 O2B         9.2290   11.6180   27.9780 O.co2     1 UTP642      0.0000 
      9 O3B         8.0610   10.6430   25.9880 O.3       1 UTP642      0.0000 
     10 PG          7.8880    9.2350   26.7230 P.3       1 UTP642      0.0000 
     11 O1G         9.1090    8.3980   26.6990 O.co2     1 UTP642      0.0000 
     12 O2G         7.3670    9.5640   28.2220 O.co2     1 UTP642      0.0000 
     13 O3G         6.6720    8.4720   26.0280 O.co2     1 UTP642      0.0000 
     14 C5'        11.7980    8.1030   27.6530 C.3       1 UTP642      0.0000 
     15 C4'        11.0940    7.0740   28.5860 C.3       1 UTP642      0.0000 
     16 O4'        10.8740    8.3410   29.4100 O.3       1 UTP642      0.0000 
     17 C1'        10.0980    7.9760   30.5820 C.3       1 UTP642      0.0000 
     18 C2'         9.0320    7.6680   29.5460 C.3       1 UTP642      0.0000 
     19 O2'         7.8220    7.2850   30.1870 O.3       1 UTP642      0.0000 
     20 C3'         9.7490    6.4370   29.0310 C.3       1 UTP642      0.0000 
     21 O3'         9.9770    5.4430   30.0160 O.3       1 UTP642      0.0000 
     22 N1          9.8560    9.1920   31.4280 N.am      1 UTP642      0.0000 
     23 C6         10.1690   10.4490   30.9040 C.2       1 UTP642      0.0000 
     24 C2          9.3480    9.1250   32.7400 C.2       1 UTP642      0.0000 
     25 O2          9.0550    8.0500   33.2620 O.2       1 UTP642      0.0000 
     26 N3          9.1600   10.3010   33.4800 N.am      1 UTP642      0.0000 
     27 C4          9.4760   11.5510   32.9420 C.2       1 UTP642      0.0000 
     28 O4          9.3090   12.5800   33.6050 O.2       1 UTP642      0.0000 
     29 C5          9.9790   11.6130   31.6470 C.2       1 UTP642      0.0000 
     30 H          12.8757    8.0264   27.8477 H         1 UTP642      0.0000 
     31 H          11.6224    7.7718   26.6212 H         1 UTP642      0.0000 
     32 H          11.9237    6.6757   29.2524 H         1 UTP642      0.0000 
     33 H          10.4353    7.1487   30.9889 H         1 UTP642      0.0000 
     34 H           9.0135    8.3800   28.8428 H         1 UTP642      0.0000 
     35 H           9.2666    6.1043   28.1531 H         1 UTP642      0.0000 
     36 H          10.5503   10.5157   29.9427 H         1 UTP642      0.0000 
     37 H           8.7812   10.2398   34.4393 H         1 UTP642      0.0000 
     38 H          10.2140   12.5275   31.2314 H         1 UTP642      0.0000 
     39 H           7.1527    7.9740   29.9089 H         1 UTP642      0.0000 
     40 H           9.0955    4.9848   30.1299 H         1 UTP642      0.0000 
@<TRIPOS>BOND
     1    2    1 ar   
     2    3    1 ar   
     3    4    1 1    
     4    5    1 1    
     5    6    4 1    
     6   14    5 1    
     7    7    6 ar   
     8    8    6 ar   
     9    9    6 1    
    10   10    9 1    
    11   11   10 ar   
    12   12   10 ar   
    13   13   10 ar   
    14   15   14 1    
    15   30   14 1    
    16   31   14 1    
    17   16   15 1    
    18   20   15 1    
    19   32   15 1    
    20   17   16 1    
    21   18   17 1    
    22   22   17 1    
    23   33   17 1    
    24   19   18 1    
    25   20   18 1    
    26   34   18 1    
    27   39   19 1    
    28   21   20 1    
    29   35   20 1    
    30   40   21 1    
    31   23   22 1    
    32   24   22 1    
    33   29   23 2    
    34   36   23 1    
    35   25   24 2    
    36   26   24 1    
    37   27   26 1    
    38   37   26 1    
    39   28   27 2    
    40   29   27 1    
    41   38   29 1    
@<TRIPOS>SUBSTRUCTURE
     1 UTP642      1 GROUP   
@<TRIPOS>SET

