#    Name: 3mdm_FJZ_1_INTS_M
#    Modification time : Mon Mar 24 23:02:20 2014

@<TRIPOS>MOLECULE
3mdm_FJZ_1_INTS_M
   50     0     6     0     0
SMALL
NO_CHARGES


@<TRIPOS>ATOM
      1 CA        -25.1265   -0.8770  -14.4835 C.3       2 GLC5        0.0000 
      2 CA        -23.5590   -0.2600  -13.3940 C.3       6 GLL5        0.0000 
      3 CA        -26.6940   -1.4940  -15.5730 C.3       4 GLP5        0.0000 
      4 CA        -22.4720   -1.8320  -13.2080 C.3       2 GLC5        0.0000 
      5 CA        -21.3850   -3.4040  -13.0220 C.3       4 GLP5        0.0000 
      6 O         -26.3440   -0.4375   -6.4635 O.2       1 ALC1        0.0000 
      7 O         -27.2250    0.4730   -7.1020 O.2       5 ALL1        0.0000 
      8 O         -25.4630   -1.3480   -5.8250 O.2       3 ALP1        0.0000 
      9 CA        -27.2645    1.3180  -13.4255 C.3       2 GLC5        0.0000 
     10 CA        -26.6500    1.9810  -11.9350 C.3       6 GLL5        0.0000 
     11 CA        -27.8790    0.6550  -14.9160 C.3       4 GLP5        0.0000 
     12 CA        -26.7800    0.1960  -13.0540 C.3       2 GLC5        0.0000 
     13 CA        -25.6810   -0.2630  -11.1920 C.3       6 GLL5        0.0000 
     14 CA        -26.2500    0.8915  -13.9330 C.3       2 GLC5        0.0000 
     15 CA        -24.6210    1.1280  -12.9500 C.3       6 GLL5        0.0000 
     16 CA        -25.8160    0.8365  -16.0690 C.3       2 GLC5        0.0000 
     17 CA        -24.1440    1.9550  -16.0500 C.3       6 GLL5        0.0000 
     18 CA        -27.4880   -0.2820  -16.0880 C.3       4 GLP5        0.0000 
     19 CA        -22.5525    5.2425  -16.4145 C.3       2 GLC5        0.0000 
     20 CA        -22.9950    3.8690  -14.8110 C.3       6 GLL5        0.0000 
     21 CA        -22.1100    6.6160  -18.0180 C.3       4 GLP5        0.0000 
     22 CA        -26.9215    3.7070  -16.5595 C.3       2 GLC5        0.0000 
     23 CA        -25.3140    2.8520  -16.5270 C.3       6 GLL5        0.0000 
     24 CA        -28.5290    4.5620  -16.5920 C.3       4 GLP5        0.0000 
     25 CA        -26.5965    1.7535  -15.7215 C.3       2 GLC5        0.0000 
     26 CA        -25.7510    5.6845  -15.6520 C.3       2 GLC5        0.0000 
     27 CA        -24.0810    4.7860  -15.4060 C.3       6 GLL5        0.0000 
     28 CA        -27.4210    6.5830  -15.8980 C.3       4 GLP5        0.0000 
     29 CA        -23.9175    6.8345  -14.5385 C.3       2 GLC5        0.0000 
     30 CA        -23.7540    8.8830  -13.6710 C.3       4 GLP5        0.0000 
     31 CA        -26.3080    4.8105  -16.1475 C.3       2 GLC5        0.0000 
     32 CA        -24.7210    4.2890  -16.7060 C.3       6 GLL5        0.0000 
     33 CA        -27.8950    5.3320  -15.5890 C.3       4 GLP5        0.0000 
     34 CA        -29.2462    0.4555   -7.5315 C.3       2 GLC5        0.0000 
     35 CA        -27.5370    1.2580   -8.2070 C.3       6 GLL5        0.0000 
     36 CA        -30.5930   -0.8760   -7.1310 C.3       4 GLP5        0.0000 
     37 CA        -28.5652    2.5147  -11.8825 C.3       2 GLC5        0.0000 
     38 CA        -26.9590    2.3080  -10.4230 C.3       6 GLL5        0.0000 
     39 CA        -30.3260    2.8850  -12.5860 C.3       4 GLP5        0.0000 
     40 CA        -24.2740   -0.5360   -9.6675 C.3       2 GLC5        0.0000 
     41 CA        -22.7420   -0.9850   -8.8830 C.3       4 GLP5        0.0000 
     42 CA        -21.2535    2.8363  -14.8110 C.3       2 GLC5        0.0000 
     43 CA        -23.5010    2.4060  -14.7330 C.3       6 GLL5        0.0000 
     44 CA        -19.2590    2.5350  -14.8500 C.3       4 GLP5        0.0000 
     45 CA        -22.2614    2.7414  -16.8181 C.3       2 GLC5        0.0000 
     46 CA        -21.1140    2.4580  -18.5350 C.3       4 GLP5        0.0000 
     47 CA        -23.5293    3.2032  -18.0588 C.3       2 GLC5        0.0000 
     48 CA        -22.0410    2.8360  -19.5010 C.3       4 GLP5        0.0000 
     49 CA        -23.8095    5.9768  -16.9805 C.3       2 GLC5        0.0000 
     50 CA        -23.2180    7.4160  -17.9050 C.3       4 GLP5        0.0000 
@<TRIPOS>BOND
@<TRIPOS>SUBSTRUCTURE
     1 ALC1        6 GROUP        1 X    ALC  0     ROOT ALC X 1
     2 GLC5        1 GROUP        1 X    GLC  0     **** GLC X 6
     3 ALP1        8 GROUP        1 Y    ALP  0     ROOT ALP Y 8
     4 GLP5        3 GROUP        1 Y    GLP  0     **** GLP Y 13
     5 ALL1        7 GROUP        1 Z    ALL  0     ROOT ALL Z 15
     6 GLL5        2 GROUP        1 Z    GLL  0     **** GLL Z 20
@<TRIPOS>SET

