#    Name: 3mdm_FJZ_1_ligand
#    Modification time : Mon Mar 24 23:02:20 2014

@<TRIPOS>MOLECULE
3mdm_FJZ_1_ligand
   44    46     1     0     0
SMALL
NO_CHARGES


@<TRIPOS>ATOM
      1 C1        -28.2620    2.3160   -7.6570 C.2       1 FJZ506      0.0000 
      2 N1        -28.3640    2.1790   -6.3000 N.2       1 FJZ506      0.0000 
      3 S1        -23.5590   -0.2600  -13.3940 S.2       1 FJZ506      0.0000 
      4 C2        -27.7240    1.0530   -5.9770 C.2       1 FJZ506      0.0000 
      5 N2        -27.2250    0.4730   -7.1020 N.pl3     1 FJZ506      0.0000 
      6 C3        -27.5370    1.2580   -8.2070 C.2       1 FJZ506      0.0000 
      7 N3        -25.5210    1.0050  -11.9900 N.am      1 FJZ506      0.0000 
      8 C4        -27.2040    0.9960   -9.6410 C.3       1 FJZ506      0.0000 
      9 N4        -24.4580    2.2280  -13.6280 N.am      1 FJZ506      0.0000 
     10 C5        -26.9590    2.3080  -10.4230 C.3       1 FJZ506      0.0000 
     11 C6        -25.9310    0.0890   -9.7120 C.3       1 FJZ506      0.0000 
     12 C7        -26.6500    1.9810  -11.9350 C.3       1 FJZ506      0.0000 
     13 C8        -25.6810   -0.2630  -11.1920 C.3       1 FJZ506      0.0000 
     14 C9        -24.6210    1.1280  -12.9500 C.2       1 FJZ506      0.0000 
     15 C10       -23.5010    2.4060  -14.7330 C.3       1 FJZ506      0.0000 
     16 C11       -24.1440    1.9550  -16.0500 C.3       1 FJZ506      0.0000 
     17 C12       -22.9950    3.8690  -14.8110 C.3       1 FJZ506      0.0000 
     18 C13       -25.3140    2.8520  -16.5270 C.3       1 FJZ506      0.0000 
     19 C14       -24.0810    4.7860  -15.4060 C.3       1 FJZ506      0.0000 
     20 C15       -24.7210    4.2890  -16.7060 C.3       1 FJZ506      0.0000 
     21 H         -28.6358    3.0413   -8.1784 H         1 FJZ506      0.0000 
     22 H         -27.6219    0.6901   -5.0790 H         1 FJZ506      0.0000 
     23 H         -26.7306   -0.3519   -7.1447 H         1 FJZ506      0.0000 
     24 H         -28.0087    0.4578  -10.1147 H         1 FJZ506      0.0000 
     25 H         -25.0294    3.1050  -13.4185 H         1 FJZ506      0.0000 
     26 H         -26.1116    2.8261  -10.0060 H         1 FJZ506      0.0000 
     27 H         -27.8406    2.9255  -10.3809 H         1 FJZ506      0.0000 
     28 H         -26.1125   -0.8061   -9.1525 H         1 FJZ506      0.0000 
     29 H         -25.0954    0.6348   -9.3234 H         1 FJZ506      0.0000 
     30 H         -27.5445    1.5646  -12.3699 H         1 FJZ506      0.0000 
     31 H         -26.3877    2.9058  -12.4235 H         1 FJZ506      0.0000 
     32 H         -24.7804   -0.8624  -11.2597 H         1 FJZ506      0.0000 
     33 H         -26.5262   -0.8322  -11.5617 H         1 FJZ506      0.0000 
     34 H         -22.6285    1.7673  -14.5586 H         1 FJZ506      0.0000 
     35 H         -24.5180    0.9262  -15.9346 H         1 FJZ506      0.0000 
     36 H         -23.3757    1.9357  -16.8380 H         1 FJZ506      0.0000 
     37 H         -22.1127    3.9035  -15.4393 H         1 FJZ506      0.0000 
     38 H         -22.7457    4.2092  -13.8127 H         1 FJZ506      0.0000 
     39 H         -26.0717    2.8793  -15.7811 H         1 FJZ506      0.0000 
     40 H         -25.6720    2.5044  -17.4663 H         1 FJZ506      0.0000 
     41 H         -23.6385    5.7849  -15.5841 H         1 FJZ506      0.0000 
     42 H         -24.8750    4.9281  -14.6478 H         1 FJZ506      0.0000 
     43 H         -25.5245    4.9577  -16.9979 H         1 FJZ506      0.0000 
     44 H         -23.9743    4.2563  -17.4929 H         1 FJZ506      0.0000 
@<TRIPOS>BOND
     1    2    1 1    
     2    6    1 2    
     3   21    1 1    
     4    4    2 2    
     5   14    3 2    
     6    5    4 1    
     7   22    4 1    
     8    6    5 1    
     9   23    5 1    
    10    8    6 1    
    11   12    7 1    
    12   13    7 1    
    13   14    7 am   
    14   10    8 1    
    15   11    8 1    
    16   24    8 1    
    17   14    9 am   
    18   15    9 1    
    19   25    9 1    
    20   12   10 1    
    21   26   10 1    
    22   27   10 1    
    23   13   11 1    
    24   28   11 1    
    25   29   11 1    
    26   30   12 1    
    27   31   12 1    
    28   32   13 1    
    29   33   13 1    
    30   16   15 1    
    31   17   15 1    
    32   34   15 1    
    33   18   16 1    
    34   35   16 1    
    35   36   16 1    
    36   19   17 1    
    37   37   17 1    
    38   38   17 1    
    39   20   18 1    
    40   39   18 1    
    41   40   18 1    
    42   20   19 1    
    43   41   19 1    
    44   42   19 1    
    45   43   20 1    
    46   44   20 1    
@<TRIPOS>SUBSTRUCTURE
     1 FJZ506      1 GROUP   
@<TRIPOS>SET

