#    Name: 4g1n_NZT_2_INTS_M
#    Modification time : Mon Mar 24 21:12:16 2014

@<TRIPOS>MOLECULE
4g1n_NZT_2_INTS_M
   65     0     9     0     0
SMALL
NO_CHARGES


@<TRIPOS>ATOM
      1 CA        -18.1225   -6.7105   29.8245 C.3       3 GLC5        0.0000 
      2 CA        -17.0160   -7.1510   28.3810 C.3       9 GLL5        0.0000 
      3 CA        -19.2290   -6.2700   31.2680 C.3       6 GLP5        0.0000 
      4 CA        -14.0195   -9.8670   27.3670 C.3       3 GLC5        0.0000 
      5 CA        -14.9470   -8.0340   27.5120 C.3       9 GLL5        0.0000 
      6 CA        -13.0920  -11.7000   27.2220 C.3       6 GLP5        0.0000 
      7 CA        -12.7025   -8.8255   24.4795 C.3       3 GLC5        0.0000 
      8 CA        -14.5380   -7.9720   25.1180 C.3       9 GLL5        0.0000 
      9 CA        -10.8670   -9.6790   23.8410 C.3       6 GLP5        0.0000 
     10 CA        -13.0050   -7.5275   22.8315 C.3       3 GLC5        0.0000 
     11 CA        -14.9450   -7.6330   23.8270 C.3       9 GLL5        0.0000 
     12 CA        -11.0650   -7.4220   21.8360 C.3       6 GLP5        0.0000 
     13 N         -20.0455   -5.2340   29.0015 N.am      2 SEC2        0.0000 
     14 N         -19.7690   -5.9350   28.0720 N.am      8 SEL2        0.0000 
     15 N         -20.3220   -4.5330   29.9310 N.am      5 SEP2        0.0000 
     16 O         -19.8015   -6.7725   24.2600 O.2       1 ALC1        0.0000 
     17 O         -19.7740   -6.8360   25.6820 O.2       7 ALL1        0.0000 
     18 O         -19.8290   -6.7090   22.8380 O.2       4 ALP1        0.0000 
     19 CA        -22.5420   -6.8270   26.1810 C.3       3 GLC5        0.0000 
     20 CA        -21.4360   -7.9640   27.0450 C.3       9 GLL5        0.0000 
     21 CA        -23.6480   -5.6900   25.3170 C.3       6 GLP5        0.0000 
     22 CA        -22.9820  -10.1760   28.8790 C.3       3 GLC5        0.0000 
     23 CA        -22.1980   -9.1240   27.2830 C.3       9 GLL5        0.0000 
     24 CA        -23.7660  -11.2280   30.4750 C.3       6 GLP5        0.0000 
     25 N         -24.9220  -11.5120   25.6410 N.am      2 SEC2        0.0000 
     26 N         -23.9600  -11.3710   26.4590 N.am      8 SEL2        0.0000 
     27 N         -25.8840  -11.6530   24.8230 N.am      5 SEP2        0.0000 
     28 CA        -19.6535  -11.2655   28.1525 C.3       3 GLC5        0.0000 
     29 CA        -20.6470  -12.6650   27.1600 C.3       9 GLL5        0.0000 
     30 CA        -18.6600   -9.8660   29.1450 C.3       6 GLP5        0.0000 
     31 CA        -20.1030  -11.4900   29.2965 C.3       3 GLC5        0.0000 
     32 CA        -20.4420  -13.0010   28.6250 C.3       9 GLL5        0.0000 
     33 CA        -19.7640   -9.9790   29.9680 C.3       6 GLP5        0.0000 
     34 CA        -22.1040  -12.1145   29.5500 C.3       3 GLC5        0.0000 
     35 CA        -21.5095  -14.7095   33.0280 C.3       3 GLC5        0.0000 
     36 CA        -21.2500  -15.3550   31.0550 C.3       9 GLL5        0.0000 
     37 CA        -21.7690  -14.0640   35.0010 C.3       6 GLP5        0.0000 
     38 CA        -22.5805  -13.9480   31.3775 C.3       3 GLC5        0.0000 
     39 CA        -23.9110  -12.5410   31.7000 C.3       6 GLP5        0.0000 
     40 CA        -16.0830   -5.2112   27.9365 C.3       3 GLC5        0.0000 
     41 CA        -14.9450   -3.4420   28.1360 C.3       6 GLP5        0.0000 
     42 CA        -14.3135   -8.1110   29.7523 C.3       3 GLC5        0.0000 
     43 CA        -15.7810   -7.7600   28.5950 C.3       9 GLL5        0.0000 
     44 CA        -13.2630   -8.3250   31.4510 C.3       6 GLP5        0.0000 
     45 CA        -14.5595   -6.0375   28.4202 C.3       3 GLC5        0.0000 
     46 CA        -13.7550   -4.1780   28.7870 C.3       6 GLP5        0.0000 
     47 CA        -14.8295   -5.5608   24.7413 C.3       3 GLC5        0.0000 
     48 CA        -14.0940   -3.7980   25.7470 C.3       6 GLP5        0.0000 
     49 CA        -14.9366   -5.6275   25.7921 C.3       3 GLC5        0.0000 
     50 CA        -15.3630   -7.6980   26.2150 C.3       9 GLL5        0.0000 
     51 CA        -23.5505   -8.6975   25.7808 C.3       3 GLC5        0.0000 
     52 CA        -24.9940   -7.7120   24.6970 C.3       6 GLP5        0.0000 
     53 CA        -21.8492   -8.2203   24.4170 C.3       3 GLC5        0.0000 
     54 CA        -21.1020  -10.1840   25.3880 C.3       9 GLL5        0.0000 
     55 CA        -22.9330   -7.1120   23.3500 C.3       6 GLP5        0.0000 
     56 CA        -24.0155  -15.4478   27.1705 C.3       3 GLC5        0.0000 
     57 CA        -22.8790  -13.8340   27.1190 C.3       9 GLL5        0.0000 
     58 CA        -25.2490  -16.8180   26.5000 C.3       6 GLP5        0.0000 
     59 CA        -23.9620  -12.8697   28.6260 C.3       3 GLC5        0.0000 
     60 CA        -25.1420  -11.6620   29.4110 C.3       6 GLP5        0.0000 
     61 CA        -18.4582  -13.1295   27.8342 C.3       3 GLC5        0.0000 
     62 CA        -16.3720  -13.4260   27.7760 C.3       6 GLP5        0.0000 
     63 CA        -19.4783  -18.3460   31.3435 C.3       3 GLC5        0.0000 
     64 CA        -18.9220  -16.6540   30.1760 C.3       9 GLL5        0.0000 
     65 CA        -19.7640  -19.8920   31.8850 C.3       6 GLP5        0.0000 
@<TRIPOS>BOND
@<TRIPOS>SUBSTRUCTURE
     1 ALC1       16 GROUP        1 X    ALC  0     ROOT ALC X 1
     2 SEC2       13 GROUP        1 X    SEC  0     **** SEC X 2
     3 GLC5        1 GROUP        1 X    GLC  0     **** GLC X 6
     4 ALP1       18 GROUP        1 Y    ALP  0     ROOT ALP Y 8
     5 SEP2       15 GROUP        1 Y    SEP  0     **** SEP Y 9
     6 GLP5        3 GROUP        1 Y    GLP  0     **** GLP Y 13
     7 ALL1       17 GROUP        1 Z    ALL  0     ROOT ALL Z 15
     8 SEL2       14 GROUP        1 Z    SEL  0     **** SEL Z 16
     9 GLL5        2 GROUP        1 Z    GLL  0     **** GLL Z 20
@<TRIPOS>SET

