#    Name: 4g1n_NZT_2_ligand
#    Modification time : Mon Mar 24 21:12:16 2014

@<TRIPOS>MOLECULE
4g1n_NZT_2_ligand
   56    60     1     0     0
SMALL
NO_CHARGES


@<TRIPOS>ATOM
      1 CAI       -17.0160   -7.1510   28.3810 C.ar      1 NZT603      0.0000 
      2 CAE       -15.7810   -7.7600   28.5950 C.ar      1 NZT603      0.0000 
      3 CAO       -14.9470   -8.0340   27.5120 C.ar      1 NZT603      0.0000 
      4 CBD       -15.3630   -7.6980   26.2150 C.ar      1 NZT603      0.0000 
      5 CAN       -14.5380   -7.9720   25.1180 C.ar      1 NZT603      0.0000 
      6 CAD       -14.9450   -7.6330   23.8270 C.ar      1 NZT603      0.0000 
      7 CAF       -16.1850   -7.0140   23.6440 C.ar      1 NZT603      0.0000 
      8 NAW       -17.0130   -6.7420   24.7650 N.ar      1 NZT603      0.0000 
      9 CBE       -16.6080   -7.0790   26.0080 C.ar      1 NZT603      0.0000 
     10 CBC       -17.4260   -6.8100   27.0930 C.ar      1 NZT603      0.0000 
     11 S1        -18.9360   -6.0410   26.7990 S.o2      1 NZT603      0.0000 
     12 OAB       -19.7690   -5.9350   28.0720 O.2       1 NZT603      0.0000 
     13 OAC       -18.6140   -4.6480   26.3110 O.2       1 NZT603      0.0000 
     14 NAX       -19.7740   -6.8360   25.6820 N.pl3     1 NZT603      0.0000 
     15 CAZ       -20.5030   -7.9190   25.9900 C.ar      1 NZT603      0.0000 
     16 CAJ       -21.4360   -7.9640   27.0450 C.ar      1 NZT603      0.0000 
     17 CAL       -22.1980   -9.1240   27.2830 C.ar      1 NZT603      0.0000 
     18 CAK       -20.3550   -9.0270   25.1700 C.ar      1 NZT603      0.0000 
     19 CAM       -21.1020  -10.1840   25.3880 C.ar      1 NZT603      0.0000 
     20 CBA       -22.0160  -10.2420   26.4460 C.ar      1 NZT603      0.0000 
     21 CAY       -22.7460  -11.4190   26.6310 C.2       1 NZT603      0.0000 
     22 OAA       -23.9600  -11.3710   26.4590 O.2       1 NZT603      0.0000 
     23 NBF       -22.1130  -12.5890   26.9200 N.am      1 NZT603      0.0000 
     24 CAQ       -22.8790  -13.8340   27.1190 C.3       1 NZT603      0.0000 
     25 CAS       -22.6850  -14.3210   28.5630 C.3       1 NZT603      0.0000 
     26 CAR       -20.6470  -12.6650   27.1600 C.3       1 NZT603      0.0000 
     27 CAT       -20.4420  -13.0010   28.6250 C.3       1 NZT603      0.0000 
     28 NBG       -21.2680  -14.1660   29.0120 N.3       1 NZT603      0.0000 
     29 CBB       -20.6970  -15.0790   29.8020 C.ar      1 NZT603      0.0000 
     30 NAV       -19.5760  -15.6990   29.3770 N.ar      1 NZT603      0.0000 
     31 CAH       -18.9220  -16.6540   30.1760 C.ar      1 NZT603      0.0000 
     32 CAG       -19.4630  -16.9460   31.4280 C.ar      1 NZT603      0.0000 
     33 NAU       -20.6360  -16.3070   31.8740 N.ar      1 NZT603      0.0000 
     34 CAP       -21.2500  -15.3550   31.0550 C.ar      1 NZT603      0.0000 
     35 H         -17.6329   -6.9505   29.1832 H         1 NZT603      0.0000 
     36 H         -15.4863   -8.0060   29.5462 H         1 NZT603      0.0000 
     37 H         -14.0369   -8.4771   27.6579 H         1 NZT603      0.0000 
     38 H         -13.6269   -8.4258   25.2662 H         1 NZT603      0.0000 
     39 H         -14.3459   -7.8339   23.0258 H         1 NZT603      0.0000 
     40 H         -16.5039   -6.7539   22.7090 H         1 NZT603      0.0000 
     41 H         -19.6770   -6.4214   24.7566 H         1 NZT603      0.0000 
     42 H         -21.5614   -7.1409   27.6472 H         1 NZT603      0.0000 
     43 H         -22.8673   -9.1541   28.0451 H         1 NZT603      0.0000 
     44 H         -19.6820   -8.9985   24.3846 H         1 NZT603      0.0000 
     45 H         -20.9827  -10.9972   24.7715 H         1 NZT603      0.0000 
     46 H         -22.5320  -14.6132   26.4451 H         1 NZT603      0.0000 
     47 H         -23.9402  -13.6655   26.9539 H         1 NZT603      0.0000 
     48 H         -22.9839  -15.3733   28.6168 H         1 NZT603      0.0000 
     49 H         -23.3514  -13.7462   29.2149 H         1 NZT603      0.0000 
     50 H         -20.1805  -11.7143   26.9450 H         1 NZT603      0.0000 
     51 H         -20.2058  -13.4420   26.5522 H         1 NZT603      0.0000 
     52 H         -20.7116  -12.1282   29.2276 H         1 NZT603      0.0000 
     53 H         -19.3820  -13.2156   28.7921 H         1 NZT603      0.0000 
     54 H         -18.0826  -17.1135   29.8468 H         1 NZT603      0.0000 
     55 H         -19.0031  -17.6370   32.0386 H         1 NZT603      0.0000 
     56 H         -22.0898  -14.8690   31.3680 H         1 NZT603      0.0000 
@<TRIPOS>BOND
     1    2    1 ar   
     2   10    1 ar   
     3   35    1 1    
     4    3    2 ar   
     5   36    2 1    
     6    4    3 ar   
     7   37    3 1    
     8    5    4 ar   
     9    9    4 ar   
    10    6    5 ar   
    11   38    5 1    
    12    7    6 ar   
    13   39    6 1    
    14    8    7 ar   
    15   40    7 1    
    16    9    8 ar   
    17   10    9 ar   
    18   11   10 1    
    19   12   11 2    
    20   13   11 2    
    21   14   11 1    
    22   15   14 1    
    23   41   14 1    
    24   16   15 ar   
    25   18   15 ar   
    26   17   16 ar   
    27   42   16 1    
    28   20   17 ar   
    29   43   17 1    
    30   19   18 ar   
    31   44   18 1    
    32   20   19 ar   
    33   45   19 1    
    34   21   20 1    
    35   22   21 2    
    36   23   21 am   
    37   24   23 1    
    38   26   23 1    
    39   25   24 1    
    40   46   24 1    
    41   47   24 1    
    42   28   25 1    
    43   48   25 1    
    44   49   25 1    
    45   27   26 1    
    46   50   26 1    
    47   51   26 1    
    48   28   27 1    
    49   52   27 1    
    50   53   27 1    
    51   29   28 1    
    52   30   29 ar   
    53   34   29 ar   
    54   31   30 ar   
    55   32   31 ar   
    56   54   31 1    
    57   33   32 ar   
    58   55   32 1    
    59   34   33 ar   
    60   56   34 1    
@<TRIPOS>SUBSTRUCTURE
     1 NZT603      1 GROUP   
@<TRIPOS>SET

