#    Name: 1b7t_ADP_1_INTS_M
#    Modification time : Mon Mar 24 19:26:33 2014

@<TRIPOS>MOLECULE
1b7t_ADP_1_INTS_M
   60     0    15     0     0
SMALL
NO_CHARGES


@<TRIPOS>ATOM
      1 Zn          1.6645   -4.1340   -2.8500 Zn        4 ZIC7        0.0000 
      2 Zn          1.7990   -4.5960   -1.9080 Zn       14 ZIL7        0.0000 
      3 Zn          1.5300   -3.6720   -3.7920 Zn        9 ZIP7        0.0000 
      4 N           0.4825   -4.9430   -1.4110 N.am      2 SEC2        0.0000 
      5 N           1.7990   -4.5960   -1.9080 N.am     12 SEL2        0.0000 
      6 N          -0.8340   -5.2900   -0.9140 N.am      7 SEP2        0.0000 
      7 NZ          3.0380   -2.5890    0.3615 N.4       3 LYC4        0.0000 
      8 NZ          2.9950   -4.0450    0.3350 N.4      13 LYL4        0.0000 
      9 NZ          3.0810   -1.1330    0.3880 N.4       8 LYP4        0.0000 
     10 N           2.9605   -5.1485    1.3685 N.am      2 SEC2        0.0000 
     11 N           2.9950   -4.0450    0.3350 N.am     12 SEL2        0.0000 
     12 N           2.9260   -6.2520    2.4020 N.am      7 SEP2        0.0000 
     13 N           1.8685   -4.5270    0.9620 N.am      2 SEC2        0.0000 
     14 N           0.7420   -5.0090    1.5890 N.am      7 SEP2        0.0000 
     15 N           3.0380   -2.5890    0.3615 N.am      2 SEC2        0.0000 
     16 N           3.0810   -1.1330    0.3880 N.am      7 SEP2        0.0000 
     17 NZ          3.6440   -2.5480   -0.7780 N.4       3 LYC4        0.0000 
     18 NZ          4.2070   -3.9630   -1.9440 N.4      13 LYL4        0.0000 
     19 N           5.4490   -4.1270   -1.1330 N.am      2 SEC2        0.0000 
     20 N           4.2070   -3.9630   -1.9440 N.am     12 SEL2        0.0000 
     21 N           6.6910   -4.2910   -0.3220 N.am      7 SEP2        0.0000 
     22 N           4.7970   -5.2425   -2.7725 N.am      2 SEC2        0.0000 
     23 N           5.3870   -6.5220   -3.6010 N.am      7 SEP2        0.0000 
     24 N           4.0210   -7.0100   -3.2375 N.am      2 SEC2        0.0000 
     25 N           2.6550   -7.4980   -2.8740 N.am     12 SEL2        0.0000 
     26 N           2.4615   -8.7580   -3.4260 N.am      2 SEC2        0.0000 
     27 N           2.2680  -10.0180   -3.9780 N.am      7 SEP2        0.0000 
     28 N          -0.0855   -7.7690   -0.9730 N.am      2 SEC2        0.0000 
     29 N           1.2410   -7.3350   -0.8760 N.am     12 SEL2        0.0000 
     30 N          -1.4120   -8.2030   -1.0700 N.am      7 SEP2        0.0000 
     31 CA          5.8970   -7.2870   -0.6615 C.3       5 GLC5        0.0000 
     32 CA          4.7600   -8.8860   -1.1720 C.3      15 GLL5        0.0000 
     33 CA          7.0340   -5.6880   -0.1510 C.3      10 GLP5        0.0000 
     34 N           5.5125  -10.2910    1.3225 N.am      2 SEC2        0.0000 
     35 N           5.2720  -10.9330    0.0640 N.am     12 SEL2        0.0000 
     36 N           5.7530   -9.6490    2.5810 N.am      7 SEP2        0.0000 
     37 O           3.3325  -10.7170   -3.6570 O.2       1 ALC1        0.0000 
     38 O           4.3970  -11.4160   -3.3360 O.2      11 ALL1        0.0000 
     39 O           2.2680  -10.0180   -3.9780 O.2       6 ALP1        0.0000 
     40 CA          6.5180  -12.4545    0.8995 C.3       5 GLC5        0.0000 
     41 CA          4.4780  -12.1240    0.2050 C.3      15 GLL5        0.0000 
     42 CA          8.5580  -12.7850    1.5940 C.3      10 GLP5        0.0000 
     43 CA         -0.1265  -11.7100    1.5475 C.3       5 GLC5        0.0000 
     44 CA          0.5590  -13.1740    3.0090 C.3      15 GLL5        0.0000 
     45 CA         -0.8120  -10.2460    0.0860 C.3      10 GLP5        0.0000 
     46 O          -1.5490  -13.2010    4.6080 O.2       1 ALC1        0.0000 
     47 O          -0.4700  -12.6790    3.7290 O.2      11 ALL1        0.0000 
     48 O          -2.6280  -13.7230    5.4870 O.2       6 ALP1        0.0000 
     49 CA          2.1430  -14.5995    4.0135 C.3       5 GLC5        0.0000 
     50 CA          1.7540  -15.0940    2.2080 C.3      15 GLL5        0.0000 
     51 CA          2.5320  -14.1050    5.8190 C.3      10 GLP5        0.0000 
     52 CA          1.0530  -16.8360    0.9865 C.3       5 GLC5        0.0000 
     53 CA          0.3520  -18.5780   -0.2350 C.3      10 GLP5        0.0000 
     54 CA          2.1703  -11.3097   -1.2292 C.3       5 GLC5        0.0000 
     55 CA          4.1400  -12.5540   -1.2120 C.3      15 GLL5        0.0000 
     56 CA          0.2300  -10.7270   -0.8780 C.3      10 GLP5        0.0000 
     57 CA          1.1122  -11.6655    0.5500 C.3       5 GLC5        0.0000 
     58 CA          1.4660  -12.3010    2.3480 C.3      15 GLL5        0.0000 
     59 CA          2.4759  -12.8261    3.7586 C.3       5 GLC5        0.0000 
     60 CA          3.1840  -12.8300    5.3740 C.3      10 GLP5        0.0000 
@<TRIPOS>BOND
@<TRIPOS>SUBSTRUCTURE
     1 ALC1       37 GROUP        1 X    ALC  0     ROOT ALC X 1
     2 SEC2        4 GROUP        1 X    SEC  0     **** SEC X 2
     3 LYC4        7 GROUP        1 X    LYC  0     **** LYC X 4
     4 ZIC7        1 GROUP        1 X    ZIC  0     **** ZIC X 5
     5 GLC5       31 GROUP        1 X    GLC  0     **** GLC X 6
     6 ALP1       39 GROUP        1 Y    ALP  0     ROOT ALP Y 8
     7 SEP2        6 GROUP        1 Y    SEP  0     **** SEP Y 9
     8 LYP4        9 GROUP        1 Y    LYP  0     **** LYP Y 11
     9 ZIP7        3 GROUP        1 Y    ZIP  0     **** ZIP Y 12
    10 GLP5       33 GROUP        1 Y    GLP  0     **** GLP Y 13
    11 ALL1       38 GROUP        1 Z    ALL  0     ROOT ALL Z 15
    12 SEL2        5 GROUP        1 Z    SEL  0     **** SEL Z 16
    13 LYL4        8 GROUP        1 Z    LYL  0     **** LYL Z 18
    14 ZIL7        2 GROUP        1 Z    ZIL  0     **** ZIL Z 19
    15 GLL5       32 GROUP        1 Z    GLL  0     **** GLL Z 20
@<TRIPOS>SET

