#    Name: 1b7t_ADP_1_ligand
#    Modification time : Mon Mar 24 19:26:33 2014

@<TRIPOS>MOLECULE
1b7t_ADP_1_ligand
   39    41     1     0     0
SMALL
NO_CHARGES


@<TRIPOS>ATOM
      1 PB          3.1150   -4.6500   -1.1970 P.3       1 ADP999      0.0000 
      2 O1B         1.7990   -4.5960   -1.9080 O.co2     1 ADP999      0.0000 
      3 O2B         2.9950   -4.0450    0.3350 O.co2     1 ADP999      0.0000 
      4 O3B         4.2070   -3.9630   -1.9440 O.co2     1 ADP999      0.0000 
      5 PA          2.6310   -7.4540   -1.3860 P.3       1 ADP999      0.0000 
      6 O1A         2.6550   -7.4980   -2.8740 O.co2     1 ADP999      0.0000 
      7 O2A         1.2410   -7.3350   -0.8760 O.co2     1 ADP999      0.0000 
      8 O3A         3.4590   -6.1670   -0.9850 O.3       1 ADP999      0.0000 
      9 O5'         3.4130   -8.7050   -0.7500 O.3       1 ADP999      0.0000 
     10 C5'         4.7600   -8.8860   -1.1720 C.3       1 ADP999      0.0000 
     11 C4'         5.1030  -10.3760   -1.2460 C.3       1 ADP999      0.0000 
     12 O4'         5.2720  -10.9330    0.0640 O.3       1 ADP999      0.0000 
     13 C3'         4.0810  -11.2310   -1.9490 C.3       1 ADP999      0.0000 
     14 O3'         4.3970  -11.4160   -3.3360 O.3       1 ADP999      0.0000 
     15 C2'         4.1400  -12.5540   -1.2120 C.3       1 ADP999      0.0000 
     16 O2'         5.1080  -13.4730   -1.7510 O.3       1 ADP999      0.0000 
     17 C1'         4.4780  -12.1240    0.2050 C.3       1 ADP999      0.0000 
     18 N9          3.2440  -11.9270    1.0760 N.pl3     1 ADP999      0.0000 
     19 C8          2.6780  -10.7480    1.4520 C.2       1 ADP999      0.0000 
     20 N7          1.6020  -10.9880    2.2190 N.2       1 ADP999      0.0000 
     21 C5          1.4660  -12.3010    2.3480 C.ar      1 ADP999      0.0000 
     22 C6          0.5590  -13.1740    3.0090 C.ar      1 ADP999      0.0000 
     23 N6         -0.4700  -12.6790    3.7290 N.pl3     1 ADP999      0.0000 
     24 N1          0.7330  -14.5440    2.9230 N.ar      1 ADP999      0.0000 
     25 C2          1.7540  -15.0940    2.2080 C.ar      1 ADP999      0.0000 
     26 N3          2.6260  -14.2740    1.5690 N.ar      1 ADP999      0.0000 
     27 C4          2.5230  -12.9070    1.6080 C.ar      1 ADP999      0.0000 
     28 H           5.4727   -8.4161   -0.4789 H         1 ADP999      0.0000 
     29 H           4.9383   -8.4553   -2.1679 H         1 ADP999      0.0000 
     30 H           6.0526  -10.4773   -1.7959 H         1 ADP999      0.0000 
     31 H           3.1154  -10.8087   -1.7931 H         1 ADP999      0.0000 
     32 H           3.1421  -12.9592   -1.1912 H         1 ADP999      0.0000 
     33 H           5.0918  -12.9195    0.6394 H         1 ADP999      0.0000 
     34 H           3.0101   -9.8697    1.1984 H         1 ADP999      0.0000 
     35 H          -1.1008  -13.3520    4.1151 H         1 ADP999      0.0000 
     36 H          -0.5100  -11.6833    3.8123 H         1 ADP999      0.0000 
     37 H           1.8604  -16.1189    2.1548 H         1 ADP999      0.0000 
     38 H           3.6698  -10.9420   -3.8325 H         1 ADP999      0.0000 
     39 H           5.0907  -13.3171   -2.7386 H         1 ADP999      0.0000 
@<TRIPOS>BOND
     1    2    1 ar   
     2    3    1 ar   
     3    4    1 ar   
     4    8    1 1    
     5    6    5 ar   
     6    7    5 ar   
     7    8    5 1    
     8    9    5 1    
     9   10    9 1    
    10   11   10 1    
    11   28   10 1    
    12   29   10 1    
    13   12   11 1    
    14   13   11 1    
    15   30   11 1    
    16   17   12 1    
    17   14   13 1    
    18   15   13 1    
    19   31   13 1    
    20   38   14 1    
    21   16   15 1    
    22   17   15 1    
    23   32   15 1    
    24   39   16 1    
    25   18   17 1    
    26   33   17 1    
    27   19   18 1    
    28   27   18 1    
    29   20   19 2    
    30   34   19 1    
    31   21   20 1    
    32   22   21 ar   
    33   27   21 ar   
    34   23   22 1    
    35   24   22 ar   
    36   35   23 1    
    37   36   23 1    
    38   25   24 ar   
    39   26   25 ar   
    40   37   25 1    
    41   27   26 ar   
@<TRIPOS>SUBSTRUCTURE
     1 ADP999      1 GROUP   
@<TRIPOS>SET

