#    Name: 3int_FDA_2_INTS_M
#    Modification time : Tue Mar 25 16:57:58 2014

@<TRIPOS>MOLECULE
3int_FDA_2_INTS_M
  104     0     9     0     0
SMALL
NO_CHARGES


@<TRIPOS>ATOM
      1 N          -6.4120  -63.2490  -11.2745 N.am      2 SEC2        0.0000 
      2 N          -5.5850  -64.0760  -10.5010 N.am      8 SEL2        0.0000 
      3 N          -7.2390  -62.4220  -12.0480 N.am      5 SEP2        0.0000 
      4 CA         -7.2350  -68.5245  -10.1560 C.3       3 GLC5        0.0000 
      5 CA         -5.6890  -67.6980  -11.4070 C.3       9 GLL5        0.0000 
      6 CA         -8.7810  -69.3510   -8.9050 C.3       6 GLP5        0.0000 
      7 CA         -4.0605  -68.9545  -13.5760 C.3       3 GLC5        0.0000 
      8 CA         -5.4880  -67.9350  -12.8820 C.3       9 GLL5        0.0000 
      9 CA         -2.6330  -69.9740  -14.2700 C.3       6 GLP5        0.0000 
     10 O          -5.4910  -67.3265  -15.4940 O.2       1 ALC1        0.0000 
     11 O          -6.2320  -66.6730  -14.7350 O.2       7 ALL1        0.0000 
     12 O          -4.7500  -67.9800  -16.2530 O.2       4 ALP1        0.0000 
     13 O          -7.1055  -68.2770  -16.6245 O.2       1 ALC1        0.0000 
     14 O          -7.8040  -68.3540  -15.4860 O.2       7 ALL1        0.0000 
     15 O          -6.4070  -68.2000  -17.7630 O.2       4 ALP1        0.0000 
     16 O          -6.2770  -68.1670  -15.8695 O.2       1 ALC1        0.0000 
     17 CA         -4.4830  -69.8355  -14.2330 C.3       3 GLC5        0.0000 
     18 CA         -6.3330  -69.6970  -14.1960 C.3       9 GLL5        0.0000 
     19 CA         -7.0440  -73.1200  -12.1185 C.3       3 GLC5        0.0000 
     20 CA         -7.5560  -73.1400  -14.2490 C.3       9 GLL5        0.0000 
     21 CA         -6.5320  -73.1000   -9.9880 C.3       6 GLP5        0.0000 
     22 CA         -6.2910  -76.0285  -15.4605 C.3       3 GLC5        0.0000 
     23 CA         -7.5950  -74.3810  -14.9020 C.3       9 GLL5        0.0000 
     24 CA         -4.9870  -77.6760  -16.0190 C.3       6 GLP5        0.0000 
     25 N          -6.5785  -75.7710  -17.0630 N.am      2 SEC2        0.0000 
     26 N          -6.9010  -74.5690  -16.0860 N.am      8 SEL2        0.0000 
     27 N          -6.2560  -76.9730  -18.0400 N.am      5 SEP2        0.0000 
     28 CA         -5.0100  -74.0185  -15.3125 C.3       3 GLC5        0.0000 
     29 CA         -6.1780  -73.5470  -16.6330 C.3       9 GLL5        0.0000 
     30 CA         -3.8420  -74.4900  -13.9920 C.3       6 GLP5        0.0000 
     31 CA         -5.3310  -71.9845  -17.6205 C.3       3 GLC5        0.0000 
     32 CA         -4.4840  -70.4220  -18.6080 C.3       6 GLP5        0.0000 
     33 CA         -7.6020  -72.7290  -17.6065 C.3       3 GLC5        0.0000 
     34 CA         -9.0260  -71.9110  -18.5800 C.3       6 GLP5        0.0000 
     35 CA         -6.8450  -74.7275  -18.2485 C.3       3 GLC5        0.0000 
     36 CA         -7.5120  -75.9080  -19.8640 C.3       6 GLP5        0.0000 
     37 CA         -5.5825  -75.6115  -16.3260 C.3       3 GLC5        0.0000 
     38 N          -6.5080  -71.5760  -17.4010 N.am      2 SEC2        0.0000 
     39 N          -6.1710  -72.3310  -15.9600 N.am      8 SEL2        0.0000 
     40 N          -6.8450  -70.8210  -18.8420 N.am      5 SEP2        0.0000 
     41 N          -3.3170  -57.7900   -3.4710 N.am      2 SEC2        0.0000 
     42 N          -3.9870  -56.5430   -3.2630 N.am      8 SEL2        0.0000 
     43 N          -2.6470  -59.0370   -3.6790 N.am      5 SEP2        0.0000 
     44 O          -4.8535  -54.0770   -3.8705 O.2       1 ALC1        0.0000 
     45 O          -5.7300  -55.2000   -3.8480 O.2       7 ALL1        0.0000 
     46 O          -3.9770  -52.9540   -3.8930 O.2       4 ALP1        0.0000 
     47 N          -6.7860  -53.1735   -5.2100 N.am      2 SEC2        0.0000 
     48 N          -7.5520  -54.0030   -4.4490 N.am      8 SEL2        0.0000 
     49 N          -6.0200  -52.3440   -5.9710 N.am      5 SEP2        0.0000 
     50 O          -9.4185  -55.0145   -6.0155 O.2       1 ALC1        0.0000 
     51 O          -9.0270  -56.1390   -5.3010 O.2       7 ALL1        0.0000 
     52 O          -9.8100  -53.8900   -6.7300 O.2       4 ALP1        0.0000 
     53 CA        -15.0175  -58.8160   -6.4915 C.3       3 GLC5        0.0000 
     54 CA        -13.2990  -58.4940   -6.0570 C.3       9 GLL5        0.0000 
     55 CA        -16.7360  -59.1380   -6.9260 C.3       6 GLP5        0.0000 
     56 CA        -13.8675  -60.1255   -7.0610 C.3       3 GLC5        0.0000 
     57 CA        -14.4360  -61.7570   -8.0650 C.3       6 GLP5        0.0000 
     58 CA        -14.1030  -59.0375   -4.6265 C.3       3 GLC5        0.0000 
     59 CA        -14.9070  -59.5810   -3.1960 C.3       6 GLP5        0.0000 
     60 CA        -13.1875  -61.3945   -6.8600 C.3       3 GLC5        0.0000 
     61 CA        -11.9390  -61.0320   -5.6550 C.3       9 GLL5        0.0000 
     62 CA        -13.4230  -60.3065   -4.4255 C.3       3 GLC5        0.0000 
     63 CA         -8.0225  -59.8985   -2.8300 C.3       3 GLC5        0.0000 
     64 CA         -7.0670  -59.9970   -4.7860 C.3       9 GLL5        0.0000 
     65 CA         -8.9780  -59.8000   -0.8740 C.3       6 GLP5        0.0000 
     66 CA         -5.4925  -59.8185   -3.2230 C.3       3 GLC5        0.0000 
     67 CA         -3.9180  -59.6400   -1.6600 C.3       6 GLP5        0.0000 
     68 CA         -4.5020  -59.1185   -6.2035 C.3       3 GLC5        0.0000 
     69 CA         -6.2190  -60.3120   -5.9940 C.3       9 GLL5        0.0000 
     70 CA         -2.7850  -57.9250   -6.4130 C.3       6 GLP5        0.0000 
     71 N          -7.3200  -59.1640   -7.6705 N.am      2 SEC2        0.0000 
     72 N          -7.0730  -60.3090   -7.1540 N.am      8 SEL2        0.0000 
     73 N          -7.5670  -58.0190   -8.1870 N.am      5 SEP2        0.0000 
     74 N          -3.1975  -62.4750   -4.5125 N.am      2 SEC2        0.0000 
     75 N          -4.4730  -61.5920   -4.9010 N.am      8 SEL2        0.0000 
     76 N          -1.9220  -63.3580   -4.1240 N.am      5 SEP2        0.0000 
     77 O          -4.9060  -61.6890   -3.7435 O.2       1 ALC1        0.0000 
     78 O          -4.4730  -61.5920   -4.9010 O.2       7 ALL1        0.0000 
     79 O          -5.3390  -61.7860   -2.5860 O.2       4 ALP1        0.0000 
     80 CA         -2.3105  -63.7820   -6.3190 C.3       3 GLC5        0.0000 
     81 CA         -4.2150  -63.4730   -6.8450 C.3       9 GLL5        0.0000 
     82 CA         -0.4060  -64.0910   -5.7930 C.3       6 GLP5        0.0000 
     83 N          -1.0085  -65.6345   -9.3630 N.am      2 SEC2        0.0000 
     84 N          -2.5090  -65.6710   -9.5500 N.am      8 SEL2        0.0000 
     85 N           0.4920  -65.5980   -9.1760 N.am      5 SEP2        0.0000 
     86 N          -1.6675  -66.7035   -7.0965 N.am      2 SEC2        0.0000 
     87 N          -2.9040  -66.2620   -7.2660 N.am      8 SEL2        0.0000 
     88 N          -0.4310  -67.1450   -6.9270 N.am      5 SEP2        0.0000 
     89 CA         -5.9748  -65.6803  -13.4492 C.3       3 GLC5        0.0000 
     90 CA         -5.8630  -63.6900  -13.6470 C.3       6 GLP5        0.0000 
     91 CA         -8.1967  -66.8805  -15.3012 C.3       3 GLC5        0.0000 
     92 CA         -6.6850  -67.4060  -13.6210 C.3       9 GLL5        0.0000 
     93 CA         -9.3580  -65.7430  -16.7050 C.3       6 GLP5        0.0000 
     94 CA         -8.3490  -71.8667  -15.9545 C.3       3 GLC5        0.0000 
     95 CA         -9.5070  -71.1010  -17.3860 C.3       6 GLP5        0.0000 
     96 CA         -5.5214  -73.7164  -14.3391 C.3       3 GLC5        0.0000 
     97 CA         -6.8260  -72.1250  -14.7970 C.3       9 GLL5        0.0000 
     98 CA         -7.0287  -56.9408   -6.3978 C.3       3 GLC5        0.0000 
     99 CA         -7.1100  -57.4900   -4.6120 C.3       9 GLL5        0.0000 
    100 CA         -6.6370  -57.0100   -8.1160 C.3       6 GLP5        0.0000 
    101 CA         -6.6400  -58.5823   -6.7530 C.3       3 GLC5        0.0000 
    102 CA         -6.0387  -63.8406   -5.9681 C.3       3 GLC5        0.0000 
    103 CA         -5.5020  -61.6460   -5.8370 C.3       9 GLL5        0.0000 
    104 CA         -7.3860  -65.0020   -5.2780 C.3       6 GLP5        0.0000 
@<TRIPOS>BOND
@<TRIPOS>SUBSTRUCTURE
     1 ALC1       10 GROUP        1 X    ALC  0     ROOT ALC X 1
     2 SEC2        1 GROUP        1 X    SEC  0     **** SEC X 2
     3 GLC5        4 GROUP        1 X    GLC  0     **** GLC X 6
     4 ALP1       12 GROUP        1 Y    ALP  0     ROOT ALP Y 8
     5 SEP2        3 GROUP        1 Y    SEP  0     **** SEP Y 9
     6 GLP5        6 GROUP        1 Y    GLP  0     **** GLP Y 13
     7 ALL1       11 GROUP        1 Z    ALL  0     ROOT ALL Z 15
     8 SEL2        2 GROUP        1 Z    SEL  0     **** SEL Z 16
     9 GLL5        5 GROUP        1 Z    GLL  0     **** GLL Z 20
@<TRIPOS>SET

