#    Name: 3int_FDA_2_ligand
#    Modification time : Tue Mar 25 16:57:58 2014

@<TRIPOS>MOLECULE
3int_FDA_2_ligand
   86    91     1     0     0
SMALL
NO_CHARGES


@<TRIPOS>ATOM
      1 PA         -5.7450  -65.5220  -10.0590 P.3       1 FDA391      0.0000 
      2 O1A        -7.1360  -65.8750   -9.5830 O.co2     1 FDA391      0.0000 
      3 O2A        -5.5850  -64.0760  -10.5010 O.co2     1 FDA391      0.0000 
      4 O5B        -5.1990  -66.4080  -11.2320 O.3       1 FDA391      0.0000 
      5 C5B        -5.6890  -67.6980  -11.4070 C.3       1 FDA391      0.0000 
      6 C4B        -5.4880  -67.9350  -12.8820 C.3       1 FDA391      0.0000 
      7 O4B        -5.4380  -69.3250  -13.1740 O.3       1 FDA391      0.0000 
      8 C3B        -6.6850  -67.4060  -13.6210 C.3       1 FDA391      0.0000 
      9 O3B        -6.2320  -66.6730  -14.7350 O.3       1 FDA391      0.0000 
     10 C2B        -7.3860  -68.6300  -14.1740 C.3       1 FDA391      0.0000 
     11 O2B        -7.8040  -68.3540  -15.4860 O.3       1 FDA391      0.0000 
     12 C1B        -6.3330  -69.6970  -14.1960 C.3       1 FDA391      0.0000 
     13 N9A        -6.9440  -71.0220  -13.9750 N.pl3     1 FDA391      0.0000 
     14 C8A        -7.7570  -71.3940  -12.9350 C.2       1 FDA391      0.0000 
     15 N7A        -8.1160  -72.6930  -13.1010 N.2       1 FDA391      0.0000 
     16 C5A        -7.5560  -73.1400  -14.2490 C.ar      1 FDA391      0.0000 
     17 C6A        -7.5950  -74.3810  -14.9020 C.ar      1 FDA391      0.0000 
     18 N6A        -8.0660  -75.4400  -14.2600 N.pl3     1 FDA391      0.0000 
     19 N1A        -6.9010  -74.5690  -16.0860 N.ar      1 FDA391      0.0000 
     20 C2A        -6.1780  -73.5470  -16.6330 C.ar      1 FDA391      0.0000 
     21 N3A        -6.1710  -72.3310  -15.9600 N.ar      1 FDA391      0.0000 
     22 C4A        -6.8260  -72.1250  -14.7970 C.ar      1 FDA391      0.0000 
     23 N1         -5.7980  -57.5810   -4.1010 N.am      1 FDA391      0.0000 
     24 C2         -5.1100  -56.4410   -3.7170 C.2       1 FDA391      0.0000 
     25 O2         -3.9870  -56.5430   -3.2630 O.2       1 FDA391      0.0000 
     26 N3         -5.7300  -55.2000   -3.8480 N.am      1 FDA391      0.0000 
     27 C4         -7.0380  -55.1130   -4.3580 C.2       1 FDA391      0.0000 
     28 O4         -7.5520  -54.0030   -4.4490 O.2       1 FDA391      0.0000 
     29 C4X        -7.7310  -56.2530   -4.7470 C.2       1 FDA391      0.0000 
     30 N5         -9.0270  -56.1390   -5.3010 N.pl3     1 FDA391      0.0000 
     31 C5X        -9.7470  -57.3450   -5.4170 C.ar      1 FDA391      0.0000 
     32 C6        -11.1070  -57.3200   -5.6750 C.ar      1 FDA391      0.0000 
     33 C7        -11.8260  -58.5080   -5.7660 C.ar      1 FDA391      0.0000 
     34 C7M       -13.2990  -58.4940   -6.0570 C.3       1 FDA391      0.0000 
     35 C8        -11.1960  -59.7290   -5.5710 C.ar      1 FDA391      0.0000 
     36 C8M       -11.9390  -61.0320   -5.6550 C.3       1 FDA391      0.0000 
     37 C9         -9.8420  -59.7520   -5.3230 C.ar      1 FDA391      0.0000 
     38 C9A        -9.1020  -58.5700   -5.2640 C.ar      1 FDA391      0.0000 
     39 N10        -7.7320  -58.6700   -4.9910 N.pl3     1 FDA391      0.0000 
     40 C10        -7.1100  -57.4900   -4.6120 C.2       1 FDA391      0.0000 
     41 C1'        -7.0670  -59.9970   -4.7860 C.3       1 FDA391      0.0000 
     42 C2'        -6.2190  -60.3120   -5.9940 C.3       1 FDA391      0.0000 
     43 O2'        -7.0730  -60.3090   -7.1540 O.3       1 FDA391      0.0000 
     44 C3'        -5.5020  -61.6460   -5.8370 C.3       1 FDA391      0.0000 
     45 O3'        -4.4730  -61.5920   -4.9010 O.3       1 FDA391      0.0000 
     46 C4'        -4.8340  -62.1250   -7.1060 C.3       1 FDA391      0.0000 
     47 O4'        -5.7860  -62.3120   -8.1370 O.3       1 FDA391      0.0000 
     48 C5'        -4.2150  -63.4730   -6.8450 C.3       1 FDA391      0.0000 
     49 O5'        -3.6840  -63.8910   -8.0920 O.3       1 FDA391      0.0000 
     50 P          -3.4520  -65.4800   -8.4220 P.3       1 FDA391      0.0000 
     51 O1P        -2.5090  -65.6710   -9.5500 O.co2     1 FDA391      0.0000 
     52 O2P        -2.9040  -66.2620   -7.2660 O.co2     1 FDA391      0.0000 
     53 O3P        -4.8850  -66.0190   -8.8220 O.3       1 FDA391      0.0000 
     54 H          -6.7399  -67.7826  -11.1923 H         1 FDA391      0.0000 
     55 H          -5.1267  -68.4395  -10.8669 H         1 FDA391      0.0000 
     56 H          -4.6233  -67.4224  -13.2192 H         1 FDA391      0.0000 
     57 H          -7.3151  -66.8914  -12.9884 H         1 FDA391      0.0000 
     58 H          -8.1594  -68.9062  -13.5220 H         1 FDA391      0.0000 
     59 H          -5.8552  -69.6592  -15.1616 H         1 FDA391      0.0000 
     60 H          -8.0251  -70.8214  -12.2090 H         1 FDA391      0.0000 
     61 H          -8.0148  -76.3103  -14.7499 H         1 FDA391      0.0000 
     62 H          -8.4301  -75.2731  -13.3437 H         1 FDA391      0.0000 
     63 H          -5.6604  -73.6605  -17.4998 H         1 FDA391      0.0000 
     64 H          -5.3573  -58.5081   -4.0170 H         1 FDA391      0.0000 
     65 H          -5.2357  -54.3434   -3.5732 H         1 FDA391      0.0000 
     66 H          -9.4017  -55.2686   -5.5877 H         1 FDA391      0.0000 
     67 H         -11.5922  -56.4189   -5.8008 H         1 FDA391      0.0000 
     68 H          -9.3571  -60.6565   -5.1768 H         1 FDA391      0.0000 
     69 H          -7.8187  -60.7710   -4.6606 H         1 FDA391      0.0000 
     70 H          -6.4371  -59.9614   -3.9018 H         1 FDA391      0.0000 
     71 H          -5.4664  -59.5296   -6.0854 H         1 FDA391      0.0000 
     72 H          -6.2338  -62.4059   -5.5551 H         1 FDA391      0.0000 
     73 H          -4.0653  -61.4449   -7.3842 H         1 FDA391      0.0000 
     74 H          -4.9861  -64.1417   -6.4855 H         1 FDA391      0.0000 
     75 H          -3.4460  -63.3584   -6.0923 H         1 FDA391      0.0000 
     76 H         -13.4996  -58.0635   -6.9370 H         1 FDA391      0.0000 
     77 H         -13.6800  -59.4180   -6.0891 H         1 FDA391      0.0000 
     78 H         -13.8103  -57.9901   -5.3608 H         1 FDA391      0.0000 
     79 H         -11.3387  -61.8135   -5.4849 H         1 FDA391      0.0000 
     80 H         -12.6803  -61.0807   -4.9855 H         1 FDA391      0.0000 
     81 H         -12.3491  -61.1682   -6.5568 H         1 FDA391      0.0000 
     82 H          -5.3486  -67.0786  -14.9697 H         1 FDA391      0.0000 
     83 H          -6.9665  -68.3663  -16.0323 H         1 FDA391      0.0000 
     84 H          -6.5116  -60.6882   -7.8896 H         1 FDA391      0.0000 
     85 H          -4.8959  -61.2252   -4.0725 H         1 FDA391      0.0000 
     86 H          -5.3819  -62.9992   -8.7407 H         1 FDA391      0.0000 
@<TRIPOS>BOND
     1    2    1 ar   
     2    3    1 ar   
     3    4    1 1    
     4   53    1 1    
     5    5    4 1    
     6    6    5 1    
     7   54    5 1    
     8   55    5 1    
     9    7    6 1    
    10    8    6 1    
    11   56    6 1    
    12   12    7 1    
    13    9    8 1    
    14   10    8 1    
    15   57    8 1    
    16   82    9 1    
    17   11   10 1    
    18   12   10 1    
    19   58   10 1    
    20   83   11 1    
    21   13   12 1    
    22   59   12 1    
    23   14   13 1    
    24   22   13 1    
    25   15   14 2    
    26   60   14 1    
    27   16   15 1    
    28   17   16 ar   
    29   22   16 ar   
    30   18   17 1    
    31   19   17 ar   
    32   61   18 1    
    33   62   18 1    
    34   20   19 ar   
    35   21   20 ar   
    36   63   20 1    
    37   22   21 ar   
    38   24   23 am   
    39   40   23 1    
    40   64   23 1    
    41   25   24 2    
    42   26   24 am   
    43   27   26 am   
    44   65   26 1    
    45   28   27 2    
    46   29   27 1    
    47   30   29 1    
    48   40   29 2    
    49   31   30 1    
    50   66   30 1    
    51   32   31 ar   
    52   38   31 ar   
    53   33   32 ar   
    54   67   32 1    
    55   34   33 1    
    56   35   33 ar   
    57   76   34 1    
    58   77   34 1    
    59   78   34 1    
    60   36   35 1    
    61   37   35 ar   
    62   79   36 1    
    63   80   36 1    
    64   81   36 1    
    65   38   37 ar   
    66   68   37 1    
    67   39   38 1    
    68   40   39 1    
    69   41   39 1    
    70   42   41 1    
    71   69   41 1    
    72   70   41 1    
    73   43   42 1    
    74   44   42 1    
    75   71   42 1    
    76   84   43 1    
    77   45   44 1    
    78   46   44 1    
    79   72   44 1    
    80   85   45 1    
    81   47   46 1    
    82   48   46 1    
    83   73   46 1    
    84   86   47 1    
    85   49   48 1    
    86   74   48 1    
    87   75   48 1    
    88   50   49 1    
    89   51   50 ar   
    90   52   50 ar   
    91   53   50 1    
@<TRIPOS>SUBSTRUCTURE
     1 FDA391      1 GROUP   
@<TRIPOS>SET

