#    Name: 1zoe_K25_1_INTS_M
#    Modification time : Tue Mar 25 11:57:04 2014

@<TRIPOS>MOLECULE
1zoe_K25_1_INTS_M
   51     0     3     0     0
SMALL
NO_CHARGES


@<TRIPOS>ATOM
      1 CA         19.8875    7.5055   19.1485 C.3       1 GLC5        0.0000 
      2 CA         21.5230    8.7540   19.1040 C.3       3 GLL5        0.0000 
      3 CA         18.2520    6.2570   19.1930 C.3       2 GLP5        0.0000 
      4 CA         27.1630    2.8875   21.2195 C.3       1 GLC5        0.0000 
      5 CA         25.4880    3.2670   20.0070 C.3       3 GLL5        0.0000 
      6 CA         28.8380    2.5080   22.4320 C.3       2 GLP5        0.0000 
      7 CA         26.4755    4.8640   20.0890 C.3       1 GLC5        0.0000 
      8 CA         27.4630    6.4610   20.1710 C.3       2 GLP5        0.0000 
      9 CA         26.7260    5.2100   18.9210 C.3       1 GLC5        0.0000 
     10 CA         25.9890    3.9590   17.6710 C.3       3 GLL5        0.0000 
     11 CA         27.0040    5.6160   16.5670 C.3       1 GLC5        0.0000 
     12 CA         28.0190    7.2730   15.4630 C.3       2 GLP5        0.0000 
     13 CA         21.4820   11.1830   19.6425 C.3       1 GLC5        0.0000 
     14 CA         20.4670   10.2030   18.4730 C.3       3 GLL5        0.0000 
     15 CA         22.4970   12.1630   20.8120 C.3       2 GLP5        0.0000 
     16 CA         20.1840   10.3815   16.4675 C.3       1 GLC5        0.0000 
     17 CA         19.9010   10.5600   14.4620 C.3       2 GLP5        0.0000 
     18 CA         18.6295   10.7205   18.7870 C.3       1 GLC5        0.0000 
     19 CA         16.7920   11.2380   19.1010 C.3       2 GLP5        0.0000 
     20 CA         18.3435    9.8845   21.0400 C.3       1 GLC5        0.0000 
     21 CA         19.9810    9.0580   21.5580 C.3       3 GLL5        0.0000 
     22 CA         16.7060   10.7110   20.5220 C.3       2 GLP5        0.0000 
     23 CA         18.3665    7.7900   22.4635 C.3       1 GLC5        0.0000 
     24 CA         16.7520    6.5220   23.3690 C.3       2 GLP5        0.0000 
     25 CA         19.4025    7.2340   21.1165 C.3       1 GLC5        0.0000 
     26 CA         18.8240    5.4100   20.6750 C.3       2 GLP5        0.0000 
     27 CA         23.3355    7.5565   23.6790 C.3       1 GLC5        0.0000 
     28 CA         21.8520    6.4120   22.6210 C.3       3 GLL5        0.0000 
     29 CA         24.8190    8.7010   24.7370 C.3       2 GLP5        0.0000 
     30 CA         20.3380    5.9110   21.6480 C.3       1 GLC5        0.0000 
     31 CA         23.7310    9.9685   18.2060 C.3       1 GLC5        0.0000 
     32 CA         22.9250    8.8690   16.5740 C.3       3 GLL5        0.0000 
     33 CA         24.5370   11.0680   19.8380 C.3       2 GLP5        0.0000 
     34 CA         21.4130    9.7145   15.5180 C.3       1 GLC5        0.0000 
     35 CA         23.9970   10.0410   15.8515 C.3       1 GLC5        0.0000 
     36 CA         25.0690   11.2130   15.1290 C.3       2 GLP5        0.0000 
     37 CA         21.2525    7.8960   16.1395 C.3       1 GLC5        0.0000 
     38 CA         19.5800    6.9230   15.7050 C.3       2 GLP5        0.0000 
     39 CA         20.2875    8.2007   17.2467 C.3       1 GLC5        0.0000 
     40 CA         21.7115   10.0557   21.5493 C.3       1 GLC5        0.0000 
     41 CA         21.2850    8.2590   20.4050 C.3       3 GLL5        0.0000 
     42 CA         22.7900   11.4530   22.1170 C.3       2 GLP5        0.0000 
     43 CA         21.9458    5.7077   18.7995 C.3       1 GLC5        0.0000 
     44 CA         22.8900    6.5180   19.9860 C.3       3 GLL5        0.0000 
     45 CA         21.4580    4.5930   17.1780 C.3       2 GLP5        0.0000 
     46 CA         22.1205    6.0697   17.8227 C.3       1 GLC5        0.0000 
     47 CA         23.1510    6.9840   18.7000 C.3       3 GLL5        0.0000 
     48 CA         24.4891    7.6476   20.3738 C.3       1 GLC5        0.0000 
     49 CA         26.1860    8.3920   21.1870 C.3       2 GLP5        0.0000 
     50 CA         23.5485    9.3879   19.2614 C.3       1 GLC5        0.0000 
     51 CA         20.5422    6.2577   20.4916 C.3       1 GLC5        0.0000 
@<TRIPOS>BOND
@<TRIPOS>SUBSTRUCTURE
     1 GLC5        1 GROUP        1 X    GLC  0     ROOT GLC X 6
     2 GLP5        3 GROUP        1 Y    GLP  0     ROOT GLP Y 13
     3 GLL5        2 GROUP        1 Z    GLL  0     ROOT GLL Z 20
@<TRIPOS>SET

