#    Name: 1zoe_K25_1_ligand
#    Modification time : Tue Mar 25 11:57:04 2014

@<TRIPOS>MOLECULE
1zoe_K25_1_ligand
   23    24     1     0     0
SMALL
NO_CHARGES


@<TRIPOS>ATOM
      1 C2         21.5230    8.7540   19.1040 C.ar      1 K25501      0.0000 
      2 C3         21.2850    8.2590   20.4050 C.ar      1 K25501      0.0000 
      3 C4         21.9770    7.1270   20.8560 C.ar      1 K25501      0.0000 
      4 C5         22.4150    8.1090   18.2350 C.ar      1 K25501      0.0000 
      5 N6         23.7040    5.4130   20.1850 N.2       1 K25501      0.0000 
      6 C7         23.1510    6.9840   18.7000 C.ar      1 K25501      0.0000 
      7 C8         22.8900    6.5180   19.9860 C.ar      1 K25501      0.0000 
      8 C13        24.3470    5.1960   19.0140 C.2       1 K25501      0.0000 
      9 N14        24.1090    6.2160   18.1670 N.pl3     1 K25501      0.0000 
     10 N15        25.2790    4.1620   18.9040 N.pl3     1 K25501      0.0000 
     11 C16        25.4880    3.2670   20.0070 C.3       1 K25501      0.0000 
     12 C17        25.9890    3.9590   17.6710 C.3       1 K25501      0.0000 
     13 BR1        20.4670   10.2030   18.4730 Br        1 K25501      0.0000 
     14 BR9        19.9810    9.0580   21.5580 Br        1 K25501      0.0000 
     15 BR10       21.8520    6.4120   22.6210 Br        1 K25501      0.0000 
     16 BR11       22.9250    8.8690   16.5740 Br        1 K25501      0.0000 
     17 H          24.5550    6.3632   17.3226 H         1 K25501      0.0000 
     18 H          26.1815    2.5772   19.7993 H         1 K25501      0.0000 
     19 H          25.7934    3.7522   20.8263 H         1 K25501      0.0000 
     20 H          24.6512    2.7770   20.2514 H         1 K25501      0.0000 
     21 H          26.5309    4.7605   17.4182 H         1 K25501      0.0000 
     22 H          26.6197    3.1851   17.7287 H         1 K25501      0.0000 
     23 H          25.3668    3.7740   16.9103 H         1 K25501      0.0000 
@<TRIPOS>BOND
     1    2    1 ar   
     2    4    1 ar   
     3   13    1 1    
     4    3    2 ar   
     5   14    2 1    
     6    7    3 ar   
     7   15    3 1    
     8    6    4 ar   
     9   16    4 1    
    10    7    5 1    
    11    8    5 2    
    12    7    6 ar   
    13    9    6 1    
    14    9    8 1    
    15   10    8 1    
    16   17    9 1    
    17   11   10 1    
    18   12   10 1    
    19   18   11 1    
    20   19   11 1    
    21   20   11 1    
    22   21   12 1    
    23   22   12 1    
    24   23   12 1    
@<TRIPOS>SUBSTRUCTURE
     1 K25501      1 GROUP   
@<TRIPOS>SET

