#    Name: 4djo_MK5_1_INTS_M
#    Modification time : Mon Apr  7 22:47:02 2014

@<TRIPOS>MOLECULE
4djo_MK5_1_INTS_M
   98     0     9     0     0
SMALL
NO_CHARGES


@<TRIPOS>ATOM
      1 CA         15.9815   36.3880   20.4825 C.3       3 GLC5        0.0000 
      2 CA         15.4990   36.9610   18.7020 C.3       9 GLL5        0.0000 
      3 CA         16.4640   35.8150   22.2630 C.3       6 GLP5        0.0000 
      4 CA         13.8400   36.1630   19.5415 C.3       3 GLC5        0.0000 
      5 CA         12.1810   35.3650   20.3810 C.3       6 GLP5        0.0000 
      6 CA         14.3680   37.7780   17.2135 C.3       3 GLC5        0.0000 
      7 CA         13.2370   38.5950   15.7250 C.3       6 GLP5        0.0000 
      8 N          14.5240   34.9215   19.9120 N.am      2 SEC2        0.0000 
      9 N          14.9390   35.6570   18.4960 N.am      8 SEL2        0.0000 
     10 N          14.1090   34.1860   21.3280 N.am      5 SEP2        0.0000 
     11 CA         13.9335   35.1385   19.0035 C.3       3 GLC5        0.0000 
     12 CA         15.6860   34.9120   17.6260 C.3       9 GLL5        0.0000 
     13 CA         14.3270   35.3550   15.9945 C.3       3 GLC5        0.0000 
     14 CA         12.9680   35.7980   14.3630 C.3       6 GLP5        0.0000 
     15 CA         15.3995   36.7935   15.7360 C.3       3 GLC5        0.0000 
     16 CA         16.6780   35.5010   16.8480 C.3       9 GLL5        0.0000 
     17 CA         14.1210   38.0860   14.6240 C.3       6 GLP5        0.0000 
     18 CA         15.8565   33.1270   14.0855 C.3       3 GLC5        0.0000 
     19 CA         17.1750   33.3580   15.8560 C.3       9 GLL5        0.0000 
     20 CA         14.5380   32.8960   12.3150 C.3       6 GLP5        0.0000 
     21 CA         22.8860   32.9975   18.9040 C.3       3 GLC5        0.0000 
     22 CA         22.1270   33.9280   17.1690 C.3       9 GLL5        0.0000 
     23 CA         23.6450   32.0670   20.6390 C.3       6 GLP5        0.0000 
     24 CA         24.0275   31.6875   16.2545 C.3       3 GLC5        0.0000 
     25 CA         22.1890   32.2090   15.3220 C.3       9 GLL5        0.0000 
     26 CA         25.8660   31.1660   17.1870 C.3       6 GLP5        0.0000 
     27 CA         23.5215   34.6520   13.8185 C.3       3 GLC5        0.0000 
     28 CA         22.9720   32.8770   14.1990 C.3       9 GLL5        0.0000 
     29 CA         24.0710   36.4270   13.4380 C.3       6 GLP5        0.0000 
     30 CA         24.3455   31.2215   14.4575 C.3       3 GLC5        0.0000 
     31 CA         25.7190   29.5660   14.7160 C.3       6 GLP5        0.0000 
     32 CA         21.7530   34.2560   13.2025 C.3       3 GLC5        0.0000 
     33 CA         20.5340   35.6350   12.2060 C.3       6 GLP5        0.0000 
     34 CA         23.8100   32.7590   12.4620 C.3       3 GLC5        0.0000 
     35 CA         24.6480   32.6410   10.7250 C.3       6 GLP5        0.0000 
     36 CA         17.6025   30.5685   17.8240 C.3       3 GLC5        0.0000 
     37 CA         19.0270   30.4390   16.2090 C.3       9 GLL5        0.0000 
     38 CA         16.1780   30.6980   19.4390 C.3       6 GLP5        0.0000 
     39 N          19.3900   27.7495   17.8000 N.am      2 SEC2        0.0000 
     40 N          19.9210   28.1890   16.5220 N.am      8 SEL2        0.0000 
     41 N          18.8590   27.3100   19.0780 N.am      5 SEP2        0.0000 
     42 O          20.8080   27.8755   17.4065 O.2       1 ALC1        0.0000 
     43 O          19.9210   28.1890   16.5220 O.2       7 ALL1        0.0000 
     44 O          21.6950   27.5620   18.2910 O.2       4 ALP1        0.0000 
     45 O          21.5060   28.5680   16.9220 O.2       1 ALC1        0.0000 
     46 O          23.0910   28.9470   17.3220 O.2       4 ALP1        0.0000 
     47 CA         17.2390   25.3095   13.5520 C.3       3 GLC5        0.0000 
     48 CA         18.1990   26.5400   12.2500 C.3       9 GLL5        0.0000 
     49 CA         16.2790   24.0790   14.8540 C.3       6 GLP5        0.0000 
     50 O          20.3935   26.5630   14.1785 O.2       1 ALC1        0.0000 
     51 O          20.6860   28.1170   13.6950 O.2       7 ALL1        0.0000 
     52 O          20.1010   25.0090   14.6620 O.2       4 ALP1        0.0000 
     53 CA         23.7530   27.1735   13.5030 C.3       3 GLC5        0.0000 
     54 CA         23.5610   28.3010   11.7000 C.3       9 GLL5        0.0000 
     55 CA         23.9450   26.0460   15.3060 C.3       6 GLP5        0.0000 
     56 CA         24.6400   28.9335   13.2080 C.3       3 GLC5        0.0000 
     57 CA         26.2865   27.8705   11.2840 C.3       3 GLC5        0.0000 
     58 CA         24.3070   27.2780   10.8440 C.3       9 GLL5        0.0000 
     59 CA         28.2660   28.4630   11.7240 C.3       6 GLP5        0.0000 
     60 CA         25.1065   26.9905    9.2530 C.3       3 GLC5        0.0000 
     61 CA         25.9060   26.7030    7.6620 C.3       6 GLP5        0.0000 
     62 O          22.8155   27.3490    9.2650 O.2       1 ALC1        0.0000 
     63 O          23.3420   26.4320   10.1300 O.2       7 ALL1        0.0000 
     64 O          22.2890   28.2660    8.4000 O.2       4 ALP1        0.0000 
     65 N          23.7015   23.8370   12.4095 N.am      2 SEC2        0.0000 
     66 N          23.9140   24.5800   11.2640 N.am      8 SEL2        0.0000 
     67 N          23.4890   23.0940   13.5550 N.am      5 SEP2        0.0000 
     68 N          25.0150   23.8675   12.1245 N.am      2 SEC2        0.0000 
     69 N          26.1160   23.1550   12.9850 N.am      5 SEP2        0.0000 
     70 CA         21.8520   26.9360    7.1080 C.3       3 GLC5        0.0000 
     71 CA         21.5060   25.2740    8.2100 C.3       9 GLL5        0.0000 
     72 CA         22.1980   28.5980    6.0060 C.3       6 GLP5        0.0000 
     73 CA         15.9938   31.9288   18.2545 C.3       3 GLC5        0.0000 
     74 CA         16.1810   32.7710   16.6290 C.3       9 GLL5        0.0000 
     75 CA         13.8933   33.0482   16.5280 C.3       3 GLC5        0.0000 
     76 CA         11.9770   32.9370   15.9860 C.3       6 GLP5        0.0000 
     77 CA         16.2542   26.6687   12.1170 C.3       3 GLC5        0.0000 
     78 CA         17.9740   27.8330   12.7060 C.3       9 GLL5        0.0000 
     79 CA         14.4220   26.1510   11.7560 C.3       6 GLP5        0.0000 
     80 CA         16.0538   26.4190   11.1248 C.3       3 GLC5        0.0000 
     81 CA         17.9340   26.2050   10.9290 C.3       9 GLL5        0.0000 
     82 CA         16.0693   28.1258    9.0938 C.3       3 GLC5        0.0000 
     83 CA         17.4370   27.1690   10.0580 C.3       9 GLL5        0.0000 
     84 CA         14.8130   28.4350    7.9040 C.3       6 GLP5        0.0000 
     85 CA         18.8813   29.4712   10.0045 C.3       3 GLC5        0.0000 
     86 CA         17.2140   28.4640   10.5090 C.3       9 GLL5        0.0000 
     87 CA         20.4170   30.3150    8.8370 C.3       6 GLP5        0.0000 
     88 CA         17.2563   30.3507   10.3535 C.3       3 GLC5        0.0000 
     89 CA         17.1670   32.0740    9.5350 C.3       6 GLP5        0.0000 
     90 CA         15.8837   27.3892   11.4640 C.3       3 GLC5        0.0000 
     91 CA         16.1486   28.8364   13.4935 C.3       3 GLC5        0.0000 
     92 CA         17.4770   28.7910   11.8350 C.3       9 GLL5        0.0000 
     93 CA         14.4940   29.2720   14.3520 C.3       6 GLP5        0.0000 
     94 CA         24.5395   29.5273   11.1765 C.3       3 GLC5        0.0000 
     95 CA         25.1450   31.2650   11.0810 C.3       6 GLP5        0.0000 
     96 CA         22.7490   22.7568   10.9820 C.3       3 GLC5        0.0000 
     97 CA         22.2100   24.3460    9.5840 C.3       9 GLL5        0.0000 
     98 CA         23.9430   21.3860   11.8170 C.3       6 GLP5        0.0000 
@<TRIPOS>BOND
@<TRIPOS>SUBSTRUCTURE
     1 ALC1       42 GROUP        1 X    ALC  0     ROOT ALC X 1
     2 SEC2        8 GROUP        1 X    SEC  0     **** SEC X 2
     3 GLC5        1 GROUP        1 X    GLC  0     **** GLC X 6
     4 ALP1       44 GROUP        1 Y    ALP  0     ROOT ALP Y 8
     5 SEP2       10 GROUP        1 Y    SEP  0     **** SEP Y 9
     6 GLP5        3 GROUP        1 Y    GLP  0     **** GLP Y 13
     7 ALL1       43 GROUP        1 Z    ALL  0     ROOT ALL Z 15
     8 SEL2        9 GROUP        1 Z    SEL  0     **** SEL Z 16
     9 GLL5        2 GROUP        1 Z    GLL  0     **** GLL Z 20
@<TRIPOS>SET

