#    Name: 4djo_MK5_1_ligand
#    Modification time : Mon Apr  7 22:47:02 2014

@<TRIPOS>MOLECULE
4djo_MK5_1_ligand
   76    77     1     0     0
SMALL
NO_CHARGES


@<TRIPOS>ATOM
      1 C1         15.4990   36.9610   18.7020 C.3       1 MK5101      0.0000 
      2 O1         14.9390   35.6570   18.4960 O.3       1 MK5101      0.0000 
      3 C2         15.6860   34.9120   17.6260 C.ar      1 MK5101      0.0000 
      4 C7         15.4380   33.5480   17.5110 C.ar      1 MK5101      0.0000 
      5 C6         16.1810   32.7710   16.6290 C.ar      1 MK5101      0.0000 
      6 C3         16.6780   35.5010   16.8480 C.ar      1 MK5101      0.0000 
      7 C4         17.4200   34.7230   15.9670 C.ar      1 MK5101      0.0000 
      8 C5         17.1750   33.3580   15.8560 C.ar      1 MK5101      0.0000 
      9 S8         18.1290   32.3780   14.7510 S.o2      1 MK5101      0.0000 
     10 O9         18.6630   33.2640   13.6630 O.2       1 MK5101      0.0000 
     11 O10        17.2930   31.2880   14.1890 O.2       1 MK5101      0.0000 
     12 N11        19.4210   31.7040   15.5600 N.pl3     1 MK5101      0.0000 
     13 C12        20.0250   32.6110   16.5580 C.3       1 MK5101      0.0000 
     14 C13        21.3270   33.2380   16.0490 C.3       1 MK5101      0.0000 
     15 C14        22.1270   33.9280   17.1690 C.3       1 MK5101      0.0000 
     16 C15        22.1890   32.2090   15.3220 C.3       1 MK5101      0.0000 
     17 C18        22.9720   32.8770   14.1990 C.3       1 MK5101      0.0000 
     18 C16        19.0270   30.4390   16.2090 C.3       1 MK5101      0.0000 
     19 C17        19.9660   29.3410   15.6850 C.3       1 MK5101      0.0000 
     20 O18        19.9210   28.1890   16.5220 O.3       1 MK5101      0.0000 
     21 C19        19.6160   28.9540   14.2480 C.3       1 MK5101      0.0000 
     22 C32        18.2850   28.1880   14.1640 C.3       1 MK5101      0.0000 
     23 C38        17.9740   27.8330   12.7060 C.ar      1 MK5101      0.0000 
     24 C33        18.1990   26.5400   12.2500 C.ar      1 MK5101      0.0000 
     25 C34        17.9340   26.2050   10.9290 C.ar      1 MK5101      0.0000 
     26 C35        17.4370   27.1690   10.0580 C.ar      1 MK5101      0.0000 
     27 C36        17.2140   28.4640   10.5090 C.ar      1 MK5101      0.0000 
     28 C37        17.4770   28.7910   11.8350 C.ar      1 MK5101      0.0000 
     29 N20        20.6860   28.1170   13.6950 N.am      1 MK5101      0.0000 
     30 C21        21.6280   28.5490   12.8660 C.2       1 MK5101      0.0000 
     31 O22        21.7200   29.7060   12.4640 O.2       1 MK5101      0.0000 
     32 O23        22.5370   27.6300   12.4370 O.3       1 MK5101      0.0000 
     33 C23        23.5610   28.3010   11.7000 C.3       1 MK5101      0.0000 
     34 C24        24.3070   27.2780   10.8440 C.3       1 MK5101      0.0000 
     35 N25        23.3420   26.4320   10.1300 N.am      1 MK5101      0.0000 
     36 C26        23.2430   25.1370   10.3960 C.2       1 MK5101      0.0000 
     37 O27        23.9140   24.5800   11.2640 O.2       1 MK5101      0.0000 
     38 C28        22.2100   24.3460    9.5840 C.2       1 MK5101      0.0000 
     39 CL2        21.5060   25.2740    8.2100 Cl        1 MK5101      0.0000 
     40 CL1        20.9000   23.9090   10.7100 Cl        1 MK5101      0.0000 
     41 H          14.6999   33.1114   18.0824 H         1 MK5101      0.0000 
     42 H          15.9945   31.7631   16.5494 H         1 MK5101      0.0000 
     43 H          16.8611   36.5089   16.9251 H         1 MK5101      0.0000 
     44 H          18.1562   35.1594   15.3923 H         1 MK5101      0.0000 
     45 H          20.2458   32.0663   17.4866 H         1 MK5101      0.0000 
     46 H          19.3280   33.4225   16.8095 H         1 MK5101      0.0000 
     47 H          21.0566   34.0161   15.3140 H         1 MK5101      0.0000 
     48 H          21.5495   31.4351   14.9057 H         1 MK5101      0.0000 
     49 H          22.8823   31.7589   16.0276 H         1 MK5101      0.0000 
     50 H          18.0121   30.1727   15.9538 H         1 MK5101      0.0000 
     51 H          19.1388   30.5028   17.2811 H         1 MK5101      0.0000 
     52 H          20.9783   29.7608   15.6694 H         1 MK5101      0.0000 
     53 H          19.5220   29.8584   13.6617 H         1 MK5101      0.0000 
     54 H          17.4908   28.8101   14.5601 H         1 MK5101      0.0000 
     55 H          18.3608   27.2778   14.7476 H         1 MK5101      0.0000 
     56 H          18.5651   25.8250   12.8972 H         1 MK5101      0.0000 
     57 H          18.1040   25.2488   10.5947 H         1 MK5101      0.0000 
     58 H          17.2349   26.9223    9.0803 H         1 MK5101      0.0000 
     59 H          16.8553   29.1796    9.8645 H         1 MK5101      0.0000 
     60 H          17.3012   29.7498   12.1700 H         1 MK5101      0.0000 
     61 H          20.6566   27.1057   14.0129 H         1 MK5101      0.0000 
     62 H          24.2888   28.7803   12.3590 H         1 MK5101      0.0000 
     63 H          23.1495   29.0606   11.0311 H         1 MK5101      0.0000 
     64 H          24.9395   26.6769   11.4986 H         1 MK5101      0.0000 
     65 H          24.9447   27.8162   10.1415 H         1 MK5101      0.0000 
     66 H          22.7601   26.9117    9.4215 H         1 MK5101      0.0000 
     67 H          16.4242   36.9126   19.0783 H         1 MK5101      0.0000 
     68 H          15.5563   37.4796   17.8489 H         1 MK5101      0.0000 
     69 H          14.9516   37.5039   19.3388 H         1 MK5101      0.0000 
     70 H          22.3834   33.2862   17.8918 H         1 MK5101      0.0000 
     71 H          22.9731   34.3348   16.8246 H         1 MK5101      0.0000 
     72 H          21.6035   34.6623   17.6011 H         1 MK5101      0.0000 
     73 H          23.5792   33.5926   14.5443 H         1 MK5101      0.0000 
     74 H          23.5428   32.2221   13.7036 H         1 MK5101      0.0000 
     75 H          22.3667   33.3048   13.5277 H         1 MK5101      0.0000 
     76 H          20.8320   28.1302   16.9304 H         1 MK5101      0.0000 
@<TRIPOS>BOND
     1    2    1 1    
     2   67    1 1    
     3   68    1 1    
     4   69    1 1    
     5    3    2 1    
     6    4    3 ar   
     7    6    3 ar   
     8    5    4 ar   
     9   41    4 1    
    10    8    5 ar   
    11   42    5 1    
    12    7    6 ar   
    13   43    6 1    
    14    8    7 ar   
    15   44    7 1    
    16    9    8 1    
    17   10    9 2    
    18   11    9 2    
    19   12    9 1    
    20   13   12 1    
    21   18   12 1    
    22   14   13 1    
    23   45   13 1    
    24   46   13 1    
    25   15   14 1    
    26   16   14 1    
    27   47   14 1    
    28   70   15 1    
    29   71   15 1    
    30   72   15 1    
    31   17   16 1    
    32   48   16 1    
    33   49   16 1    
    34   73   17 1    
    35   74   17 1    
    36   75   17 1    
    37   19   18 1    
    38   50   18 1    
    39   51   18 1    
    40   20   19 1    
    41   21   19 1    
    42   52   19 1    
    43   76   20 1    
    44   22   21 1    
    45   29   21 1    
    46   53   21 1    
    47   23   22 1    
    48   54   22 1    
    49   55   22 1    
    50   24   23 ar   
    51   28   23 ar   
    52   25   24 ar   
    53   56   24 1    
    54   26   25 ar   
    55   57   25 1    
    56   27   26 ar   
    57   58   26 1    
    58   28   27 ar   
    59   59   27 1    
    60   60   28 1    
    61   30   29 am   
    62   61   29 1    
    63   31   30 2    
    64   32   30 1    
    65   33   32 1    
    66   34   33 1    
    67   62   33 1    
    68   63   33 1    
    69   35   34 1    
    70   64   34 1    
    71   65   34 1    
    72   36   35 am   
    73   66   35 1    
    74   37   36 2    
    75   38   36 1    
    76   39   38 1    
    77   40   38 1    
@<TRIPOS>SUBSTRUCTURE
     1 MK5101      1 GROUP   
@<TRIPOS>SET

