#    Name: 1aqx_GTD_4_INTS_M
#    Modification time : Mon Mar 24 18:50:30 2014

@<TRIPOS>MOLECULE
1aqx_GTD_4_INTS_M
   53     0    15     0     0
SMALL
NO_CHARGES


@<TRIPOS>ATOM
      1 OD1        47.4605    1.4355   55.7475 O.co2     3 ASC3        0.0000 
      2 OD1        49.0180    1.3400   56.8520 O.co2    13 ASL3        0.0000 
      3 OD1        45.9030    1.5310   54.6430 O.co2     8 ASP3        0.0000 
      4 OD1        47.4135    1.5135   56.8605 O.co2     3 ASC3        0.0000 
      5 OD1        45.8090    1.6870   56.8690 O.co2     8 ASP3        0.0000 
      6 O          48.5105    2.6320   56.9985 O.2       1 ALC1        0.0000 
      7 O          49.0180    1.3400   56.8520 O.2      11 ALL1        0.0000 
      8 O          48.0030    3.9240   57.1450 O.2       6 ALP1        0.0000 
      9 CA         49.6870    3.6835   58.7230 C.3       5 GLC5        0.0000 
     10 CA         49.8120    1.5730   58.0950 C.3      15 GLL5        0.0000 
     11 CA         49.5620    5.7940   59.3510 C.3      10 GLP5        0.0000 
     12 N          51.1155    4.6080   57.5955 N.am      2 SEC2        0.0000 
     13 N          50.5460    3.5840   57.0260 N.am     12 SEL2        0.0000 
     14 N          51.6850    5.6320   58.1650 N.am      7 SEP2        0.0000 
     15 N          51.9930    3.9230   56.6570 N.am      2 SEC2        0.0000 
     16 N          53.4400    4.2620   56.2880 N.am      7 SEP2        0.0000 
     17 N          51.5545    4.3565   58.5610 N.am      2 SEC2        0.0000 
     18 N          51.4240    3.0810   58.9570 N.am     12 SEL2        0.0000 
     19 N          51.0125    3.4285   60.4135 N.am      2 SEC2        0.0000 
     20 N          50.6010    3.7760   61.8700 N.am      7 SEP2        0.0000 
     21 CA         50.0100   -0.3055   61.7200 C.3       5 GLC5        0.0000 
     22 CA         51.0250    0.1770   59.8570 C.3      15 GLL5        0.0000 
     23 CA         48.9950   -0.7880   63.5830 C.3      10 GLP5        0.0000 
     24 O          52.1610   -0.2490   61.9800 O.2       1 ALC1        0.0000 
     25 O          51.8760   -1.4110   61.4710 O.2      11 ALL1        0.0000 
     26 O          52.4460    0.9130   62.4890 O.2       6 ALP1        0.0000 
     27 CA         50.6945   -1.7395   62.7670 C.3       5 GLC5        0.0000 
     28 CA         52.3940   -2.6910   61.9510 C.3      15 GLL5        0.0000 
     29 N          51.3155   -0.8170   64.4535 N.am      2 SEC2        0.0000 
     30 N          51.3370   -2.2360   64.0580 N.am     12 SEL2        0.0000 
     31 N          51.2940    0.6020   64.8490 N.am      7 SEP2        0.0000 
     32 CA         52.9875   -3.5190   65.7735 C.3       5 GLC5        0.0000 
     33 CA         51.6170   -4.7890   65.0230 C.3      15 GLL5        0.0000 
     34 CA         54.3580   -2.2490   66.5240 C.3      10 GLP5        0.0000 
     35 CA         51.0025   -3.6295   66.4895 C.3       5 GLC5        0.0000 
     36 CA         50.3880   -2.4700   67.9560 C.3      10 GLP5        0.0000 
     37 N          48.9470   -4.1120   62.8275 N.am      2 SEC2        0.0000 
     38 N          49.3990   -4.6390   64.1760 N.am     12 SEL2        0.0000 
     39 N          48.4950   -3.5850   61.4790 N.am      7 SEP2        0.0000 
     40 NZ         47.8815   -4.6785   66.8155 N.4       4 LYC4        0.0000 
     41 NZ         49.6430   -4.4990   66.3480 N.4      14 LYL4        0.0000 
     42 NZ         46.1200   -4.8580   67.2830 N.4       9 LYP4        0.0000 
     43 N          50.6005   -4.5285   67.5415 N.am      2 SEC2        0.0000 
     44 N          49.6430   -4.4990   66.3480 N.am     12 SEL2        0.0000 
     45 N          51.5580   -4.5580   68.7350 N.am      7 SEP2        0.0000 
     46 CA         52.1743    0.4989   58.1311 C.3       5 GLC5        0.0000 
     47 CA         50.7240    0.3720   58.3800 C.3      15 GLL5        0.0000 
     48 CA         53.7020    0.4230   57.2150 C.3      10 GLP5        0.0000 
     49 CA         54.0840   -2.2025   63.6972 C.3       5 GLC5        0.0000 
     50 CA         55.0040   -1.7930   65.3880 C.3      10 GLP5        0.0000 
     51 CA         58.4520   -6.6208   62.5473 C.3       5 GLC5        0.0000 
     52 CA         57.0390   -5.4160   62.6440 C.3      15 GLL5        0.0000 
     53 CA         60.3090   -7.2870   62.3810 C.3      10 GLP5        0.0000 
@<TRIPOS>BOND
@<TRIPOS>SUBSTRUCTURE
     1 ALC1        6 GROUP        1 X    ALC  0     ROOT ALC X 1
     2 SEC2       12 GROUP        1 X    SEC  0     **** SEC X 2
     3 ASC3        1 GROUP        1 X    ASC  0     **** ASC X 3
     4 LYC4       40 GROUP        1 X    LYC  0     **** LYC X 4
     5 GLC5        9 GROUP        1 X    GLC  0     **** GLC X 6
     6 ALP1        8 GROUP        1 Y    ALP  0     ROOT ALP Y 8
     7 SEP2       14 GROUP        1 Y    SEP  0     **** SEP Y 9
     8 ASP3        3 GROUP        1 Y    ASP  0     **** ASP Y 10
     9 LYP4       42 GROUP        1 Y    LYP  0     **** LYP Y 11
    10 GLP5       11 GROUP        1 Y    GLP  0     **** GLP Y 13
    11 ALL1        7 GROUP        1 Z    ALL  0     ROOT ALL Z 15
    12 SEL2       13 GROUP        1 Z    SEL  0     **** SEL Z 16
    13 ASL3        2 GROUP        1 Z    ASL  0     **** ASL Z 17
    14 LYL4       41 GROUP        1 Z    LYL  0     **** LYL Z 18
    15 GLL5       10 GROUP        1 Z    GLL  0     **** GLL Z 20
@<TRIPOS>SET

