#    Name: 1aqx_GTD_4_ligand
#    Modification time : Mon Mar 24 18:50:30 2014

@<TRIPOS>MOLECULE
1aqx_GTD_4_ligand
   54    54     1     0     0
SMALL
NO_CHARGES


@<TRIPOS>ATOM
      1 N1         49.0180    1.3400   56.8520 N.4       1 GTD2401     0.0000 
      2 CA1        49.8120    1.5730   58.0950 C.3       1 GTD2401     0.0000 
      3 C1         50.6570    2.8410   58.0170 C.2       1 GTD2401     0.0000 
      4 O11        50.5460    3.5840   57.0260 O.co2     1 GTD2401     0.0000 
      5 O12        51.4240    3.0810   58.9570 O.co2     1 GTD2401     0.0000 
      6 CB1        50.7240    0.3720   58.3800 C.3       1 GTD2401     0.0000 
      7 CG1        51.0250    0.1770   59.8570 C.3       1 GTD2401     0.0000 
      8 CD1        51.5220   -1.2140   60.2000 C.2       1 GTD2401     0.0000 
      9 OE1        51.5700   -2.0950   59.3340 O.2       1 GTD2401     0.0000 
     10 N2         51.8760   -1.4110   61.4710 N.am      1 GTD2401     0.0000 
     11 CA2        52.3940   -2.6910   61.9510 C.3       1 GTD2401     0.0000 
     12 C2         51.8700   -3.0730   63.3400 C.2       1 GTD2401     0.0000 
     13 O2         51.3370   -2.2360   64.0580 O.2       1 GTD2401     0.0000 
     14 CB2        53.9340   -2.5330   62.0620 C.3       1 GTD2401     0.0000 
     15 SG2        54.8060   -2.9460   60.5350 S.3       1 GTD2401     0.0000 
     16 N3         52.0790   -4.3280   63.7290 N.am      1 GTD2401     0.0000 
     17 CA3        51.6170   -4.7890   65.0230 C.3       1 GTD2401     0.0000 
     18 C3         50.1150   -4.6300   65.1980 C.2       1 GTD2401     0.0000 
     19 O31        49.3990   -4.6390   64.1760 O.co2     1 GTD2401     0.0000 
     20 O32        49.6430   -4.4990   66.3480 O.co2     1 GTD2401     0.0000 
     21 C1'        55.6830   -4.5050   60.6570 C.3       1 GTD2401     0.0000 
     22 C2'        54.7680   -5.7170   60.9080 C.2       1 GTD2401     0.0000 
     23 N2'        53.5980   -5.9740   60.0850 N.pl3     1 GTD2401     0.0000 
     24 O21        53.3030   -5.2060   59.1530 O.2       1 GTD2401     0.0000 
     25 O22        52.8860   -6.9620   60.3280 O.2       1 GTD2401     0.0000 
     26 C3'        55.0410   -6.6360   61.9360 C.2       1 GTD2401     0.0000 
     27 C4'        56.1510   -6.4930   62.7830 C.3       1 GTD2401     0.0000 
     28 N4'        56.3890   -7.4970   63.8130 N.pl3     1 GTD2401     0.0000 
     29 O41        57.3680   -7.4020   64.5740 O.2       1 GTD2401     0.0000 
     30 O42        55.6080   -8.4550   63.9330 O.2       1 GTD2401     0.0000 
     31 C5'        57.0390   -5.4160   62.6440 C.2       1 GTD2401     0.0000 
     32 C6'        56.8570   -4.4440   61.6450 C.2       1 GTD2401     0.0000 
     33 N6'        57.8090   -3.3490   61.5460 N.pl3     1 GTD2401     0.0000 
     34 O61        57.6640   -2.4850   60.6730 O.2       1 GTD2401     0.0000 
     35 O62        58.7660   -3.2660   62.3240 O.2       1 GTD2401     0.0000 
     36 H          49.1334    1.6715   58.9438 H         1 GTD2401     0.0000 
     37 H          51.6683    0.5085   57.8319 H         1 GTD2401     0.0000 
     38 H          50.2451   -0.5361   57.9840 H         1 GTD2401     0.0000 
     39 H          50.1119    0.3877   60.4396 H         1 GTD2401     0.0000 
     40 H          51.7811    0.9174   60.1693 H         1 GTD2401     0.0000 
     41 H          51.8007   -0.6576   62.1905 H         1 GTD2401     0.0000 
     42 H          52.2038   -3.4794   61.2650 H         1 GTD2401     0.0000 
     43 H          54.3702   -3.2047   62.7752 H         1 GTD2401     0.0000 
     44 H          54.2357   -1.5199   62.2427 H         1 GTD2401     0.0000 
     45 H          52.5711   -5.0221   63.1397 H         1 GTD2401     0.0000 
     46 H          52.1163   -4.2337   65.8392 H         1 GTD2401     0.0000 
     47 H          51.8668   -5.8563   65.1720 H         1 GTD2401     0.0000 
     48 H          56.1088   -4.5984   59.6258 H         1 GTD2401     0.0000 
     49 H          54.4034   -7.4425   62.0718 H         1 GTD2401     0.0000 
     50 H          55.3556   -5.7368   63.7183 H         1 GTD2401     0.0000 
     51 H          57.8427   -5.3345   63.2877 H         1 GTD2401     0.0000 
     52 H          48.4694    0.5061   56.9126 H         1 GTD2401     0.0000 
     53 H          48.3867    2.0934   56.6679 H         1 GTD2401     0.0000 
     54 H          49.6054    1.2467   56.0481 H         1 GTD2401     0.0000 
@<TRIPOS>BOND
     1    2    1 1    
     2   52    1 1    
     3   53    1 1    
     4   54    1 1    
     5    3    2 1    
     6    6    2 1    
     7   36    2 1    
     8    4    3 ar   
     9    5    3 ar   
    10    7    6 1    
    11   37    6 1    
    12   38    6 1    
    13    8    7 1    
    14   39    7 1    
    15   40    7 1    
    16    9    8 2    
    17   10    8 am   
    18   11   10 1    
    19   41   10 1    
    20   12   11 1    
    21   14   11 1    
    22   42   11 1    
    23   13   12 2    
    24   16   12 am   
    25   15   14 1    
    26   43   14 1    
    27   44   14 1    
    28   21   15 1    
    29   17   16 1    
    30   45   16 1    
    31   18   17 1    
    32   46   17 1    
    33   47   17 1    
    34   19   18 ar   
    35   20   18 ar   
    36   22   21 1    
    37   32   21 1    
    38   48   21 1    
    39   23   22 1    
    40   26   22 2    
    41   24   23 2    
    42   25   23 2    
    43   27   26 1    
    44   49   26 1    
    45   28   27 1    
    46   31   27 1    
    47   50   27 1    
    48   29   28 2    
    49   30   28 2    
    50   32   31 2    
    51   51   31 1    
    52   33   32 1    
    53   34   33 2    
    54   35   33 2    
@<TRIPOS>SUBSTRUCTURE
     1 GTD2401     1 GROUP   
@<TRIPOS>SET

