#    Name: 3ksl_SZH_1_INTS_M
#    Modification time : Mon Mar 24 20:27:38 2014

@<TRIPOS>MOLECULE
3ksl_SZH_1_INTS_M
   79     0     9     0     0
SMALL
NO_CHARGES


@<TRIPOS>ATOM
      1 CA        184.7340  120.9990   29.9780 C.3       3 GLC5        0.0000 
      2 CA        183.7190  121.1890   31.8760 C.3       9 GLL5        0.0000 
      3 CA        185.7490  120.8090   28.0800 C.3       6 GLP5        0.0000 
      4 CA        194.0530  121.6465   28.1375 C.3       3 GLC5        0.0000 
      5 CA        193.0540  122.6700   29.0830 C.3       9 GLL5        0.0000 
      6 CA        195.0520  120.6230   27.1920 C.3       6 GLP5        0.0000 
      7 CA        192.2700  120.8020   28.7225 C.3       3 GLC5        0.0000 
      8 CA        191.4860  118.9340   28.3620 C.3       6 GLP5        0.0000 
      9 CA        187.7800  121.5070   35.7695 C.3       3 GLC5        0.0000 
     10 CA        188.1740  122.2240   33.9570 C.3       9 GLL5        0.0000 
     11 CA        187.3860  120.7900   37.5820 C.3       6 GLP5        0.0000 
     12 CA        195.4860  123.2065   29.9125 C.3       3 GLC5        0.0000 
     13 CA        194.4940  123.9110   31.6950 C.3       9 GLL5        0.0000 
     14 CA        196.4780  122.5020   28.1300 C.3       6 GLP5        0.0000 
     15 CA        192.1200  120.0820   31.8110 C.3       3 GLC5        0.0000 
     16 CA        190.4740  121.3260   30.9310 C.3       9 GLL5        0.0000 
     17 CA        193.7660  118.8380   32.6910 C.3       6 GLP5        0.0000 
     18 CA        186.5600  121.0425   29.9010 C.3       3 GLC5        0.0000 
     19 CA        187.3710  121.2760   31.7220 C.3       9 GLL5        0.0000 
     20 CA        188.0935  119.6855   32.8230 C.3       3 GLC5        0.0000 
     21 CA        188.8160  118.0950   33.9240 C.3       6 GLP5        0.0000 
     22 N         194.1445  123.0765   36.3010 N.am      1 SEC2        0.0000 
     23 N         195.3320  123.6030   36.4530 N.am      7 SEL2        0.0000 
     24 N         192.9570  122.5500   36.1490 N.am      4 SEP2        0.0000 
     25 NZ        198.6220  124.7810   34.8450 N.4       2 LYC4        0.0000 
     26 NZ        197.5170  124.4310   35.5120 N.4       8 LYL4        0.0000 
     27 NZ        199.7270  125.1310   34.1780 N.4       5 LYP4        0.0000 
     28 N         198.6220  124.7810   34.8450 N.am      1 SEC2        0.0000 
     29 N         197.5170  124.4310   35.5120 N.am      7 SEL2        0.0000 
     30 N         199.7270  125.1310   34.1780 N.am      4 SEP2        0.0000 
     31 NZ        197.3155  127.2675   32.6620 N.4       2 LYC4        0.0000 
     32 NZ        197.0350  125.4260   32.6640 N.4       8 LYL4        0.0000 
     33 NZ        197.5960  129.1090   32.6600 N.4       5 LYP4        0.0000 
     34 NZ        197.6620  124.2895   32.2130 N.4       2 LYC4        0.0000 
     35 NZ        198.5850  121.8700   31.8610 N.4       5 LYP4        0.0000 
     36 NZ        198.3810  125.2785   33.4210 N.4       2 LYC4        0.0000 
     37 N         197.6620  124.2895   32.2130 N.am      1 SEC2        0.0000 
     38 N         197.0350  125.4260   32.6640 N.am      7 SEL2        0.0000 
     39 N         198.2890  123.1530   31.7620 N.am      4 SEP2        0.0000 
     40 NZ        197.2700  122.8955   32.9820 N.4       2 LYC4        0.0000 
     41 NZ        196.2510  122.6380   34.2020 N.4       8 LYL4        0.0000 
     42 N         195.1415  121.7145   33.9315 N.am      1 SEC2        0.0000 
     43 N         196.2510  122.6380   34.2020 N.am      7 SEL2        0.0000 
     44 N         194.0320  120.7910   33.6610 N.am      4 SEP2        0.0000 
     45 N         197.1255  121.8780   33.4960 N.am      1 SEC2        0.0000 
     46 N         198.0000  121.1180   32.7900 N.am      4 SEP2        0.0000 
     47 N         197.2700  122.8955   32.9820 N.am      1 SEC2        0.0000 
     48 NZ        196.5415  128.2075   33.0370 N.4       2 LYC4        0.0000 
     49 NZ        195.4870  127.3060   33.4140 N.4       8 LYL4        0.0000 
     50 N         196.5415  128.2075   33.0370 N.am      1 SEC2        0.0000 
     51 N         195.4870  127.3060   33.4140 N.am      7 SEL2        0.0000 
     52 N         197.5960  129.1090   32.6600 N.am      4 SEP2        0.0000 
     53 CA        181.6415  117.6145   31.5020 C.3       3 GLC5        0.0000 
     54 CA        182.6590  118.9970   31.7060 C.3       9 GLL5        0.0000 
     55 CA        180.6240  116.2320   31.2980 C.3       6 GLP5        0.0000 
     56 CA        179.6585  120.4945   32.6555 C.3       3 GLC5        0.0000 
     57 CA        181.5050  120.5890   32.3750 C.3       9 GLL5        0.0000 
     58 CA        177.8120  120.4000   32.9360 C.3       6 GLP5        0.0000 
     59 CA        180.7340  118.5900   32.4265 C.3       3 GLC5        0.0000 
     60 CA        179.9630  116.5910   32.4780 C.3       6 GLP5        0.0000 
     61 CA        181.1095  122.2000   30.5815 C.3       3 GLC5        0.0000 
     62 CA        182.1080  120.5360   30.2820 C.3       9 GLL5        0.0000 
     63 CA        180.1110  123.8640   30.8810 C.3       6 GLP5        0.0000 
     64 CA        183.3250  119.6540   28.8030 C.3       3 GLC5        0.0000 
     65 CA        184.5420  118.7720   27.3240 C.3       6 GLP5        0.0000 
     66 CA        180.9005  119.9515   29.0285 C.3       3 GLC5        0.0000 
     67 CA        179.6930  119.3670   27.7750 C.3       6 GLP5        0.0000 
     68 CA        194.2363  121.7463   32.2870 C.3       3 GLC5        0.0000 
     69 CA        193.0670  123.5120   31.4730 C.3       9 GLL5        0.0000 
     70 CA        194.6920  119.7810   32.9900 C.3       6 GLP5        0.0000 
     71 CA        191.0977  120.4725   29.5213 C.3       3 GLC5        0.0000 
     72 CA        188.9441  119.9356   33.3462 C.3       3 GLC5        0.0000 
     73 CA        189.8280  121.3920   32.3330 C.3       9 GLL5        0.0000 
     74 CA        181.0920  121.9540   32.0639 C.3       3 GLC5        0.0000 
     75 CA        179.8670  123.2350   32.0830 C.3       6 GLP5        0.0000 
     76 CA        182.7908  120.2320   33.7458 C.3       3 GLC5        0.0000 
     77 CA        183.3820  120.2310   35.4490 C.3       6 GLP5        0.0000 
     78 CA        183.3787  118.4333   31.0429 C.3       3 GLC5        0.0000 
     79 CA        184.4040  116.7680   31.1300 C.3       6 GLP5        0.0000 
@<TRIPOS>BOND
@<TRIPOS>SUBSTRUCTURE
     1 SEC2       22 GROUP        1 X    SEC  0     ROOT SEC X 2
     2 LYC4       25 GROUP        1 X    LYC  0     **** LYC X 4
     3 GLC5        1 GROUP        1 X    GLC  0     **** GLC X 6
     4 SEP2       24 GROUP        1 Y    SEP  0     ROOT SEP Y 9
     5 LYP4       27 GROUP        1 Y    LYP  0     **** LYP Y 11
     6 GLP5        3 GROUP        1 Y    GLP  0     **** GLP Y 13
     7 SEL2       23 GROUP        1 Z    SEL  0     ROOT SEL Z 16
     8 LYL4       26 GROUP        1 Z    LYL  0     **** LYL Z 18
     9 GLL5        2 GROUP        1 Z    GLL  0     **** GLL Z 20
@<TRIPOS>SET

