#    Name: 3ksl_SZH_1_ligand
#    Modification time : Mon Mar 24 20:27:38 2014

@<TRIPOS>MOLECULE
3ksl_SZH_1_ligand
   48    47     1     0     0
SMALL
NO_CHARGES


@<TRIPOS>ATOM
      1 C1        193.0670  123.5120   31.4730 C.2       1 SZH438      0.0000 
      2 C2        192.4360  122.9830   30.3950 C.2       1 SZH438      0.0000 
      3 C3        183.7190  121.1890   31.8760 C.3       1 SZH438      0.0000 
      4 C4        185.0910  120.7100   32.3270 C.2       1 SZH438      0.0000 
      5 C5        193.0540  122.6700   29.0830 C.3       1 SZH438      0.0000 
      6 C6        188.1740  122.2240   33.9570 C.3       1 SZH438      0.0000 
      7 C7        194.4940  123.9110   31.6950 C.3       1 SZH438      0.0000 
      8 C8        190.9450  122.6960   30.4300 C.3       1 SZH438      0.0000 
      9 C9        190.4740  121.3260   30.9310 C.3       1 SZH438      0.0000 
     10 C10       189.8280  121.3920   32.3330 C.3       1 SZH438      0.0000 
     11 C11       187.3710  121.2760   31.7220 C.3       1 SZH438      0.0000 
     12 C12       188.4590  122.0970   32.4510 C.3       1 SZH438      0.0000 
     13 C13       182.5390  120.3250   31.5530 C.3       1 SZH438      0.0000 
     14 N14       183.4780  123.6260   31.7060 N.3       1 SZH438      0.0000 
     15 N15       183.5640  122.4910   31.7760 N.3       1 SZH438      0.0000 
     16 O16       195.3320  123.6030   36.4530 O.co2     1 SZH438      0.0000 
     17 O17       197.5170  124.4310   35.5120 O.co2     1 SZH438      0.0000 
     18 O18       197.0350  125.4260   32.6640 O.co2     1 SZH438      0.0000 
     19 O19       185.2470  119.6010   32.8250 O.2       1 SZH438      0.0000 
     20 O20       196.2510  122.6380   34.2020 O.co2     1 SZH438      0.0000 
     21 O21       195.4870  127.3060   33.4140 O.co2     1 SZH438      0.0000 
     22 O22       186.0370  121.6750   32.1130 O.3       1 SZH438      0.0000 
     23 O23       194.4610  125.2040   32.3120 O.3       1 SZH438      0.0000 
     24 O24       195.3220  124.9660   34.5000 O.3       1 SZH438      0.0000 
     25 F25       182.6590  118.9970   31.7060 F         1 SZH438      0.0000 
     26 F26       181.5050  120.5890   32.3750 F         1 SZH438      0.0000 
     27 F27       182.1080  120.5360   30.2820 F         1 SZH438      0.0000 
     28 P28       196.1840  123.7950   35.2280 P.3       1 SZH438      0.0000 
     29 P29       195.6660  125.8210   33.1820 P.3       1 SZH438      0.0000 
     30 H         192.4584  123.7002   32.3743 H         1 SZH438      0.0000 
     31 H         184.1540  121.1209   30.5019 H         1 SZH438      0.0000 
     32 H         195.0036  123.9393   30.7376 H         1 SZH438      0.0000 
     33 H         194.9684  123.1756   32.3362 H         1 SZH438      0.0000 
     34 H         190.5258  122.8526   29.3992 H         1 SZH438      0.0000 
     35 H         190.4427  123.4856   31.0522 H         1 SZH438      0.0000 
     36 H         191.3287  120.6431   30.9695 H         1 SZH438      0.0000 
     37 H         189.7434  120.9163   30.2262 H         1 SZH438      0.0000 
     38 H         190.5424  121.8936   33.0254 H         1 SZH438      0.0000 
     39 H         189.7226  120.3526   32.7201 H         1 SZH438      0.0000 
     40 H         187.5541  120.2133   31.9475 H         1 SZH438      0.0000 
     41 H         187.5283  121.4087   30.6397 H         1 SZH438      0.0000 
     42 H         188.5381  123.0651   32.0250 H         1 SZH438      0.0000 
     43 H         193.4420  123.4844   28.6515 H         1 SZH438      0.0000 
     44 H         193.7946  122.0038   29.1708 H         1 SZH438      0.0000 
     45 H         192.3895  122.2867   28.4415 H         1 SZH438      0.0000 
     46 H         188.1417  121.3308   34.4055 H         1 SZH438      0.0000 
     47 H         188.8765  122.7612   34.4239 H         1 SZH438      0.0000 
     48 H         187.2974  122.6721   34.1326 H         1 SZH438      0.0000 
@<TRIPOS>BOND
     1    2    1 2    
     2    7    1 1    
     3   30    1 1    
     4    5    2 1    
     5    8    2 1    
     6    4    3 1    
     7   13    3 1    
     8   15    3 1    
     9   31    3 1    
    10   19    4 2    
    11   22    4 1    
    12   43    5 1    
    13   44    5 1    
    14   45    5 1    
    15   12    6 1    
    16   46    6 1    
    17   47    6 1    
    18   48    6 1    
    19   23    7 1    
    20   32    7 1    
    21   33    7 1    
    22    9    8 1    
    23   34    8 1    
    24   35    8 1    
    25   10    9 1    
    26   36    9 1    
    27   37    9 1    
    28   12   10 1    
    29   38   10 1    
    30   39   10 1    
    31   12   11 1    
    32   22   11 1    
    33   40   11 1    
    34   41   11 1    
    35   42   12 1    
    36   25   13 1    
    37   26   13 1    
    38   27   13 1    
    39   15   14 1    
    40   28   16 ar   
    41   28   17 ar   
    42   29   18 ar   
    43   28   20 ar   
    44   29   21 ar   
    45   29   23 1    
    46   28   24 1    
    47   29   24 1    
@<TRIPOS>SUBSTRUCTURE
     1 SZH438      1 GROUP   
@<TRIPOS>SET

