#    Name: 3kbo_NDP_2_INTS_M
#    Modification time : Mon Mar 24 19:08:06 2014

@<TRIPOS>MOLECULE
3kbo_NDP_2_INTS_M
   97     0    12     0     0
SMALL
NO_CHARGES


@<TRIPOS>ATOM
      1 NZ         18.9415   -4.5945   -0.2315 N.4       3 LYC4        0.0000 
      2 NZ         18.9810   -4.6740    1.7040 N.4      11 LYL4        0.0000 
      3 NZ         18.9020   -4.5150   -2.1670 N.4       7 LYP4        0.0000 
      4 N          20.3050   -4.5765    2.6040 N.am      2 SEC2        0.0000 
      5 N          18.9810   -4.6740    1.7040 N.am     10 SEL2        0.0000 
      6 N          21.6290   -4.4790    3.5040 N.am      6 SEP2        0.0000 
      7 NZ         17.8240   -4.2785   -0.5735 N.4       3 LYC4        0.0000 
      8 NZ         16.7460   -4.0420    1.0200 N.4      11 LYL4        0.0000 
      9 CA         16.2515   -2.1850    6.5500 C.3       4 GLC5        0.0000 
     10 CA         16.0360   -3.2740    5.1140 C.3      12 GLL5        0.0000 
     11 CA         16.4670   -1.0960    7.9860 C.3       8 GLP5        0.0000 
     12 CA         15.2740   -2.4680    7.0825 C.3       4 GLC5        0.0000 
     13 CA         14.0810   -3.8400    6.1790 C.3      12 GLL5        0.0000 
     14 CA         13.8020   -2.2355    4.7580 C.3       4 GLC5        0.0000 
     15 CA         13.5230   -0.6310    3.3370 C.3       8 GLP5        0.0000 
     16 CA         10.0510   -4.8260    6.3530 C.3       4 GLC5        0.0000 
     17 CA         10.5790   -3.2010    6.4810 C.3      12 GLL5        0.0000 
     18 CA          9.5230   -6.4510    6.2250 C.3       8 GLP5        0.0000 
     19 CA          9.7520   -4.7275    7.4970 C.3       4 GLC5        0.0000 
     20 CA          9.4960   -2.9810    7.3020 C.3      12 GLL5        0.0000 
     21 CA         10.0080   -6.4740    7.6920 C.3       8 GLP5        0.0000 
     22 CA         12.4570   -4.1680    9.8200 C.3       4 GLC5        0.0000 
     23 CA         10.9380   -3.2480    9.2130 C.3      12 GLL5        0.0000 
     24 CA         13.9760   -5.0880   10.4270 C.3       8 GLP5        0.0000 
     25 CA         10.4730   -4.8610    8.4525 C.3       4 GLC5        0.0000 
     26 CA         11.9165   -1.4265    8.3280 C.3       4 GLC5        0.0000 
     27 CA         12.8950    0.3950    7.4430 C.3       8 GLP5        0.0000 
     28 CA         12.8965   -4.2645    8.7225 C.3       4 GLC5        0.0000 
     29 CA         11.8170   -3.4410    7.0180 C.3      12 GLL5        0.0000 
     30 CA         10.9125   -4.9575    7.3550 C.3       4 GLC5        0.0000 
     31 N          21.7385   -1.8810    2.9450 N.am      2 SEC2        0.0000 
     32 N          20.3770   -1.6520    2.5420 N.am     10 SEL2        0.0000 
     33 N          23.1000   -2.1100    3.3480 N.am      6 SEP2        0.0000 
     34 NZ         19.8045   -2.6440   -1.1140 N.4       3 LYC4        0.0000 
     35 NZ         20.4660   -2.0800   -0.0450 N.4      11 LYL4        0.0000 
     36 N          19.8045   -2.6440   -1.1140 N.am      2 SEC2        0.0000 
     37 N          20.4660   -2.0800   -0.0450 N.am     10 SEL2        0.0000 
     38 N          19.1430   -3.2080   -2.1830 N.am      6 SEP2        0.0000 
     39 CA         20.3075    0.8815    1.2425 C.3       4 GLC5        0.0000 
     40 CA         18.2640    0.3590    1.6200 C.3      12 GLL5        0.0000 
     41 CA         22.3510    1.4040    0.8650 C.3       8 GLP5        0.0000 
     42 CA         18.9760    1.0725   -1.7020 C.3       4 GLC5        0.0000 
     43 CA         17.3140    1.7120   -0.3570 C.3      12 GLL5        0.0000 
     44 CA         20.6380    0.4330   -3.0470 C.3       8 GLP5        0.0000 
     45 CA         17.5870    5.1290    1.4770 C.3       4 GLC5        0.0000 
     46 CA         18.3060    3.7820    0.3110 C.3      12 GLL5        0.0000 
     47 CA         16.8680    6.4760    2.6430 C.3       8 GLP5        0.0000 
     48 CA         18.2410    6.1130    1.1190 C.3       4 GLC5        0.0000 
     49 CA         19.6140    5.7500   -0.4050 C.3      12 GLL5        0.0000 
     50 O          23.1445    7.5870   -2.7130 O.2       1 ALC1        0.0000 
     51 O          21.8890    8.2090   -1.8460 O.2       9 ALL1        0.0000 
     52 O          24.4000    6.9650   -3.5800 O.2       5 ALP1        0.0000 
     53 CA         23.6605    5.5615   -1.3910 C.3       4 GLC5        0.0000 
     54 CA         21.5650    5.4880   -1.7800 C.3      12 GLL5        0.0000 
     55 CA         25.7560    5.6350   -1.0020 C.3       8 GLP5        0.0000 
     56 CA         22.7715    3.3120   -2.9390 C.3       4 GLC5        0.0000 
     57 CA         21.3660    4.0980   -1.7790 C.3      12 GLL5        0.0000 
     58 CA         24.1770    2.5260   -4.0990 C.3       8 GLP5        0.0000 
     59 NZ         15.6465   -8.4975    8.1215 N.4       3 LYC4        0.0000 
     60 NZ         14.1610   -8.4580    7.3760 N.4      11 LYL4        0.0000 
     61 NZ         17.1320   -8.5370    8.8670 N.4       7 LYP4        0.0000 
     62 N          13.3305   -7.6505    8.4385 N.am      2 SEC2        0.0000 
     63 N          14.1610   -8.4580    7.3760 N.am     10 SEL2        0.0000 
     64 N          12.5000   -6.8430    9.5010 N.am      6 SEP2        0.0000 
     65 N          14.6305   -9.6005    7.9575 N.am      2 SEC2        0.0000 
     66 N          15.1000  -10.7430    8.5390 N.am      6 SEP2        0.0000 
     67 N          13.2500   -7.6715    4.5335 N.am      2 SEC2        0.0000 
     68 N          14.2740   -8.1550    5.0220 N.am     10 SEL2        0.0000 
     69 N          12.2260   -7.1880    4.0450 N.am      6 SEP2        0.0000 
     70 NZ         16.7130   -8.1560    7.6740 N.4       3 LYC4        0.0000 
     71 NZ         16.2940   -7.7750    6.4810 N.4      11 LYL4        0.0000 
     72 N          16.7130   -8.1560    7.6740 N.am      2 SEC2        0.0000 
     73 N          16.2940   -7.7750    6.4810 N.am     10 SEL2        0.0000 
     74 N          17.1320   -8.5370    8.8670 N.am      6 SEP2        0.0000 
     75 CA         14.8298   -1.8433    3.8608 C.3       4 GLC5        0.0000 
     76 CA         18.0651   -4.2264    5.0914 C.3       4 GLC5        0.0000 
     77 CA         20.0510   -4.5360    5.3150 C.3       8 GLP5        0.0000 
     78 CA         14.2885   -5.5720    3.8327 C.3       4 GLC5        0.0000 
     79 CA         16.0220   -4.7780    5.3510 C.3      12 GLL5        0.0000 
     80 CA         13.2810   -6.1960    2.2060 C.3       8 GLP5        0.0000 
     81 CA         14.7722   -5.1600    7.8827 C.3       4 GLC5        0.0000 
     82 CA         14.5700   -5.1180    5.5680 C.3      12 GLL5        0.0000 
     83 CA         15.2190   -5.8410    9.8920 C.3       8 GLP5        0.0000 
     84 CA         12.0465   -1.4630    7.0962 C.3       4 GLC5        0.0000 
     85 CA          9.5598   -1.1885    6.2443 C.3       4 GLC5        0.0000 
     86 CA          9.0820    0.7140    5.5970 C.3       8 GLP5        0.0000 
     87 CA         15.4857    1.2848    0.9167 C.3       4 GLC5        0.0000 
     88 CA         17.7430    1.6830    1.0980 C.3      12 GLL5        0.0000 
     89 CA         13.4430    0.8720    1.4630 C.3       8 GLP5        0.0000 
     90 CA         16.8633    1.9335   -2.3915 C.3       4 GLC5        0.0000 
     91 CA         16.4010    1.4160   -4.2660 C.3       8 GLP5        0.0000 
     92 CA         21.4363    5.7060    0.4652 C.3       4 GLC5        0.0000 
     93 CA         22.7240    5.3920    1.6770 C.3       8 GLP5        0.0000 
     94 CA         20.7323    2.1368   -2.2435 C.3       4 GLC5        0.0000 
     95 CA         21.5887    2.6223   -0.2875 C.3       4 GLC5        0.0000 
     96 CA         20.2870    3.5830   -1.1010 C.3      12 GLL5        0.0000 
     97 CA         21.8001    4.7900    0.1184 C.3       4 GLC5        0.0000 
@<TRIPOS>BOND
@<TRIPOS>SUBSTRUCTURE
     1 ALC1       50 GROUP        1 X    ALC  0     ROOT ALC X 1
     2 SEC2        4 GROUP        1 X    SEC  0     **** SEC X 2
     3 LYC4        1 GROUP        1 X    LYC  0     **** LYC X 4
     4 GLC5        9 GROUP        1 X    GLC  0     **** GLC X 6
     5 ALP1       52 GROUP        1 Y    ALP  0     ROOT ALP Y 8
     6 SEP2        6 GROUP        1 Y    SEP  0     **** SEP Y 9
     7 LYP4        3 GROUP        1 Y    LYP  0     **** LYP Y 11
     8 GLP5       11 GROUP        1 Y    GLP  0     **** GLP Y 13
     9 ALL1       51 GROUP        1 Z    ALL  0     ROOT ALL Z 15
    10 SEL2        5 GROUP        1 Z    SEL  0     **** SEL Z 16
    11 LYL4        2 GROUP        1 Z    LYL  0     **** LYL Z 18
    12 GLL5       10 GROUP        1 Z    GLL  0     **** GLL Z 20
@<TRIPOS>SET

