#    Name: 3kbo_NDP_2_ligand
#    Modification time : Mon Mar 24 19:08:06 2014

@<TRIPOS>MOLECULE
3kbo_NDP_2_ligand
   74    78     1     0     0
SMALL
NO_CHARGES


@<TRIPOS>ATOM
      1 PA         17.9400   -3.6800    1.8070 P.3       1 NDP313      0.0000 
      2 O1A        18.9810   -4.6740    1.7040 O.co2     1 NDP313      0.0000 
      3 O2A        16.7460   -4.0420    1.0200 O.co2     1 NDP313      0.0000 
      4 O5B        17.5170   -3.3010    3.2920 O.3       1 NDP313      0.0000 
      5 C5B        16.2370   -2.8370    3.6550 C.3       1 NDP313      0.0000 
      6 C4B        16.0360   -3.2740    5.1140 C.3       1 NDP313      0.0000 
      7 O4B        14.7790   -2.8240    5.5480 O.3       1 NDP313      0.0000 
      8 C3B        16.0220   -4.7780    5.3510 C.3       1 NDP313      0.0000 
      9 O3B        16.7740   -5.0730    6.4940 O.3       1 NDP313      0.0000 
     10 C2B        14.5700   -5.1180    5.5680 C.3       1 NDP313      0.0000 
     11 O2B        14.3090   -6.1360    6.4770 O.3       1 NDP313      0.0000 
     12 C1B        14.0810   -3.8400    6.1790 C.3       1 NDP313      0.0000 
     13 N9A        12.6750   -3.6420    5.9790 N.pl3     1 NDP313      0.0000 
     14 C8A        11.9980   -3.4760    4.8160 C.2       1 NDP313      0.0000 
     15 N7A        10.7110   -3.2240    5.1470 N.2       1 NDP313      0.0000 
     16 C5A        10.5790   -3.2010    6.4810 C.ar      1 NDP313      0.0000 
     17 C6A         9.4960   -2.9810    7.3020 C.ar      1 NDP313      0.0000 
     18 N6A         8.2790   -2.7260    6.7680 N.pl3     1 NDP313      0.0000 
     19 N1A         9.6770   -3.0310    8.6770 N.ar      1 NDP313      0.0000 
     20 C2A        10.9380   -3.2480    9.2130 C.ar      1 NDP313      0.0000 
     21 N3A        12.0140   -3.4710    8.3660 N.ar      1 NDP313      0.0000 
     22 C4A        11.8170   -3.4410    7.0180 C.ar      1 NDP313      0.0000 
     23 O3         18.3950   -2.3210    1.1870 O.3       1 NDP313      0.0000 
     24 PN         19.8010   -1.6210    1.1580 P.3       1 NDP313      0.0000 
     25 O1N        20.3770   -1.6520    2.5420 O.co2     1 NDP313      0.0000 
     26 O2N        20.4660   -2.0800   -0.0450 O.co2     1 NDP313      0.0000 
     27 O5D        19.2530   -0.1790    0.7760 O.3       1 NDP313      0.0000 
     28 C5D        18.2640    0.3590    1.6200 C.3       1 NDP313      0.0000 
     29 C4D        17.7430    1.6830    1.0980 C.3       1 NDP313      0.0000 
     30 O4D        18.7560    2.6610    1.1460 O.3       1 NDP313      0.0000 
     31 C3D        17.3140    1.7120   -0.3570 C.3       1 NDP313      0.0000 
     32 O3D        15.9800    1.2970   -0.4980 O.3       1 NDP313      0.0000 
     33 C2D        17.3370    3.1900   -0.6770 C.3       1 NDP313      0.0000 
     34 O2D        16.0850    3.6980   -0.5200 O.3       1 NDP313      0.0000 
     35 C1D        18.3060    3.7820    0.3110 C.3       1 NDP313      0.0000 
     36 N1N        19.4390    4.4000   -0.4030 N.pl3     1 NDP313      0.0000 
     37 C2N        19.6140    5.7500   -0.4050 C.2       1 NDP313      0.0000 
     38 C3N        20.6830    6.2900   -1.0880 C.2       1 NDP313      0.0000 
     39 C7N        20.9540    7.7620   -1.0330 C.2       1 NDP313      0.0000 
     40 O7N        20.2850    8.5310   -0.0780 O.2       1 NDP313      0.0000 
     41 N7N        21.8890    8.2090   -1.8460 N.am      1 NDP313      0.0000 
     42 C4N        21.5650    5.4880   -1.7800 C.3       1 NDP313      0.0000 
     43 C5N        21.3660    4.0980   -1.7790 C.2       1 NDP313      0.0000 
     44 C6N        20.2870    3.5830   -1.1010 C.2       1 NDP313      0.0000 
     45 P2B        14.8130   -7.6470    6.2990 P.3       1 NDP313      0.0000 
     46 O1X        14.1610   -8.4580    7.3760 O.co2     1 NDP313      0.0000 
     47 O2X        14.2740   -8.1550    5.0220 O.co2     1 NDP313      0.0000 
     48 O3X        16.2940   -7.7750    6.4810 O.co2     1 NDP313      0.0000 
     49 H          15.4468   -3.2846    3.0678 H         1 NDP313      0.0000 
     50 H          16.1572   -1.7590    3.6226 H         1 NDP313      0.0000 
     51 H          16.8183   -2.8407    5.7199 H         1 NDP313      0.0000 
     52 H          16.3625   -5.2560    4.4713 H         1 NDP313      0.0000 
     53 H          14.0934   -5.2164    4.6268 H         1 NDP313      0.0000 
     54 H          14.3179   -3.8665    7.2351 H         1 NDP313      0.0000 
     55 H          12.3608   -3.5274    3.9361 H         1 NDP313      0.0000 
     56 H           8.2404   -2.6639    5.7707 H         1 NDP313      0.0000 
     57 H           7.5262   -2.6223    7.4181 H         1 NDP313      0.0000 
     58 H          11.0743   -3.2436   10.2306 H         1 NDP313      0.0000 
     59 H          18.6467    0.5324    2.6452 H         1 NDP313      0.0000 
     60 H          17.3965   -0.3223    1.7251 H         1 NDP313      0.0000 
     61 H          16.8989    2.0072    1.6978 H         1 NDP313      0.0000 
     62 H          18.0039    1.2223   -0.9472 H         1 NDP313      0.0000 
     63 H          17.7447    3.3010   -1.6581 H         1 NDP313      0.0000 
     64 H          17.7896    4.4995    0.9071 H         1 NDP313      0.0000 
     65 H          18.9595    6.3680    0.0958 H         1 NDP313      0.0000 
     66 H          22.2906    7.5360   -2.4671 H         1 NDP313      0.0000 
     67 H          22.1121    9.1807   -1.7681 H         1 NDP313      0.0000 
     68 H          22.6421    5.7039   -1.4246 H         1 NDP313      0.0000 
     69 H          21.6343    5.8471   -2.8751 H         1 NDP313      0.0000 
     70 H          22.0191    3.4920   -2.2773 H         1 NDP313      0.0000 
     71 H          20.1143    2.5565   -1.1201 H         1 NDP313      0.0000 
     72 H          16.6853   -6.0618    6.6139 H         1 NDP313      0.0000 
     73 H          15.4423    2.1396   -0.4669 H         1 NDP313      0.0000 
     74 H          16.0708    4.0686    0.4087 H         1 NDP313      0.0000 
@<TRIPOS>BOND
     1    2    1 ar   
     2    3    1 ar   
     3    4    1 1    
     4   23    1 1    
     5    5    4 1    
     6    6    5 1    
     7   49    5 1    
     8   50    5 1    
     9    7    6 1    
    10    8    6 1    
    11   51    6 1    
    12   12    7 1    
    13    9    8 1    
    14   10    8 1    
    15   52    8 1    
    16   72    9 1    
    17   11   10 1    
    18   12   10 1    
    19   53   10 1    
    20   45   11 1    
    21   13   12 1    
    22   54   12 1    
    23   14   13 1    
    24   22   13 1    
    25   15   14 2    
    26   55   14 1    
    27   16   15 1    
    28   17   16 ar   
    29   22   16 ar   
    30   18   17 1    
    31   19   17 ar   
    32   56   18 1    
    33   57   18 1    
    34   20   19 ar   
    35   21   20 ar   
    36   58   20 1    
    37   22   21 ar   
    38   24   23 1    
    39   25   24 ar   
    40   26   24 ar   
    41   27   24 1    
    42   28   27 1    
    43   29   28 1    
    44   59   28 1    
    45   60   28 1    
    46   30   29 1    
    47   31   29 1    
    48   61   29 1    
    49   35   30 1    
    50   32   31 1    
    51   33   31 1    
    52   62   31 1    
    53   73   32 1    
    54   34   33 1    
    55   35   33 1    
    56   63   33 1    
    57   74   34 1    
    58   36   35 1    
    59   64   35 1    
    60   37   36 1    
    61   44   36 1    
    62   38   37 2    
    63   65   37 1    
    64   39   38 1    
    65   42   38 1    
    66   40   39 2    
    67   41   39 am   
    68   66   41 1    
    69   67   41 1    
    70   43   42 1    
    71   68   42 1    
    72   69   42 1    
    73   44   43 2    
    74   70   43 1    
    75   71   44 1    
    76   46   45 ar   
    77   47   45 ar   
    78   48   45 ar   
@<TRIPOS>SUBSTRUCTURE
     1 NDP313      1 GROUP   
@<TRIPOS>SET

