#    Name: 3B03_3_CAVITY_N1_ALL.mol2
#    Modification time : Tue Mar 11 10:20:52 2014

@<TRIPOS>MOLECULE
3B03_3_CAVITY_N1_ALL.mol2
  106     0     6     0     0
SMALL
NO_CHARGES


@<TRIPOS>ATOM
      1 N          47.7769   87.6063   17.3390 N.2       2 ALA2        0.0000 
      2 N          46.5765   88.4792   17.1221 N.2       2 ALA2        0.0000 
      3 CZ         48.4784   85.7862   16.5053 C.ar      4 PHE5        0.0000 
      4 N          47.2780   86.6590   16.2884 N.2       2 ALA2        0.0000 
      5 CZ         46.7790   85.7118   15.2378 C.ar      4 PHE5        0.0000 
      6 CZ         46.2800   84.7645   14.1872 C.ar      4 PHE5        0.0000 
      7 N          45.0796   85.6374   13.9703 N.2       2 ALA2        0.0000 
      8 N          45.7811   83.8173   13.1366 N.2       2 ALA2        0.0000 
      9 CA         44.5807   84.6901   12.9197 C.3       5 GLY6        0.0000 
     10 N          49.9284   86.0392   19.8718 N.2       2 ALA2        0.0000 
     11 N          48.7280   86.9120   19.6549 N.2       2 ALA2        0.0000 
     12 CA         47.5275   87.7849   19.4380 C.3       5 GLY6        0.0000 
     13 N          49.4295   85.0919   18.8212 N.2       2 ALA2        0.0000 
     14 DU         48.2290   85.9648   18.6043 H         6 CUB7        0.0000 
     15 N          47.0286   86.8377   18.3874 N.2       2 ALA2        0.0000 
     16 N          45.8281   87.7105   18.1705 N.2       2 ALA2        0.0000 
     17 CZ         48.9305   84.1447   17.7706 C.ar      4 PHE5        0.0000 
     18 CZ         47.7301   85.0175   17.5537 C.ar      4 PHE5        0.0000 
     19 N          46.5296   85.8904   17.3368 N.2       2 ALA2        0.0000 
     20 N          46.0307   84.9431   16.2863 N.2       2 ALA2        0.0000 
     21 CZ         45.5317   83.9959   15.2357 C.ar      4 PHE5        0.0000 
     22 N          44.3313   84.8687   15.0188 N.2       2 ALA2        0.0000 
     23 OG         44.6899   79.3542   21.9622 O.2       1 SER1        0.0000 
     24 OG         45.3914   77.5341   21.1285 O.2       1 SER1        0.0000 
     25 OG         44.1910   78.4070   20.9116 O.2       1 SER1        0.0000 
     26 OG         42.9905   79.2798   20.6947 O.2       1 SER1        0.0000 
     27 CA         44.8925   76.5868   20.0779 C.3       5 GLY6        0.0000 
     28 CA         43.6920   77.4597   19.8610 C.3       5 GLY6        0.0000 
     29 CA         42.4916   78.3326   19.6441 C.3       5 GLY6        0.0000 
     30 O          44.3935   75.6396   19.0273 O.2       2 ALA2        0.0000 
     31 O          43.1931   76.5124   18.8104 O.2       2 ALA2        0.0000 
     32 O          43.4426   77.6383   21.9600 O.2       2 ALA2        0.0000 
     33 O          42.9437   76.6911   20.9094 O.2       2 ALA2        0.0000 
     34 O          41.7433   77.5639   20.6925 O.2       2 ALA2        0.0000 
     35 O          42.4447   75.7438   19.8588 O.2       2 ALA2        0.0000 
     36 CZ         45.0328   83.0486   14.1851 C.ar      4 PHE5        0.0000 
     37 CA         43.8323   83.9215   13.9682 C.3       5 GLY6        0.0000 
     38 CA         44.5338   82.1014   13.1345 C.3       5 GLY6        0.0000 
     39 CA         49.1801   85.2705   20.9203 C.3       5 GLY6        0.0000 
     40 O          47.9796   86.1434   20.7034 O.2       2 ALA2        0.0000 
     41 N          46.7792   87.0163   20.4865 N.2       2 ALA2        0.0000 
     42 CA         48.6811   84.3233   19.8697 C.3       5 GLY6        0.0000 
     43 DU         47.4807   85.1961   19.6528 H         6 CUB7        0.0000 
     44 N          46.2802   86.0690   19.4359 N.2       2 ALA2        0.0000 
     45 N          45.0798   86.9419   19.2190 N.2       2 ALA2        0.0000 
     46 CZ         48.1822   83.3760   18.8191 C.ar      4 PHE5        0.0000 
     47 CZ         46.9817   84.2489   18.6022 C.ar      4 PHE5        0.0000 
     48 N          45.7813   85.1218   18.3853 N.2       2 ALA2        0.0000 
     49 CZ         46.4828   83.3016   17.5516 C.ar      4 PHE5        0.0000 
     50 N          45.2823   84.1745   17.3347 N.2       2 ALA2        0.0000 
     51 CZ         45.9838   82.3544   16.5010 C.ar      4 PHE5        0.0000 
     52 CA         44.7834   83.2272   16.2841 C.3       5 GLY6        0.0000 
     53 CZ         45.4849   81.4071   15.4504 C.ar      4 PHE5        0.0000 
     54 CA         44.2844   82.2800   15.2335 C.3       5 GLY6        0.0000 
     55 CA         44.9859   80.4599   14.3998 C.3       5 GLY6        0.0000 
     56 CA         43.7855   81.3327   14.1829 C.3       5 GLY6        0.0000 
     57 OD1        46.6855   81.8387   20.9159 O.3       3 ASP3        0.0000 
     58 OD1        45.4851   82.7116   20.6990 O.3       3 ASP3        0.0000 
     59 CA         47.3870   80.0186   20.0822 C.3       5 GLY6        0.0000 
     60 O          46.1866   80.8915   19.8653 O.2       2 ALA2        0.0000 
     61 N          44.9861   81.7644   19.6484 N.2       2 ALA2        0.0000 
     62 O          46.8881   79.0714   19.0316 O.2       2 ALA2        0.0000 
     63 O          45.6876   79.9442   18.8147 O.2       2 ALA2        0.0000 
     64 CA         44.4872   80.8171   18.5978 C.3       5 GLY6        0.0000 
     65 CA         45.1887   78.9970   17.7641 C.3       5 GLY6        0.0000 
     66 CA         43.9882   79.8698   17.5472 C.3       5 GLY6        0.0000 
     67 O          43.4893   78.9226   16.4967 O.2       2 ALA2        0.0000 
     68 OD1        45.9372   81.0701   21.9644 O.3       3 ASP3        0.0000 
     69 OG         45.4383   80.1229   20.9138 O.2       1 SER1        0.0000 
     70 OG         44.2378   80.9957   20.6969 O.2       1 SER1        0.0000 
     71 CA         47.3402   77.4299   20.2970 C.3       5 GLY6        0.0000 
     72 OG         46.1397   78.3027   20.0801 O.2       1 SER1        0.0000 
     73 OG         44.9393   79.1756   19.8632 O.2       1 SER1        0.0000 
     74 CA         43.7389   80.0485   19.6463 C.3       5 GLY6        0.0000 
     75 N          46.8412   76.4826   19.2464 N.2       2 ALA2        0.0000 
     76 CA         45.6408   77.3555   19.0295 C.3       5 GLY6        0.0000 
     77 OG         44.4404   78.2283   18.8126 O.2       1 SER1        0.0000 
     78 OG         43.9414   77.2811   17.7620 O.2       1 SER1        0.0000 
     79 N          50.6767   86.8078   18.8234 N.2       2 ALA2        0.0000 
     80 DU         49.4763   87.6807   18.6065 H         6 CUB7        0.0000 
     81 CA         48.2759   88.5536   18.3896 C.3       5 GLY6        0.0000 
     82 N          50.1778   85.8606   17.7728 N.2       2 ALA2        0.0000 
     83 DU         48.9773   86.7334   17.5559 H         6 CUB7        0.0000 
     84 O          49.7257   87.5021   16.5075 O.2       2 ALA2        0.0000 
     85 OD1        48.5252   88.3749   16.2906 O.3       3 ASP3        0.0000 
     86 OD1        47.3248   89.2478   16.0737 O.3       3 ASP3        0.0000 
     87 O          48.0263   87.4277   15.2400 O.2       2 ALA2        0.0000 
     88 N          46.8258   88.3005   15.0231 N.2       2 ALA2        0.0000 
     89 CA         47.5273   86.4804   14.1894 C.3       5 GLY6        0.0000 
     90 N          46.3269   87.3533   13.9725 N.2       2 ALA2        0.0000 
     91 OD1        47.2313   85.3748   21.7518 O.3       3 ASP3        0.0000 
     92 O          46.0309   86.2476   21.5349 O.2       2 ALA2        0.0000 
     93 CA         47.9328   83.5546   20.9181 C.3       5 GLY6        0.0000 
     94 OD1        46.7324   84.4275   20.7012 O.3       3 ASP3        0.0000 
     95 N          45.5319   85.3004   20.4843 N.2       2 ALA2        0.0000 
     96 CA         47.4339   82.6074   19.8675 C.3       5 GLY6        0.0000 
     97 N          46.2334   83.4803   19.6506 N.2       2 ALA2        0.0000 
     98 O          46.9349   81.6601   18.8169 O.2       2 ALA2        0.0000 
     99 N          45.7345   82.5330   18.6000 N.2       2 ALA2        0.0000 
    100 O          45.2355   81.5857   17.5494 O.2       2 ALA2        0.0000 
    101 CA         44.0351   82.4586   17.3325 C.3       5 GLY6        0.0000 
    102 CA         45.9370   79.7656   16.7157 C.3       5 GLY6        0.0000 
    103 OG         44.7366   80.6385   16.4988 O.2       1 SER1        0.0000 
    104 CA         43.5361   81.5113   16.2819 C.3       5 GLY6        0.0000 
    105 OG         44.2376   79.6912   15.4482 O.2       1 SER1        0.0000 
    106 O          43.0372   80.5641   15.2313 O.2       2 ALA2        0.0000 
@<TRIPOS>BOND
@<TRIPOS>SUBSTRUCTURE
     1 SER1       23 GROUP   
     2 ALA2        1 GROUP   
     3 ASP3       57 GROUP   
     4 PHE5        3 GROUP   
     5 GLY6        9 GROUP   
     6 CUB7       14 GROUP   
@<TRIPOS>SET

