#    Name: 3b03_VNR_3_INTS_M
#    Modification time : Mon Mar 24 18:32:14 2014

@<TRIPOS>MOLECULE
3b03_VNR_3_INTS_M
  138     0    15     0     0
SMALL
NO_CHARGES


@<TRIPOS>ATOM
      1 N          45.2475   86.8545   23.1310 N.am      2 SEC2        0.0000 
      2 N          46.3330   85.7810   22.7810 N.am     12 SEL2        0.0000 
      3 N          44.1620   87.9280   23.4810 N.am      7 SEP2        0.0000 
      4 N          45.9505   84.4105   23.1480 N.am      2 SEC2        0.0000 
      5 N          45.5680   83.0400   23.5150 N.am      7 SEP2        0.0000 
      6 O          46.0365   88.1850   21.8820 O.2       1 ALC1        0.0000 
      7 O          46.3150   86.9610   20.8770 O.2      11 ALL1        0.0000 
      8 O          45.7580   89.4090   22.8870 O.2       6 ALP1        0.0000 
      9 N          45.6510   89.3215   19.2565 N.am      2 SEC2        0.0000 
     10 N          46.2080   88.0580   18.9000 N.am     12 SEL2        0.0000 
     11 N          45.0940   90.5850   19.6130 N.am      7 SEP2        0.0000 
     12 O          44.9615   86.5385   16.8435 O.2       1 ALC1        0.0000 
     13 O          45.7330   85.6770   17.4940 O.2      11 ALL1        0.0000 
     14 O          44.1900   87.4000   16.1930 O.2       6 ALP1        0.0000 
     15 CA         43.2905   81.2295   17.5630 C.3       5 GLC5        0.0000 
     16 CA         45.1650   82.1560   16.8770 C.3      15 GLL5        0.0000 
     17 CA         41.4160   80.3030   18.2490 C.3      10 GLP5        0.0000 
     18 CA         50.2390   87.0740   21.3550 C.3       5 GLC5        0.0000 
     19 CA         49.9010   86.6820   19.3790 C.3      15 GLL5        0.0000 
     20 CA         50.5770   87.4660   23.3310 C.3      10 GLP5        0.0000 
     21 CA         49.1995   82.9955   17.6235 C.3       5 GLC5        0.0000 
     22 CA         49.3220   84.2550   18.9910 C.3      15 GLL5        0.0000 
     23 CA         49.0770   81.7360   16.2560 C.3      10 GLP5        0.0000 
     24 N          52.1025   86.5100   17.1945 N.am      2 SEC2        0.0000 
     25 N          51.4220   87.7480   17.8410 N.am     12 SEL2        0.0000 
     26 N          52.7830   85.2720   16.5480 N.am      7 SEP2        0.0000 
     27 CA         51.8845   84.1690   20.9570 C.3       5 GLC5        0.0000 
     28 CA         50.5090   83.7770   19.7720 C.3      15 GLL5        0.0000 
     29 CA         53.2600   84.5610   22.1420 C.3      10 GLP5        0.0000 
     30 CA         50.4975   82.7040   18.0130 C.3       5 GLC5        0.0000 
     31 CA         50.4860   81.6310   16.2540 C.3      10 GLP5        0.0000 
     32 NZ         41.5030   75.1350   18.1795 N.4       3 LYC4        0.0000 
     33 NZ         41.7990   76.4350   18.8760 N.4      13 LYL4        0.0000 
     34 NZ         41.9420   73.4580   16.4350 N.4       8 LYP4        0.0000 
     35 N          41.5030   75.1350   18.1795 N.am      2 SEC2        0.0000 
     36 N          41.7990   76.4350   18.8760 N.am     12 SEL2        0.0000 
     37 N          41.2070   73.8350   17.4830 N.am      7 SEP2        0.0000 
     38 N          40.7900   77.4840   18.7815 N.am      2 SEC2        0.0000 
     39 N          39.7810   78.5330   18.6870 N.am      7 SEP2        0.0000 
     40 N          42.5805   81.7355   21.2320 N.am      2 SEC2        0.0000 
     41 N          43.8830   82.3770   20.8740 N.am     12 SEL2        0.0000 
     42 N          41.2780   81.0940   21.5900 N.am      7 SEP2        0.0000 
     43 N          44.7255   82.7085   22.1945 N.am      2 SEC2        0.0000 
     44 O          43.4485   83.4820   20.2130 O.2       1 ALC1        0.0000 
     45 O          43.8830   82.3770   20.8740 O.2      11 ALL1        0.0000 
     46 O          43.0140   84.5870   19.5520 O.2       6 ALP1        0.0000 
     47 NZ         50.0515   91.5570   16.6750 N.4       3 LYC4        0.0000 
     48 NZ         50.5420   92.4170   17.5160 N.4      13 LYL4        0.0000 
     49 NZ         49.5610   90.6970   15.8340 N.4       8 LYP4        0.0000 
     50 N          50.0515   91.5570   16.6750 N.am      2 SEC2        0.0000 
     51 N          50.5420   92.4170   17.5160 N.am     12 SEL2        0.0000 
     52 N          49.5610   90.6970   15.8340 N.am      7 SEP2        0.0000 
     53 NZ         43.6235   74.7050   17.4190 N.4       3 LYC4        0.0000 
     54 NZ         44.1200   75.3930   18.5980 N.4      13 LYL4        0.0000 
     55 N          45.3440   75.1400   17.6990 N.am      2 SEC2        0.0000 
     56 N          44.1200   75.3930   18.5980 N.am     12 SEL2        0.0000 
     57 N          46.5680   74.8870   16.8000 N.am      7 SEP2        0.0000 
     58 N          43.9315   74.2510   19.3945 N.am      2 SEC2        0.0000 
     59 N          43.7430   73.1090   20.1910 N.am      7 SEP2        0.0000 
     60 N          43.6235   74.7050   17.4190 N.am      2 SEC2        0.0000 
     61 N          43.1270   74.0170   16.2400 N.am      7 SEP2        0.0000 
     62 N          42.6635   74.6140   18.0405 N.am      2 SEC2        0.0000 
     63 N          46.1060   79.4725   22.5635 N.am      2 SEC2        0.0000 
     64 N          45.1320   80.2540   22.0410 N.am     12 SEL2        0.0000 
     65 N          47.0800   78.6910   23.0860 N.am      7 SEP2        0.0000 
     66 O          44.2370   80.0850   22.9385 O.2       1 ALC1        0.0000 
     67 O          45.1320   80.2540   22.0410 O.2      11 ALL1        0.0000 
     68 O          43.3420   79.9160   23.8360 O.2       6 ALP1        0.0000 
     69 NZ         53.5740   92.8555   18.5640 N.4       3 LYC4        0.0000 
     70 NZ         52.7760   91.8880   18.6070 N.4      13 LYL4        0.0000 
     71 NZ         54.2870   95.1400   18.7280 N.4       8 LYP4        0.0000 
     72 Zn         53.4090   91.0785   19.3215 Zn        4 ZIC7        0.0000 
     73 Zn         52.7760   91.8880   18.6070 Zn       14 ZIL7        0.0000 
     74 Zn         54.0420   90.2690   20.0360 Zn        9 ZIP7        0.0000 
     75 N          53.2270   92.1180   17.0440 N.am      2 SEC2        0.0000 
     76 N          52.7760   91.8880   18.6070 N.am     12 SEL2        0.0000 
     77 N          53.6780   92.3480   15.4810 N.am      7 SEP2        0.0000 
     78 N          53.5740   92.8555   18.5640 N.am      2 SEC2        0.0000 
     79 N          54.3720   93.8230   18.5210 N.am      7 SEP2        0.0000 
     80 N          44.4250   77.4070   16.5265 N.am      2 SEC2        0.0000 
     81 N          43.5580   77.6300   17.5320 N.am     12 SEL2        0.0000 
     82 N          45.2920   77.1840   15.5210 N.am      7 SEP2        0.0000 
     83 N          42.3275   78.0645   16.7155 N.am      2 SEC2        0.0000 
     84 N          41.0970   78.4990   15.8990 N.am      7 SEP2        0.0000 
     85 CA         46.0510   78.1670   17.9680 C.3       5 GLC5        0.0000 
     86 CA         45.4700   79.0970   19.9180 C.3      15 GLL5        0.0000 
     87 CA         46.6320   77.2370   16.0180 C.3      10 GLP5        0.0000 
     88 N          49.4070   92.1510   20.2455 N.am      2 SEC2        0.0000 
     89 N          50.6170   91.9200   19.9890 N.am     12 SEL2        0.0000 
     90 N          48.1970   92.3820   20.5020 N.am      7 SEP2        0.0000 
     91 CA         44.5235   85.8470   17.9500 C.3       5 GLC5        0.0000 
     92 CA         46.4990   85.7360   18.7240 C.3      15 GLL5        0.0000 
     93 CA         42.5480   85.9580   17.1760 C.3      10 GLP5        0.0000 
     94 CA         44.9255   75.9970   21.1630 C.3       5 GLC5        0.0000 
     95 CA         45.1200   77.6490   20.2930 C.3      15 GLL5        0.0000 
     96 CA         44.7310   74.3450   22.0330 C.3      10 GLP5        0.0000 
     97 N          50.3115   90.4175   17.1030 N.am      2 SEC2        0.0000 
     98 N          51.0620   90.1380   18.3720 N.am     12 SEL2        0.0000 
     99 Zn         53.7520   89.7540   19.0795 Zn        4 ZIC7        0.0000 
    100 Zn         53.4620   89.2390   18.1230 Zn       14 ZIL7        0.0000 
    101 CA         44.9350   84.1810   11.3555 C.3       5 GLC5        0.0000 
    102 CA         44.7520   83.5100   13.2910 C.3      15 GLL5        0.0000 
    103 CA         45.1180   84.8520    9.4200 C.3      10 GLP5        0.0000 
    104 CA         45.3130   82.0925   12.1695 C.3       5 GLC5        0.0000 
    105 CA         45.8740   80.6750   11.0480 C.3      10 GLP5        0.0000 
    106 CA         46.5730   83.1150   14.4055 C.3       5 GLC5        0.0000 
    107 CA         48.3940   82.7200   15.5200 C.3      10 GLP5        0.0000 
    108 CA         43.3120   82.8155   12.0660 C.3       5 GLC5        0.0000 
    109 CA         41.8720   82.1210   10.8410 C.3      10 GLP5        0.0000 
    110 NZ         52.7450   89.9725   15.0790 N.4       3 LYC4        0.0000 
    111 NZ         51.8680   89.4650   16.0300 N.4      13 LYL4        0.0000 
    112 NZ         53.8980   91.7750   14.2940 N.4       8 LYP4        0.0000 
    113 NZ         50.7145   90.0810   15.9320 N.4       3 LYC4        0.0000 
    114 N          52.7450   89.9725   15.0790 N.am      2 SEC2        0.0000 
    115 N          51.8680   89.4650   16.0300 N.am     12 SEL2        0.0000 
    116 N          53.6220   90.4800   14.1280 N.am      7 SEP2        0.0000 
    117 N          52.7730   90.9065   15.7555 N.am      2 SEC2        0.0000 
    118 N          50.7145   90.0810   15.9320 N.am      2 SEC2        0.0000 
    119 CA         45.1895   80.7785   12.9515 C.3       5 GLC5        0.0000 
    120 CA         44.5050   80.8820   14.8550 C.3      15 GLL5        0.0000 
    121 CA         42.6180   81.7010   15.2050 C.3       5 GLC5        0.0000 
    122 CA         40.7310   82.5200   15.5550 C.3      10 GLP5        0.0000 
    123 CA         45.9565   79.5430   14.9845 C.3       5 GLC5        0.0000 
    124 CA         47.4080   78.2040   15.1140 C.3      10 GLP5        0.0000 
    125 CA         46.4495   81.8010   15.1875 C.3       5 GLC5        0.0000 
    126 CA         43.9355   79.1105   13.9520 C.3       5 GLC5        0.0000 
    127 CA         43.3660   77.3390   13.0490 C.3      10 GLP5        0.0000 
    128 CA         43.3550   83.0399   16.3428 C.3       5 GLC5        0.0000 
    129 CA         44.9530   83.4650   14.7790 C.3      15 GLL5        0.0000 
    130 CA         41.6320   83.5980   16.6800 C.3      10 GLP5        0.0000 
    131 CA         48.4205   84.2220   16.9787 C.3       5 GLC5        0.0000 
    132 CA         47.8460   85.8950   18.0270 C.3      15 GLL5        0.0000 
    133 CA         49.9808   83.0310   20.6647 C.3       5 GLC5        0.0000 
    134 CA         50.0460   82.0460   21.9480 C.3      10 GLP5        0.0000 
    135 CA         42.9880   80.5440   19.2972 C.3       5 GLC5        0.0000 
    136 CA         44.5250   81.4700   19.9990 C.3      15 GLL5        0.0000 
    137 CA         44.0872   84.9458   16.9947 C.3       5 GLC5        0.0000 
    138 CA         45.6000   83.2960   17.5410 C.3      15 GLL5        0.0000 
@<TRIPOS>BOND
@<TRIPOS>SUBSTRUCTURE
     1 ALC1        6 GROUP        1 X    ALC  0     ROOT ALC X 1
     2 SEC2        1 GROUP        1 X    SEC  0     **** SEC X 2
     3 LYC4       32 GROUP        1 X    LYC  0     **** LYC X 4
     4 ZIC7       72 GROUP        1 X    ZIC  0     **** ZIC X 5
     5 GLC5       15 GROUP        1 X    GLC  0     **** GLC X 6
     6 ALP1        8 GROUP        1 Y    ALP  0     ROOT ALP Y 8
     7 SEP2        3 GROUP        1 Y    SEP  0     **** SEP Y 9
     8 LYP4       34 GROUP        1 Y    LYP  0     **** LYP Y 11
     9 ZIP7       74 GROUP        1 Y    ZIP  0     **** ZIP Y 12
    10 GLP5       17 GROUP        1 Y    GLP  0     **** GLP Y 13
    11 ALL1        7 GROUP        1 Z    ALL  0     ROOT ALL Z 15
    12 SEL2        2 GROUP        1 Z    SEL  0     **** SEL Z 16
    13 LYL4       33 GROUP        1 Z    LYL  0     **** LYL Z 18
    14 ZIL7       73 GROUP        1 Z    ZIL  0     **** ZIL Z 19
    15 GLL5       16 GROUP        1 Z    GLL  0     **** GLL Z 20
@<TRIPOS>SET

