#    Name: 3b03_VNR_3_ligand
#    Modification time : Mon Mar 24 18:32:14 2014

@<TRIPOS>MOLECULE
3b03_VNR_3_ligand
   77    79     1     0     0
SMALL
NO_CHARGES


@<TRIPOS>ATOM
      1 P          43.2880   76.6480   18.6260 P.3       1 VNR669      0.0000 
      2 N1         46.1510   84.6120   20.8840 N.am      1 VNR669      0.0000 
      3 C2         46.1770   85.8010   21.5450 C.2       1 VNR669      0.0000 
      4 O2         46.3330   85.7810   22.7810 O.2       1 VNR669      0.0000 
      5 N3         46.3150   86.9610   20.8770 N.am      1 VNR669      0.0000 
      6 C4         46.2060   86.9750   19.5190 C.2       1 VNR669      0.0000 
      7 O4         46.2080   88.0580   18.9000 O.2       1 VNR669      0.0000 
      8 N5         45.7330   85.6770   17.4940 N.pl3     1 VNR669      0.0000 
      9 C6         45.5020   84.5850   15.4010 C.ar      1 VNR669      0.0000 
     10 C7         44.9530   83.4650   14.7790 C.ar      1 VNR669      0.0000 
     11 C8         45.0290   82.1500   15.4890 C.ar      1 VNR669      0.0000 
     12 C9         45.1650   82.1560   16.8770 C.ar      1 VNR669      0.0000 
     13 C1'        45.8980   82.0810   19.6920 C.3       1 VNR669      0.0000 
     14 C10        46.2320   84.5330   19.5420 C.2       1 VNR669      0.0000 
     15 N10        45.7620   83.3370   18.9500 N.pl3     1 VNR669      0.0000 
     16 C11        47.8460   85.8950   18.0270 C.3       1 VNR669      0.0000 
     17 C12        50.0470   87.6550   18.2170 C.3       1 VNR669      0.0000 
     18 C13        49.9010   86.6820   19.3790 C.3       1 VNR669      0.0000 
     19 C14        49.0480   85.5530   18.8480 C.2       1 VNR669      0.0000 
     20 C15        49.3220   84.2550   18.9910 C.2       1 VNR669      0.0000 
     21 O15        51.4220   87.7480   17.8410 O.3       1 VNR669      0.0000 
     22 C16        50.5090   83.7770   19.7720 C.3       1 VNR669      0.0000 
     23 O1P        41.7990   76.4350   18.8760 O.co2     1 VNR669      0.0000 
     24 C2'        44.5250   81.4700   19.9990 C.3       1 VNR669      0.0000 
     25 O2'        43.8830   82.3770   20.8740 O.3       1 VNR669      0.0000 
     26 O22        50.5420   92.4170   17.5160 O.co2     1 VNR669      0.0000 
     27 O2P        44.1200   75.3930   18.5980 O.co2     1 VNR669      0.0000 
     28 C3'        44.5950   80.1000   20.6920 C.3       1 VNR669      0.0000 
     29 O3'        45.1320   80.2540   22.0410 O.3       1 VNR669      0.0000 
     30 O33        52.7760   91.8880   18.6070 O.co2     1 VNR669      0.0000 
     31 O3P        43.5580   77.6300   17.5320 O.co2     1 VNR669      0.0000 
     32 C4'        45.4700   79.0970   19.9180 C.3       1 VNR669      0.0000 
     33 O4'        45.3500   79.2970   18.4930 O.3       1 VNR669      0.0000 
     34 O44        50.6170   91.9200   19.9890 O.co2     1 VNR669      0.0000 
     35 C4A        46.4990   85.7360   18.7240 C.3       1 VNR669      0.0000 
     36 C5'        45.1200   77.6490   20.2930 C.3       1 VNR669      0.0000 
     37 O5'        43.7370   77.4060   19.9860 O.3       1 VNR669      0.0000 
     38 P55        51.2760   91.7270   18.6350 P.3       1 VNR669      0.0000 
     39 C5A        45.8040   84.5570   16.7710 C.ar      1 VNR669      0.0000 
     40 O66        51.0620   90.1380   18.3720 O.3       1 VNR669      0.0000 
     41 O77        53.4620   89.2390   18.1230 O.co2     1 VNR669      0.0000 
     42 C7M        44.7520   83.5100   13.2910 C.3       1 VNR669      0.0000 
     43 O88        51.8680   89.4650   16.0300 O.co2     1 VNR669      0.0000 
     44 C8M        44.5050   80.8820   14.8550 C.3       1 VNR669      0.0000 
     45 P99        52.0610   89.1810   17.5130 P.3       1 VNR669      0.0000 
     46 C9A        45.6000   83.2960   17.5410 C.ar      1 VNR669      0.0000 
     47 H          46.0641   83.7233   21.4483 H         1 VNR669      0.0000 
     48 H          46.5038   87.8455   21.3872 H         1 VNR669      0.0000 
     49 H          45.1797   86.4866   17.2392 H         1 VNR669      0.0000 
     50 H          45.6880   85.4371   14.8574 H         1 VNR669      0.0000 
     51 H          44.9396   81.3036   17.4141 H         1 VNR669      0.0000 
     52 H          46.4181   82.2445   20.6433 H         1 VNR669      0.0000 
     53 H          46.4753   81.3483   19.1158 H         1 VNR669      0.0000 
     54 H          47.8374   85.2688   17.1051 H         1 VNR669      0.0000 
     55 H          47.9305   86.9466   17.6677 H         1 VNR669      0.0000 
     56 H          49.6479   88.6241   18.5368 H         1 VNR669      0.0000 
     57 H          49.4250   87.2902   17.3919 H         1 VNR669      0.0000 
     58 H          49.4038   87.1660   20.1915 H         1 VNR669      0.0000 
     59 H          50.8634   86.3130   19.6605 H         1 VNR669      0.0000 
     60 H          48.7417   83.5028   18.5783 H         1 VNR669      0.0000 
     61 H          43.9804   81.3728   19.0816 H         1 VNR669      0.0000 
     62 H          43.5895   79.6943   20.7435 H         1 VNR669      0.0000 
     63 H          46.5092   79.2682   20.2314 H         1 VNR669      0.0000 
     64 H          45.3268   77.5211   21.3569 H         1 VNR669      0.0000 
     65 H          45.7816   76.9896   19.7288 H         1 VNR669      0.0000 
     66 H          51.3674   84.1189   19.3895 H         1 VNR669      0.0000 
     67 H          50.4723   84.0780   20.7249 H         1 VNR669      0.0000 
     68 H          50.5695   82.7789   19.7820 H         1 VNR669      0.0000 
     69 H          45.6146   83.6459   12.8037 H         1 VNR669      0.0000 
     70 H          44.3501   82.6623   12.9447 H         1 VNR669      0.0000 
     71 H          44.1422   84.2552   13.0210 H         1 VNR669      0.0000 
     72 H          44.9699   80.6780   13.9934 H         1 VNR669      0.0000 
     73 H          44.6313   80.0891   15.4511 H         1 VNR669      0.0000 
     74 H          43.5276   80.9442   14.6531 H         1 VNR669      0.0000 
     75 H          43.6298   83.1554   20.2995 H         1 VNR669      0.0000 
     76 H          44.5466   79.6854   22.6189 H         1 VNR669      0.0000 
     77 H          44.6664   78.6307   18.1949 H         1 VNR669      0.0000 
@<TRIPOS>BOND
     1   23    1 ar   
     2   27    1 ar   
     3   31    1 ar   
     4   37    1 1    
     5    3    2 1    
     6   14    2 1    
     7   47    2 1    
     8    4    3 2    
     9    5    3 1    
    10    6    5 1    
    11   48    5 1    
    12    7    6 2    
    13   35    6 1    
    14   35    8 1    
    15   39    8 1    
    16   49    8 1    
    17   10    9 ar   
    18   39    9 ar   
    19   50    9 1    
    20   11   10 ar   
    21   42   10 1    
    22   12   11 ar   
    23   44   11 1    
    24   46   12 ar   
    25   51   12 1    
    26   15   13 1    
    27   24   13 1    
    28   52   13 1    
    29   53   13 1    
    30   15   14 2    
    31   35   14 1    
    32   46   15 1    
    33   19   16 1    
    34   35   16 1    
    35   54   16 1    
    36   55   16 1    
    37   18   17 1    
    38   21   17 1    
    39   56   17 1    
    40   57   17 1    
    41   19   18 1    
    42   58   18 1    
    43   59   18 1    
    44   20   19 2    
    45   22   20 1    
    46   60   20 1    
    47   45   21 1    
    48   66   22 1    
    49   67   22 1    
    50   68   22 1    
    51   25   24 1    
    52   28   24 1    
    53   61   24 1    
    54   75   25 1    
    55   38   26 ar   
    56   29   28 1    
    57   32   28 1    
    58   62   28 1    
    59   76   29 1    
    60   38   30 ar   
    61   33   32 1    
    62   36   32 1    
    63   63   32 1    
    64   77   33 1    
    65   38   34 ar   
    66   37   36 1    
    67   64   36 1    
    68   65   36 1    
    69   40   38 1    
    70   46   39 ar   
    71   45   40 1    
    72   45   41 ar   
    73   69   42 1    
    74   70   42 1    
    75   71   42 1    
    76   45   43 ar   
    77   72   44 1    
    78   73   44 1    
    79   74   44 1    
@<TRIPOS>SUBSTRUCTURE
     1 VNR669      1 GROUP   
@<TRIPOS>SET

