#    Name: 3v7s_36F_1_INTS_M
#    Modification time : Tue Mar 25 00:07:37 2014

@<TRIPOS>MOLECULE
3v7s_36F_1_INTS_M
   87     0     9     0     0
SMALL
NO_CHARGES


@<TRIPOS>ATOM
      1 CA         49.9565   22.3655   23.3170 C.3       3 GLC5        0.0000 
      2 CA         50.9900   24.1150   23.6860 C.3       9 GLL5        0.0000 
      3 CA         48.9230   20.6160   22.9480 C.3       6 GLP5        0.0000 
      4 N          49.1635   12.7805   26.5180 N.am      2 SEC2        0.0000 
      5 N          49.3040   13.6750   25.5380 N.am      8 SEL2        0.0000 
      6 N          49.0230   11.8860   27.4980 N.am      5 SEP2        0.0000 
      7 N          50.7135   14.0865   25.3810 N.am      2 SEC2        0.0000 
      8 N          52.1230   14.4980   25.2240 N.am      5 SEP2        0.0000 
      9 CA         50.4800   15.5455   20.0305 C.3       3 GLC5        0.0000 
     10 CA         48.8570   16.1200   19.6070 C.3       9 GLL5        0.0000 
     11 CA         52.1030   14.9710   20.4540 C.3       6 GLP5        0.0000 
     12 CA         49.6345   18.0470   20.3825 C.3       3 GLC5        0.0000 
     13 CA         50.4120   19.9740   21.1580 C.3       6 GLP5        0.0000 
     14 CA         49.1470   18.8725   19.3250 C.3       3 GLC5        0.0000 
     15 CA         48.6830   17.0190   18.3590 C.3       9 GLL5        0.0000 
     16 CA         49.6110   20.7260   20.2910 C.3       6 GLP5        0.0000 
     17 CA         55.5000   19.0600   17.7700 C.3       3 GLC5        0.0000 
     18 CA         54.0930   20.5810   17.6640 C.3       9 GLL5        0.0000 
     19 CA         56.9070   17.5390   17.8760 C.3       6 GLP5        0.0000 
     20 CA         52.0650   20.3385   20.1525 C.3       3 GLC5        0.0000 
     21 CA         53.7180   20.7030   19.1470 C.3       9 GLL5        0.0000 
     22 CA         50.5710   15.1410   16.2470 C.3       3 GLC5        0.0000 
     23 CA         49.5600   16.6450   17.1410 C.3       9 GLL5        0.0000 
     24 CA         51.5820   13.6370   15.3530 C.3       6 GLP5        0.0000 
     25 CA         48.8500   16.5120   15.0530 C.3       3 GLC5        0.0000 
     26 CA         48.1400   16.3790   12.9650 C.3       6 GLP5        0.0000 
     27 CA         47.3895   16.6555   17.3485 C.3       3 GLC5        0.0000 
     28 CA         45.2190   16.6660   17.5560 C.3       6 GLP5        0.0000 
     29 CA         48.4580   14.8310   17.4720 C.3       3 GLC5        0.0000 
     30 CA         47.3560   13.0170   17.8030 C.3       6 GLP5        0.0000 
     31 CA         48.9650   18.2625   22.1845 C.3       3 GLC5        0.0000 
     32 CA         47.8610   16.6070   21.8570 C.3       9 GLL5        0.0000 
     33 CA         50.0690   19.9180   22.5120 C.3       6 GLP5        0.0000 
     34 CA         51.9980   22.1150   16.1205 C.3       3 GLC5        0.0000 
     35 CA         52.8840   20.2980   16.7440 C.3       9 GLL5        0.0000 
     36 CA         51.1120   23.9320   15.4970 C.3       6 GLP5        0.0000 
     37 CA         44.4270   17.2005   26.0535 C.3       3 GLC5        0.0000 
     38 CA         45.5370   15.9070   25.0820 C.3       9 GLL5        0.0000 
     39 CA         43.3170   18.4940   27.0250 C.3       6 GLP5        0.0000 
     40 CA         43.3875   15.7060   25.5895 C.3       3 GLC5        0.0000 
     41 CA         41.2380   15.5050   26.0970 C.3       6 GLP5        0.0000 
     42 N          52.3650   15.6125   17.9100 N.am      2 SEC2        0.0000 
     43 N          52.0670   17.0220   17.5740 N.am      8 SEL2        0.0000 
     44 N          52.6630   14.2030   18.2460 N.am      5 SEP2        0.0000 
     45 N          53.9205   17.7030   16.6615 N.am      2 SEC2        0.0000 
     46 N          52.8560   17.9660   17.4560 N.am      8 SEL2        0.0000 
     47 N          54.9850   17.4400   15.8670 N.am      5 SEP2        0.0000 
     48 O          45.8240   13.7125   26.3565 O.2       1 ALC1        0.0000 
     49 O          47.0620   14.0230   25.5220 O.2       7 ALL1        0.0000 
     50 O          44.5860   13.4020   27.1910 O.2       4 ALP1        0.0000 
     51 O          47.0450   14.4130   26.9690 O.2       1 ALC1        0.0000 
     52 O          47.0280   14.8030   28.4160 O.2       4 ALP1        0.0000 
     53 O          49.6050   14.2005   23.2450 O.2       1 ALC1        0.0000 
     54 O          48.2920   14.4690   23.6890 O.2       7 ALL1        0.0000 
     55 O          50.9180   13.9320   22.8010 O.2       4 ALP1        0.0000 
     56 CA         48.2455   18.3610   24.5100 C.3       3 GLC5        0.0000 
     57 CA         46.6520   17.1170   24.3010 C.3       9 GLL5        0.0000 
     58 CA         49.8390   19.6050   24.7190 C.3       6 GLP5        0.0000 
     59 CA         46.1750   19.0045   25.1550 C.3       3 GLC5        0.0000 
     60 CA         45.6980   20.8920   26.0090 C.3       6 GLP5        0.0000 
     61 CA         51.0775   15.9760   15.6490 C.3       3 GLC5        0.0000 
     62 CA         50.8660   17.4440   17.1670 C.3       9 GLL5        0.0000 
     63 CA         51.2890   14.5080   14.1310 C.3       6 GLP5        0.0000 
     64 CA         44.8565   16.4925   22.0395 C.3       3 GLC5        0.0000 
     65 CA         46.7110   16.2040   22.7560 C.3       9 GLL5        0.0000 
     66 CA         43.0020   16.7810   21.3230 C.3       6 GLP5        0.0000 
     67 CA         46.5945   12.4765   24.7080 C.3       3 GLC5        0.0000 
     68 CA         46.0630   14.5370   24.5760 C.3       9 GLL5        0.0000 
     69 CA         47.1260   10.4160   24.8400 C.3       6 GLP5        0.0000 
     70 CA         52.4172   23.7602   24.7235 C.3       3 GLC5        0.0000 
     71 CA         53.4360   23.2920   26.4100 C.3       6 GLP5        0.0000 
     72 CA         51.6485   27.7585   20.6780 C.3       3 GLC5        0.0000 
     73 CA         52.3770   25.8960   20.6160 C.3       9 GLL5        0.0000 
     74 CA         51.2700   29.7690   20.1510 C.3       6 GLP5        0.0000 
     75 CA         47.9382   18.4685   17.6835 C.3       3 GLC5        0.0000 
     76 CA         46.7550   20.1050   17.6170 C.3       6 GLP5        0.0000 
     77 CA         46.6985   16.4949   18.6373 C.3       3 GLC5        0.0000 
     78 CA         47.7670   14.6704   18.7608 C.3       3 GLC5        0.0000 
     79 CA         47.5860   16.0780   20.4540 C.3       9 GLL5        0.0000 
     80 CA         51.1580   16.0078   18.8040 C.3       3 GLC5        0.0000 
     81 CA         45.7137   18.2488   23.1393 C.3       3 GLC5        0.0000 
     82 CA         44.7460   19.8370   22.7500 C.3       6 GLP5        0.0000 
     83 CA         53.8853   26.5355   21.5157 C.3       3 GLC5        0.0000 
     84 CA         51.6770   25.6000   21.7940 C.3       9 GLL5        0.0000 
     85 CA         55.1540   27.7250   22.4280 C.3       6 GLP5        0.0000 
     86 CA         45.1822   14.0617   22.6479 C.3       3 GLC5        0.0000 
     87 CA         43.9300   13.1130   21.4970 C.3       6 GLP5        0.0000 
@<TRIPOS>BOND
@<TRIPOS>SUBSTRUCTURE
     1 ALC1       48 GROUP        1 X    ALC  0     ROOT ALC X 1
     2 SEC2        4 GROUP        1 X    SEC  0     **** SEC X 2
     3 GLC5        1 GROUP        1 X    GLC  0     **** GLC X 6
     4 ALP1       50 GROUP        1 Y    ALP  0     ROOT ALP Y 8
     5 SEP2        6 GROUP        1 Y    SEP  0     **** SEP Y 9
     6 GLP5        3 GROUP        1 Y    GLP  0     **** GLP Y 13
     7 ALL1       49 GROUP        1 Z    ALL  0     ROOT ALL Z 15
     8 SEL2        5 GROUP        1 Z    SEL  0     **** SEL Z 16
     9 GLL5        2 GROUP        1 Z    GLL  0     **** GLL Z 20
@<TRIPOS>SET

