#    Name: 3v7s_36F_1_ligand
#    Modification time : Tue Mar 25 00:07:38 2014

@<TRIPOS>MOLECULE
3v7s_36F_1_ligand
   66    70     1     0     0
SMALL
NO_CHARGES


@<TRIPOS>ATOM
      1 CAA        50.9900   24.1150   23.6860 C.3       1 36F401      0.0000 
      2 OAB        49.3040   13.6750   25.5380 O.2       1 36F401      0.0000 
      3 OAC        55.3370   23.5110   17.8250 O.2       1 36F401      0.0000 
      4 CAD        51.6770   25.6000   21.7940 C.ar      1 36F401      0.0000 
      5 CAE        52.3770   25.8960   20.6160 C.ar      1 36F401      0.0000 
      6 CAF        52.6490   23.3660   21.7740 C.ar      1 36F401      0.0000 
      7 CAG        51.0050   18.7090   16.7960 C.2       1 36F401      0.0000 
      8 CAH        48.8570   16.1200   19.6070 C.3       1 36F401      0.0000 
      9 CAI        48.6830   17.0190   18.3590 C.3       1 36F401      0.0000 
     10 CAJ        47.5860   16.0780   20.4540 C.3       1 36F401      0.0000 
     11 CAK        54.0930   20.5810   17.6640 C.3       1 36F401      0.0000 
     12 CAL        53.7180   20.7030   19.1470 C.3       1 36F401      0.0000 
     13 CAM        49.5600   16.6450   17.1410 C.3       1 36F401      0.0000 
     14 CAN        47.8610   16.6070   21.8570 C.3       1 36F401      0.0000 
     15 CAO        52.8840   20.2980   16.7440 C.3       1 36F401      0.0000 
     16 CAP        54.6760   21.6220   19.9040 C.3       1 36F401      0.0000 
     17 CAQ        45.5370   15.9070   25.0820 C.3       1 36F401      0.0000 
     18 NAR        52.0670   17.0220   17.5740 N.2       1 36F401      0.0000 
     19 NAS        52.8560   17.9660   17.4560 N.2       1 36F401      0.0000 
     20 NAT        47.0620   14.0230   25.5220 N.am      1 36F401      0.0000 
     21 NAU        48.2920   14.4690   23.6890 N.am      1 36F401      0.0000 
     22 OAV        53.9720   25.0200   18.8690 O.3       1 36F401      0.0000 
     23 SAW        46.6520   17.1170   24.3010 S.3       1 36F401      0.0000 
     24 CAX        48.2790   14.0290   24.9530 C.2       1 36F401      0.0000 
     25 CAY        51.8070   24.3420   22.3880 C.ar      1 36F401      0.0000 
     26 CAZ        50.8660   17.4440   17.1670 C.2       1 36F401      0.0000 
     27 CBA        54.5730   23.8070   18.7450 C.2       1 36F401      0.0000 
     28 CBB        53.2060   24.9440   20.0020 C.ar      1 36F401      0.0000 
     29 CBC        53.3490   23.6640   20.5680 C.ar      1 36F401      0.0000 
     30 CBD        46.7110   16.2040   22.7560 C.3       1 36F401      0.0000 
     31 NBE        52.2810   18.9720   17.0100 N.pl3     1 36F401      0.0000 
     32 NBF        54.2020   23.0080   19.7510 N.am      1 36F401      0.0000 
     33 CBG        46.0630   14.5370   24.5760 C.3       1 36F401      0.0000 
     34 CBH        46.9010   14.7640   23.2870 C.3       1 36F401      0.0000 
     35 H          51.0694   26.3089   22.2186 H         1 36F401      0.0000 
     36 H          52.2814   26.8329   20.1908 H         1 36F401      0.0000 
     37 H          52.7504   22.4452   22.2036 H         1 36F401      0.0000 
     38 H          50.3362   19.2912   16.4542 H         1 36F401      0.0000 
     39 H          49.6806   16.5091   20.2060 H         1 36F401      0.0000 
     40 H          49.1090   15.1114   19.2788 H         1 36F401      0.0000 
     41 H          48.9027   18.0638   18.6444 H         1 36F401      0.0000 
     42 H          47.6219   16.9925   18.0512 H         1 36F401      0.0000 
     43 H          47.2320   15.0514   20.5183 H         1 36F401      0.0000 
     44 H          46.8201   16.6892   19.9816 H         1 36F401      0.0000 
     45 H          54.8234   19.7705   17.5437 H         1 36F401      0.0000 
     46 H          54.5729   21.5125   17.3370 H         1 36F401      0.0000 
     47 H          53.7372   19.7096   19.6016 H         1 36F401      0.0000 
     48 H          52.7023   21.0980   19.2257 H         1 36F401      0.0000 
     49 H          49.0147   16.8711   16.2326 H         1 36F401      0.0000 
     50 H          49.7824   15.5855   17.1802 H         1 36F401      0.0000 
     51 H          47.9391   17.6845   21.8245 H         1 36F401      0.0000 
     52 H          48.7816   16.1785   22.2272 H         1 36F401      0.0000 
     53 H          53.2279   20.3627   15.7037 H         1 36F401      0.0000 
     54 H          52.1457   21.0950   16.9006 H         1 36F401      0.0000 
     55 H          55.6698   21.5056   19.4864 H         1 36F401      0.0000 
     56 H          54.6836   21.3296   20.9481 H         1 36F401      0.0000 
     57 H          44.6162   16.1627   24.6919 H         1 36F401      0.0000 
     58 H          45.7021   16.0637   26.0887 H         1 36F401      0.0000 
     59 H          46.8125   13.7419   26.4009 H         1 36F401      0.0000 
     60 H          49.0147   14.5962   23.0949 H         1 36F401      0.0000 
     61 H          45.7640   16.3216   22.3690 H         1 36F401      0.0000 
     62 H          45.3060   13.8778   24.3918 H         1 36F401      0.0000 
     63 H          46.5648   14.0586   22.5593 H         1 36F401      0.0000 
     64 H          51.1304   23.1972   24.0575 H         1 36F401      0.0000 
     65 H          51.2445   24.7636   24.4033 H         1 36F401      0.0000 
     66 H          50.0079   24.2210   23.5300 H         1 36F401      0.0000 
@<TRIPOS>BOND
     1   25    1 1    
     2   64    1 1    
     3   65    1 1    
     4   66    1 1    
     5   24    2 2    
     6   27    3 2    
     7    5    4 ar   
     8   25    4 ar   
     9   35    4 1    
    10   28    5 ar   
    11   36    5 1    
    12   25    6 ar   
    13   29    6 ar   
    14   37    6 1    
    15   26    7 2    
    16   31    7 1    
    17   38    7 1    
    18    9    8 1    
    19   10    8 1    
    20   39    8 1    
    21   40    8 1    
    22   13    9 1    
    23   41    9 1    
    24   42    9 1    
    25   14   10 1    
    26   43   10 1    
    27   44   10 1    
    28   12   11 1    
    29   15   11 1    
    30   45   11 1    
    31   46   11 1    
    32   16   12 1    
    33   47   12 1    
    34   48   12 1    
    35   26   13 1    
    36   49   13 1    
    37   50   13 1    
    38   30   14 1    
    39   51   14 1    
    40   52   14 1    
    41   31   15 1    
    42   53   15 1    
    43   54   15 1    
    44   32   16 1    
    45   55   16 1    
    46   56   16 1    
    47   23   17 1    
    48   33   17 1    
    49   57   17 1    
    50   58   17 1    
    51   19   18 2    
    52   26   18 1    
    53   31   19 1    
    54   24   20 am   
    55   33   20 1    
    56   59   20 1    
    57   24   21 am   
    58   34   21 1    
    59   60   21 1    
    60   27   22 1    
    61   28   22 1    
    62   30   23 1    
    63   32   27 am   
    64   29   28 ar   
    65   32   29 1    
    66   34   30 1    
    67   61   30 1    
    68   34   33 1    
    69   62   33 1    
    70   63   34 1    
@<TRIPOS>SUBSTRUCTURE
     1 36F401      1 GROUP   
@<TRIPOS>SET

