#    Name: 3FUK_1_CAVITY_N1_ALL.mol2
#    Modification time : Mon Mar 10 17:21:09 2014

@<TRIPOS>MOLECULE
3FUK_1_CAVITY_N1_ALL.mol2
  160     0     7     0     0
SMALL
NO_CHARGES


@<TRIPOS>ATOM
      1 DU        -24.7593  -11.0024   -1.2571 H         7 CUB7        0.0000 
      2 N         -25.3736   -9.6436   -1.4193 N.2       2 ALA2        0.0000 
      3 O         -24.5087  -11.0656   -2.7346 O.2       2 ALA2        0.0000 
      4 O         -25.1230   -9.7068   -2.8969 O.2       2 ALA2        0.0000 
      5 O         -25.7373   -8.3480   -3.0591 O.2       2 ALA2        0.0000 
      6 OG        -26.3552  -11.5715    0.0193 O.2       1 SER1        0.0000 
      7 CA        -26.9695  -10.2127   -0.1429 C.3       6 GLY6        0.0000 
      8 CZ        -27.5838   -8.8540   -0.3051 C.ar      5 PHE5        0.0000 
      9 DU        -26.1046  -11.6347   -1.4582 H         7 CUB7        0.0000 
     10 DU        -26.7189  -10.2759   -1.6205 H         7 CUB7        0.0000 
     11 CZ        -27.3332   -8.9171   -1.7827 C.ar      5 PHE5        0.0000 
     12 DU        -25.8540  -11.6978   -2.9358 H         7 CUB7        0.0000 
     13 O         -26.4683  -10.3390   -3.0980 O.2       2 ALA2        0.0000 
     14 O         -27.0826   -8.9802   -3.2602 O.2       2 ALA2        0.0000 
     15 CZ        -29.6809   -9.2968    3.9264 C.ar      5 PHE5        0.0000 
     16 OG        -29.4303   -9.3599    2.4489 O.2       1 SER1        0.0000 
     17 OG        -28.5654  -10.7818    1.1335 O.2       1 SER1        0.0000 
     18 CZ        -29.1797   -9.4230    0.9713 C.ar      5 PHE5        0.0000 
     19 N         -32.2512   -2.6291    0.1602 N.2       2 ALA2        0.0000 
     20 OG        -27.7005  -12.2038   -0.1818 O.2       1 SER1        0.0000 
     21 DU        -28.3148  -10.8450   -0.3441 H         7 CUB7        0.0000 
     22 CZ        -28.9291   -9.4862   -0.5063 C.ar      5 PHE5        0.0000 
     23 CZ        -32.0006   -2.6922   -1.3174 C.ar      5 PHE5        0.0000 
     24 N         -32.6148   -1.3334   -1.4796 N.2       2 ALA2        0.0000 
     25 DU        -27.4499  -12.2669   -1.6594 H         7 CUB7        0.0000 
     26 CA        -28.0642  -10.9081   -1.8216 C.3       6 GLY6        0.0000 
     27 CZ        -28.6785   -9.5493   -1.9838 C.ar      5 PHE5        0.0000 
     28 N         -27.1993  -12.3300   -3.1370 N.2       2 ALA2        0.0000 
     29 N         -27.8136  -10.9712   -3.2992 N.2       2 ALA2        0.0000 
     30 CA        -28.4279   -9.6124   -3.4614 C.3       6 GLY6        0.0000 
     31 CA        -30.6625  -11.2247    5.3651 C.3       6 GLY6        0.0000 
     32 CZ        -31.2768   -9.8659    5.2028 C.ar      5 PHE5        0.0000 
     33 OG        -30.4119  -11.2878    3.8875 O.2       1 SER1        0.0000 
     34 CZ        -31.0262   -9.9290    3.7253 C.ar      5 PHE5        0.0000 
     35 CZ        -31.6405   -8.5702    3.5630 C.ar      5 PHE5        0.0000 
     36 OG        -30.1613  -11.3509    2.4099 O.2       1 SER1        0.0000 
     37 OG        -30.7756   -9.9921    2.2477 O.2       1 SER1        0.0000 
     38 OG        -31.3899   -8.6334    2.0855 O.2       1 SER1        0.0000 
     39 OG        -33.8471   -3.1982    1.4366 O.2       1 SER1        0.0000 
     40 OG        -29.2964  -12.7729    1.0946 O.2       1 SER1        0.0000 
     41 OG        -29.9107  -11.4141    0.9324 O.2       1 SER1        0.0000 
     42 OG        -30.5250  -10.0553    0.7701 O.2       1 SER1        0.0000 
     43 OG        -32.9822   -4.6201    0.1212 O.2       1 SER1        0.0000 
     44 N         -33.5965   -3.2613   -0.0410 N.2       2 ALA2        0.0000 
     45 N         -34.2108   -1.9025   -0.2032 N.2       2 ALA2        0.0000 
     46 CA        -29.0458  -12.8360   -0.3830 C.3       6 GLY6        0.0000 
     47 CA        -29.6601  -11.4772   -0.5452 C.3       6 GLY6        0.0000 
     48 CZ        -30.2744  -10.1184   -0.7074 C.ar      5 PHE5        0.0000 
     49 OG        -30.8887   -8.7596   -0.8697 O.2       1 SER1        0.0000 
     50 CZ        -33.3459   -3.3244   -1.5186 C.ar      5 PHE5        0.0000 
     51 CA        -33.9602   -1.9656   -1.6808 C.3       6 GLY6        0.0000 
     52 CA        -28.7952  -12.8991   -1.8606 C.3       6 GLY6        0.0000 
     53 CA        -29.4095  -11.5403   -2.0228 C.3       6 GLY6        0.0000 
     54 CA        -30.0238  -10.1815   -2.1850 C.3       6 GLY6        0.0000 
     55 CZ        -30.6381   -8.8227   -2.3472 C.ar      5 PHE5        0.0000 
     56 NZ        -32.8727  -10.4350    6.4792 N.2       4 LYS4        0.0000 
     57 CZ        -33.4870   -9.0762    6.3170 C.ar      5 PHE5        0.0000 
     58 NZ        -31.3935  -13.2157    5.3261 N.2       4 LYS4        0.0000 
     59 NZ        -32.0078  -11.8569    5.1639 N.2       4 LYS4        0.0000 
     60 CZ        -32.6221  -10.4981    5.0017 C.ar      5 PHE5        0.0000 
     61 CZ        -33.2364   -9.1393    4.8394 C.ar      5 PHE5        0.0000 
     62 OG        -31.1429  -13.2788    3.8485 O.2       1 SER1        0.0000 
     63 DU        -31.7572  -11.9200    3.6863 H         7 CUB7        0.0000 
     64 DU        -32.3715  -10.5612    3.5241 H         7 CUB7        0.0000 
     65 CZ        -32.9858   -9.2025    3.3619 C.ar      5 PHE5        0.0000 
     66 CZ        -33.6001   -7.8437    3.1996 C.ar      5 PHE5        0.0000 
     67 CZ        -34.2144   -6.4849    3.0374 C.ar      5 PHE5        0.0000 
     68 OD1       -34.8287   -5.1261    2.8752 O.3       3 ASP3        0.0000 
     69 CA        -30.8923  -13.3420    2.3710 C.3       6 GLY6        0.0000 
     70 CA        -31.5066  -11.9832    2.2088 C.3       6 GLY6        0.0000 
     71 DU        -32.1209  -10.6244    2.0465 H         7 CUB7        0.0000 
     72 OG        -32.7352   -9.2656    1.8843 O.2       1 SER1        0.0000 
     73 OG        -33.3495   -7.9068    1.7221 O.2       1 SER1        0.0000 
     74 OG        -33.9638   -6.5480    1.5598 O.2       1 SER1        0.0000 
     75 OG        -34.5781   -5.1892    1.3976 O.2       1 SER1        0.0000 
     76 N         -35.1924   -3.8304    1.2354 N.2       2 ALA2        0.0000 
     77 CA        -30.6417  -13.4051    0.8934 C.3       6 GLY6        0.0000 
     78 CA        -31.2560  -12.0463    0.7312 C.3       6 GLY6        0.0000 
     79 CA        -31.8703  -10.6875    0.5690 C.3       6 GLY6        0.0000 
     80 OG        -32.4846   -9.3287    0.4067 O.2       1 SER1        0.0000 
     81 OG        -33.0989   -7.9699    0.2445 O.2       1 SER1        0.0000 
     82 OG        -33.7132   -6.6111    0.0823 O.2       1 SER1        0.0000 
     83 CA        -34.3275   -5.2523   -0.0799 C.3       6 GLY6        0.0000 
     84 N         -34.9418   -3.8935   -0.2422 N.2       2 ALA2        0.0000 
     85 CA        -31.6197  -10.7506   -0.9086 C.3       6 GLY6        0.0000 
     86 OG        -32.2340   -9.3918   -1.0708 O.2       1 SER1        0.0000 
     87 CZ        -32.8483   -8.0330   -1.2331 C.ar      5 PHE5        0.0000 
     88 O         -31.9834   -9.4549   -2.5484 O.2       2 ALA2        0.0000 
     89 CZ        -32.5977   -8.0961   -2.7106 C.ar      5 PHE5        0.0000 
     90 O         -34.4686  -11.0041    7.7556 O.2       2 ALA2        0.0000 
     91 NZ        -35.0829   -9.6453    7.5934 N.2       4 LYS4        0.0000 
     92 NZ        -32.9894  -13.7848    6.6025 N.2       4 LYS4        0.0000 
     93 NZ        -33.6037  -12.4260    6.4403 N.2       4 LYS4        0.0000 
     94 NZ        -34.2180  -11.0672    6.2781 N.2       4 LYS4        0.0000 
     95 NZ        -34.8323   -9.7084    6.1158 N.2       4 LYS4        0.0000 
     96 DU        -32.7388  -13.8479    5.1249 H         7 CUB7        0.0000 
     97 DU        -33.3531  -12.4891    4.9627 H         7 CUB7        0.0000 
     98 DU        -33.9674  -11.1303    4.8005 H         7 CUB7        0.0000 
     99 DU        -34.5817   -9.7715    4.6383 H         7 CUB7        0.0000 
    100 O         -35.1960   -8.4128    4.4760 O.2       2 ALA2        0.0000 
    101 OD1       -32.4882  -13.9110    3.6474 O.3       3 ASP3        0.0000 
    102 OD1       -33.1025  -12.5523    3.4852 O.3       3 ASP3        0.0000 
    103 DU        -33.7168  -11.1935    3.3229 H         7 CUB7        0.0000 
    104 DU        -34.3311   -9.8347    3.1607 H         7 CUB7        0.0000 
    105 CZ        -34.9454   -8.4759    2.9985 C.ar      5 PHE5        0.0000 
    106 N         -35.5597   -7.1171    2.8362 N.2       2 ALA2        0.0000 
    107 NZ        -36.1740   -5.7583    2.6740 N.2       4 LYS4        0.0000 
    108 OD1       -32.8519  -12.6154    2.0076 O.3       3 ASP3        0.0000 
    109 OD1       -33.4662  -11.2566    1.8454 O.3       3 ASP3        0.0000 
    110 DU        -34.0805   -9.8978    1.6831 H         7 CUB7        0.0000 
    111 DU        -34.6948   -8.5390    1.5209 H         7 CUB7        0.0000 
    112 DU        -35.3091   -7.1802    1.3587 H         7 CUB7        0.0000 
    113 NZ        -35.9234   -5.8214    1.1965 N.2       4 LYS4        0.0000 
    114 CA        -33.2156  -11.3197    0.3678 C.3       6 GLY6        0.0000 
    115 O         -33.8299   -9.9609    0.2056 O.2       2 ALA2        0.0000 
    116 O         -34.4442   -8.6021    0.0433 O.2       2 ALA2        0.0000 
    117 O         -35.0585   -7.2433   -0.1189 O.2       2 ALA2        0.0000 
    118 N         -35.6728   -5.8845   -0.2811 N.2       2 ALA2        0.0000 
    119 CA        -33.5793  -10.0240   -1.2720 C.3       6 GLY6        0.0000 
    120 O         -34.1936   -8.6652   -1.4342 O.2       2 ALA2        0.0000 
    121 O         -34.5854  -14.3539    7.8789 O.2       2 ALA2        0.0000 
    122 O         -35.1997  -12.9951    7.7167 O.2       2 ALA2        0.0000 
    123 NZ        -35.8139  -11.6363    7.5545 N.2       4 LYS4        0.0000 
    124 O         -34.3348  -14.4170    6.4013 O.2       2 ALA2        0.0000 
    125 O         -34.9490  -13.0582    6.2391 O.2       2 ALA2        0.0000 
    126 O         -35.5633  -11.6994    6.0769 O.2       2 ALA2        0.0000 
    127 NZ        -36.1776  -10.3406    5.9147 N.2       4 LYS4        0.0000 
    128 O         -36.7919   -8.9819    5.7524 O.2       2 ALA2        0.0000 
    129 OD1       -34.0841  -14.4801    4.9238 O.3       3 ASP3        0.0000 
    130 OD1       -34.6984  -13.1214    4.7616 O.3       3 ASP3        0.0000 
    131 O         -35.3127  -11.7626    4.5993 O.2       2 ALA2        0.0000 
    132 DU        -35.9270  -10.4038    4.4371 H         7 CUB7        0.0000 
    133 CA        -36.5413   -9.0450    4.2749 C.3       6 GLY6        0.0000 
    134 CA        -37.1556   -7.6862    4.1126 C.3       6 GLY6        0.0000 
    135 OD1       -34.4478  -13.1845    3.2840 O.3       3 ASP3        0.0000 
    136 OD1       -35.0621  -11.8257    3.1218 O.3       3 ASP3        0.0000 
    137 DU        -35.6764  -10.4669    2.9595 H         7 CUB7        0.0000 
    138 DU        -36.2907   -9.1081    2.7973 H         7 CUB7        0.0000 
    139 NZ        -36.9050   -7.7493    2.6351 N.2       4 LYS4        0.0000 
    140 OD1       -34.8115  -11.8888    1.6442 O.3       3 ASP3        0.0000 
    141 O         -35.4258  -10.5300    1.4820 O.2       2 ALA2        0.0000 
    142 O         -36.0401   -9.1712    1.3197 O.2       2 ALA2        0.0000 
    143 O         -36.6544   -7.8124    1.1575 O.2       2 ALA2        0.0000 
    144 CA        -35.7895   -9.2343   -0.1578 C.3       6 GLY6        0.0000 
    145 O         -36.1813  -14.9230    9.1553 O.2       2 ALA2        0.0000 
    146 NZ        -36.7956  -13.5642    8.9931 N.2       4 LYS4        0.0000 
    147 O         -35.9307  -14.9861    7.6777 O.2       2 ALA2        0.0000 
    148 O         -36.5450  -13.6273    7.5155 O.2       2 ALA2        0.0000 
    149 DU        -35.6801  -15.0492    6.2002 H         7 CUB7        0.0000 
    150 O         -36.2943  -13.6905    6.0380 O.2       2 ALA2        0.0000 
    151 OD1       -35.4295  -15.1124    4.7226 O.3       3 ASP3        0.0000 
    152 O         -36.0437  -13.7536    4.5604 O.2       2 ALA2        0.0000 
    153 O         -36.6580  -12.3948    4.3982 O.2       2 ALA2        0.0000 
    154 O         -37.2723  -11.0360    4.2359 O.2       2 ALA2        0.0000 
    155 CA        -37.8866   -9.6772    4.0737 C.3       6 GLY6        0.0000 
    156 OD1       -35.7931  -13.8167    3.0828 O.3       3 ASP3        0.0000 
    157 OD1       -36.4074  -12.4579    2.9206 O.3       3 ASP3        0.0000 
    158 CA        -37.0217  -11.0991    2.7584 C.3       6 GLY6        0.0000 
    159 O         -37.3854   -9.8034    1.1186 O.2       2 ALA2        0.0000 
    160 O         -37.3890  -14.3858    4.3592 O.2       2 ALA2        0.0000 
@<TRIPOS>BOND
@<TRIPOS>SUBSTRUCTURE
     1 SER1        6 GROUP   
     2 ALA2        2 GROUP   
     3 ASP3       68 GROUP   
     4 LYS4       56 GROUP   
     5 PHE5        8 GROUP   
     6 GLY6        7 GROUP   
     7 CUB7        1 GROUP   
@<TRIPOS>SET

