#    Name: 3FUK_1_CAVITY_N1_6.mol2
#    Modification time : Mon Mar 10 17:21:09 2014

@<TRIPOS>MOLECULE
3FUK_1_CAVITY_N1_6.mol2
   60     0     7     0     0
SMALL
NO_CHARGES


@<TRIPOS>ATOM
      1 N         -32.2512   -2.6291    0.1602 N.2       2 ALA2        0.0000 
      2 CZ        -32.0006   -2.6922   -1.3174 C.ar      5 PHE5        0.0000 
      3 N         -32.6148   -1.3334   -1.4796 N.2       2 ALA2        0.0000 
      4 CZ        -31.6405   -8.5702    3.5630 C.ar      5 PHE5        0.0000 
      5 OG        -31.3899   -8.6334    2.0855 O.2       1 SER1        0.0000 
      6 OG        -33.8471   -3.1982    1.4366 O.2       1 SER1        0.0000 
      7 OG        -30.5250  -10.0553    0.7701 O.2       1 SER1        0.0000 
      8 OG        -32.9822   -4.6201    0.1212 O.2       1 SER1        0.0000 
      9 N         -33.5965   -3.2613   -0.0410 N.2       2 ALA2        0.0000 
     10 N         -34.2108   -1.9025   -0.2032 N.2       2 ALA2        0.0000 
     11 OG        -30.8887   -8.7596   -0.8697 O.2       1 SER1        0.0000 
     12 CZ        -33.3459   -3.3244   -1.5186 C.ar      5 PHE5        0.0000 
     13 CA        -33.9602   -1.9656   -1.6808 C.3       6 GLY6        0.0000 
     14 CZ        -30.6381   -8.8227   -2.3472 C.ar      5 PHE5        0.0000 
     15 CZ        -33.4870   -9.0762    6.3170 C.ar      5 PHE5        0.0000 
     16 CZ        -33.2364   -9.1393    4.8394 C.ar      5 PHE5        0.0000 
     17 CZ        -32.9858   -9.2025    3.3619 C.ar      5 PHE5        0.0000 
     18 CZ        -33.6001   -7.8437    3.1996 C.ar      5 PHE5        0.0000 
     19 CZ        -34.2144   -6.4849    3.0374 C.ar      5 PHE5        0.0000 
     20 OD1       -34.8287   -5.1261    2.8752 O.3       3 ASP3        0.0000 
     21 OG        -32.7352   -9.2656    1.8843 O.2       1 SER1        0.0000 
     22 OG        -33.3495   -7.9068    1.7221 O.2       1 SER1        0.0000 
     23 OG        -33.9638   -6.5480    1.5598 O.2       1 SER1        0.0000 
     24 OG        -34.5781   -5.1892    1.3976 O.2       1 SER1        0.0000 
     25 N         -35.1924   -3.8304    1.2354 N.2       2 ALA2        0.0000 
     26 CA        -31.8703  -10.6875    0.5690 C.3       6 GLY6        0.0000 
     27 OG        -32.4846   -9.3287    0.4067 O.2       1 SER1        0.0000 
     28 OG        -33.0989   -7.9699    0.2445 O.2       1 SER1        0.0000 
     29 OG        -33.7132   -6.6111    0.0823 O.2       1 SER1        0.0000 
     30 CA        -34.3275   -5.2523   -0.0799 C.3       6 GLY6        0.0000 
     31 N         -34.9418   -3.8935   -0.2422 N.2       2 ALA2        0.0000 
     32 OG        -32.2340   -9.3918   -1.0708 O.2       1 SER1        0.0000 
     33 CZ        -32.8483   -8.0330   -1.2331 C.ar      5 PHE5        0.0000 
     34 O         -31.9834   -9.4549   -2.5484 O.2       2 ALA2        0.0000 
     35 CZ        -32.5977   -8.0961   -2.7106 C.ar      5 PHE5        0.0000 
     36 DU        -34.5817   -9.7715    4.6383 H         7 CUB7        0.0000 
     37 O         -35.1960   -8.4128    4.4760 O.2       2 ALA2        0.0000 
     38 DU        -34.3311   -9.8347    3.1607 H         7 CUB7        0.0000 
     39 CZ        -34.9454   -8.4759    2.9985 C.ar      5 PHE5        0.0000 
     40 N         -35.5597   -7.1171    2.8362 N.2       2 ALA2        0.0000 
     41 NZ        -36.1740   -5.7583    2.6740 N.2       4 LYS4        0.0000 
     42 DU        -34.0805   -9.8978    1.6831 H         7 CUB7        0.0000 
     43 DU        -34.6948   -8.5390    1.5209 H         7 CUB7        0.0000 
     44 DU        -35.3091   -7.1802    1.3587 H         7 CUB7        0.0000 
     45 NZ        -35.9234   -5.8214    1.1965 N.2       4 LYS4        0.0000 
     46 O         -33.8299   -9.9609    0.2056 O.2       2 ALA2        0.0000 
     47 O         -34.4442   -8.6021    0.0433 O.2       2 ALA2        0.0000 
     48 O         -35.0585   -7.2433   -0.1189 O.2       2 ALA2        0.0000 
     49 N         -35.6728   -5.8845   -0.2811 N.2       2 ALA2        0.0000 
     50 CA        -33.5793  -10.0240   -1.2720 C.3       6 GLY6        0.0000 
     51 O         -34.1936   -8.6652   -1.4342 O.2       2 ALA2        0.0000 
     52 CA        -36.5413   -9.0450    4.2749 C.3       6 GLY6        0.0000 
     53 CA        -37.1556   -7.6862    4.1126 C.3       6 GLY6        0.0000 
     54 DU        -36.2907   -9.1081    2.7973 H         7 CUB7        0.0000 
     55 NZ        -36.9050   -7.7493    2.6351 N.2       4 LYS4        0.0000 
     56 O         -35.4258  -10.5300    1.4820 O.2       2 ALA2        0.0000 
     57 O         -36.0401   -9.1712    1.3197 O.2       2 ALA2        0.0000 
     58 O         -36.6544   -7.8124    1.1575 O.2       2 ALA2        0.0000 
     59 CA        -35.7895   -9.2343   -0.1578 C.3       6 GLY6        0.0000 
     60 O         -37.3854   -9.8034    1.1186 O.2       2 ALA2        0.0000 
@<TRIPOS>BOND
@<TRIPOS>SUBSTRUCTURE
     1 SER1        5 GROUP   
     2 ALA2        1 GROUP   
     3 ASP3       20 GROUP   
     4 LYS4       41 GROUP   
     5 PHE5        2 GROUP   
     6 GLY6       13 GROUP   
     7 CUB7       36 GROUP   
@<TRIPOS>SET

