#    Name: 3fuk_58Z_1_INTS_M
#    Modification time : Tue Mar 25 06:30:58 2014

@<TRIPOS>MOLECULE
3fuk_58Z_1_INTS_M
   56     0     9     0     0
SMALL
NO_CHARGES


@<TRIPOS>ATOM
      1 Zn        -35.6915   -3.6665    3.7000 Zn        2 ZIC7        0.0000 
      2 Zn        -36.3690   -3.7590    2.5380 Zn        8 ZIL7        0.0000 
      3 Zn        -35.0140   -3.5740    4.8620 Zn        5 ZIP7        0.0000 
      4 N         -37.5720   -4.2835    2.3275 N.am      1 SEC2        0.0000 
      5 N         -36.3690   -3.7590    2.5380 N.am      7 SEL2        0.0000 
      6 N         -38.7750   -4.8080    2.1170 N.am      4 SEP2        0.0000 
      7 Zn        -34.6555   -3.8845    3.9600 Zn        2 ZIC7        0.0000 
      8 Zn        -34.2970   -4.1950    3.0580 Zn        8 ZIL7        0.0000 
      9 N         -33.0805   -4.6405    2.9205 N.am      1 SEC2        0.0000 
     10 N         -34.2970   -4.1950    3.0580 N.am      7 SEL2        0.0000 
     11 N         -31.8640   -5.0860    2.7830 N.am      4 SEP2        0.0000 
     12 CA        -31.6025   -5.3755    0.3585 C.3       3 GLC5        0.0000 
     13 CA        -33.5030   -4.9300    0.4550 C.3       9 GLL5        0.0000 
     14 CA        -29.7020   -5.8210    0.2620 C.3       6 GLP5        0.0000 
     15 CA        -30.8930   -4.1730    0.5920 C.3       3 GLC5        0.0000 
     16 CA        -32.6090   -3.6810    0.3700 C.3       9 GLL5        0.0000 
     17 CA        -29.1770   -4.6650    0.8140 C.3       6 GLP5        0.0000 
     18 CA        -37.3675   -4.5525   -0.7695 C.3       3 GLC5        0.0000 
     19 CA        -35.4290   -3.6440   -0.2550 C.3       9 GLL5        0.0000 
     20 CA        -39.3060   -5.4610   -1.2840 C.3       6 GLP5        0.0000 
     21 CA        -37.0120   -2.6890   -0.6395 C.3       3 GLC5        0.0000 
     22 CA        -38.5950   -1.7340   -1.0240 C.3       6 GLP5        0.0000 
     23 CA        -34.0855   -3.7270   -2.0480 C.3       3 GLC5        0.0000 
     24 CA        -34.5970   -2.3800   -0.4460 C.3       9 GLL5        0.0000 
     25 CA        -33.5740   -5.0740   -3.6500 C.3       6 GLP5        0.0000 
     26 CA        -35.3200   -1.0790   -0.7460 C.3       3 GLC5        0.0000 
     27 CA        -36.0430    0.2220   -1.0460 C.3       6 GLP5        0.0000 
     28 CA        -32.4715    0.1195   -1.6010 C.3       3 GLC5        0.0000 
     29 CA        -32.3930   -2.0500   -1.5960 C.3       9 GLL5        0.0000 
     30 CA        -32.5500    2.2890   -1.6060 C.3       6 GLP5        0.0000 
     31 CA        -34.2180   -0.9140   -1.3210 C.3       3 GLC5        0.0000 
     32 CA        -30.0400   -3.4295   -0.2240 C.3       3 GLC5        0.0000 
     33 CA        -30.9030   -2.1940   -1.2620 C.3       9 GLL5        0.0000 
     34 CA        -23.4165    1.0105    1.9030 C.3       3 GLC5        0.0000 
     35 CA        -25.0580   -0.4070    1.3500 C.3       9 GLL5        0.0000 
     36 CA        -21.7750    2.4280    2.4560 C.3       6 GLP5        0.0000 
     37 CA        -35.0455   -4.9430   -1.5288 C.3       3 GLC5        0.0000 
     38 CA        -34.8950   -5.7420   -3.3290 C.3       6 GLP5        0.0000 
     39 CA        -32.7210   -4.9238   -1.3337 C.3       3 GLC5        0.0000 
     40 CA        -32.3860   -5.5420   -3.0800 C.3       6 GLP5        0.0000 
     41 CA        -32.2410   -5.0537    2.1433 C.3       3 GLC5        0.0000 
     42 CA        -31.4260   -5.8020    3.8740 C.3       6 GLP5        0.0000 
     43 CA        -31.3875   -3.0015   -2.8415 C.3       3 GLC5        0.0000 
     44 CA        -31.1270   -3.8810   -4.2540 C.3       6 GLP5        0.0000 
     45 CA        -26.1385   -2.7714   -0.5390 C.3       3 GLC5        0.0000 
     46 CA        -25.5160   -1.2000    0.3110 C.3       9 GLL5        0.0000 
     47 CA        -25.8490   -4.4460   -1.0610 C.3       6 GLP5        0.0000 
     48 CA        -25.2141    0.7276   -0.3444 C.3       3 GLC5        0.0000 
     49 CA        -26.8650   -0.7640    0.1190 C.3       9 GLL5        0.0000 
     50 CA        -24.0230    1.6860   -1.5870 C.3       6 GLP5        0.0000 
     51 CA        -30.3991    1.3806    0.0451 C.3       3 GLC5        0.0000 
     52 CA        -28.4620    0.7970    1.0020 C.3       9 GLL5        0.0000 
     53 CA        -31.9390    2.4440   -0.2230 C.3       6 GLP5        0.0000 
     54 CA        -27.8327    1.6974   -0.4211 C.3       3 GLC5        0.0000 
     55 CA        -29.4110    0.3420    0.0840 C.3       9 GLL5        0.0000 
     56 CA        -27.7230    3.3690   -1.2820 C.3       6 GLP5        0.0000 
@<TRIPOS>BOND
@<TRIPOS>SUBSTRUCTURE
     1 SEC2        4 GROUP        1 X    SEC  0     ROOT SEC X 2
     2 ZIC7        1 GROUP        1 X    ZIC  0     **** ZIC X 5
     3 GLC5       12 GROUP        1 X    GLC  0     **** GLC X 6
     4 SEP2        6 GROUP        1 Y    SEP  0     ROOT SEP Y 9
     5 ZIP7        3 GROUP        1 Y    ZIP  0     **** ZIP Y 12
     6 GLP5       14 GROUP        1 Y    GLP  0     **** GLP Y 13
     7 SEL2        5 GROUP        1 Z    SEL  0     ROOT SEL Z 16
     8 ZIL7        2 GROUP        1 Z    ZIL  0     **** ZIL Z 19
     9 GLL5       13 GROUP        1 Z    GLL  0     **** GLL Z 20
@<TRIPOS>SET

