#    Name: 3fuk_58Z_1_ligand
#    Modification time : Tue Mar 25 06:30:58 2014

@<TRIPOS>MOLECULE
3fuk_58Z_1_ligand
   41    43     1     0     0
SMALL
NO_CHARGES


@<TRIPOS>ATOM
      1 O21       -36.3690   -3.7590    2.5380 O.co2     1 58Z710      0.0000 
      2 C19       -35.2230   -4.1670    2.2180 C.2       1 58Z710      0.0000 
      3 O20       -34.2970   -4.1950    3.0580 O.co2     1 58Z710      0.0000 
      4 C16       -34.9630   -4.6440    0.7980 C.3       1 58Z710      0.0000 
      5 C15       -33.5030   -4.9300    0.4550 C.3       1 58Z710      0.0000 
      6 C14       -32.6090   -3.6810    0.3700 C.3       1 58Z710      0.0000 
      7 C17       -35.4290   -3.6440   -0.2550 C.3       1 58Z710      0.0000 
      8 C18       -34.5970   -2.3800   -0.4460 C.3       1 58Z710      0.0000 
      9 N13       -33.1890   -2.7230   -0.5620 N.4       1 58Z710      0.0000 
     10 C12       -32.3930   -2.0500   -1.5960 C.3       1 58Z710      0.0000 
     11 C11       -30.9030   -2.1940   -1.2620 C.3       1 58Z710      0.0000 
     12 O10       -30.0730   -1.1100   -1.7170 O.3       1 58Z710      0.0000 
     13 C3        -29.1020   -0.6670   -0.8350 C.ar      1 58Z710      0.0000 
     14 C2        -29.4110    0.3420    0.0840 C.ar      1 58Z710      0.0000 
     15 C4        -27.8150   -1.2230   -0.8090 C.ar      1 58Z710      0.0000 
     16 C5        -26.8650   -0.7640    0.1190 C.ar      1 58Z710      0.0000 
     17 C7        -25.5160   -1.2000    0.3110 C.2       1 58Z710      0.0000 
     18 C8        -25.0580   -0.4070    1.3500 C.2       1 58Z710      0.0000 
     19 N9        -26.0600    0.4320    1.7530 N.pl3     1 58Z710      0.0000 
     20 C6        -27.1860    0.2330    1.0140 C.ar      1 58Z710      0.0000 
     21 C1        -28.4620    0.7970    1.0020 C.ar      1 58Z710      0.0000 
     22 H         -35.5250   -5.5712    0.6153 H         1 58Z710      0.0000 
     23 H         -33.4576   -5.4616   -0.5116 H         1 58Z710      0.0000 
     24 H         -33.0820   -5.6131    1.2135 H         1 58Z710      0.0000 
     25 H         -31.6168   -3.9985    0.0445 H         1 58Z710      0.0000 
     26 H         -32.5262   -3.2572    1.3724 H         1 58Z710      0.0000 
     27 H         -36.4808   -3.3434   -0.0175 H         1 58Z710      0.0000 
     28 H         -35.5010   -4.1729   -1.2389 H         1 58Z710      0.0000 
     29 H         -34.7726   -1.7223    0.4109 H         1 58Z710      0.0000 
     30 H         -34.9531   -1.8689   -1.3458 H         1 58Z710      0.0000 
     31 H         -33.5155   -3.7778   -1.4790 H         1 58Z710      0.0000 
     32 H         -32.6321   -0.9890   -1.6422 H         1 58Z710      0.0000 
     33 H         -32.5688   -2.4951   -2.5738 H         1 58Z710      0.0000 
     34 H         -30.5607   -3.1658   -1.6911 H         1 58Z710      0.0000 
     35 H         -30.8231   -2.3205   -0.1560 H         1 58Z710      0.0000 
     36 H         -30.3578    0.7567    0.0824 H         1 58Z710      0.0000 
     37 H         -27.5650   -1.9671   -1.4688 H         1 58Z710      0.0000 
     38 H         -25.0832   -1.8526   -0.1580 H         1 58Z710      0.0000 
     39 H         -24.1732   -0.4475    1.7223 H         1 58Z710      0.0000 
     40 H         -25.9759    1.0844    2.4737 H         1 58Z710      0.0000 
     41 H         -28.7023    1.5415    1.6633 H         1 58Z710      0.0000 
@<TRIPOS>BOND
     1    2    1 ar   
     2    3    2 ar   
     3    4    2 1    
     4    5    4 1    
     5    7    4 1    
     6   22    4 1    
     7    6    5 1    
     8   23    5 1    
     9   24    5 1    
    10    9    6 1    
    11   25    6 1    
    12   26    6 1    
    13    8    7 1    
    14   27    7 1    
    15   28    7 1    
    16    9    8 1    
    17   29    8 1    
    18   30    8 1    
    19   10    9 1    
    20   31    9 1    
    21   11   10 1    
    22   32   10 1    
    23   33   10 1    
    24   12   11 1    
    25   34   11 1    
    26   35   11 1    
    27   13   12 1    
    28   14   13 ar   
    29   15   13 ar   
    30   21   14 ar   
    31   36   14 1    
    32   16   15 ar   
    33   37   15 1    
    34   17   16 1    
    35   20   16 ar   
    36   18   17 2    
    37   38   17 1    
    38   19   18 1    
    39   39   18 1    
    40   20   19 1    
    41   40   19 1    
    42   21   20 ar   
    43   41   21 1    
@<TRIPOS>SUBSTRUCTURE
     1 58Z710      1 GROUP   
@<TRIPOS>SET

