#    Name: 2fpy_ILF_2_INTS_M
#    Modification time : Tue Mar 25 13:02:58 2014

@<TRIPOS>MOLECULE
2fpy_ILF_2_INTS_M
   86     0     9     0     0
SMALL
NO_CHARGES


@<TRIPOS>ATOM
      1 CA         52.6255   47.4280   -3.6480 C.3       3 GLC5        0.0000 
      2 CA         54.2150   47.1660   -2.2320 C.3       9 GLL5        0.0000 
      3 CA         51.0360   47.6900   -5.0640 C.3       6 GLP5        0.0000 
      4 CA         54.7050   44.2395    0.0235 C.3       3 GLC5        0.0000 
      5 CA         54.2830   46.2080    0.0760 C.3       9 GLL5        0.0000 
      6 CA         55.1270   42.2710   -0.0290 C.3       6 GLP5        0.0000 
      7 CA         54.2530   47.5365    2.2740 C.3       3 GLC5        0.0000 
      8 CA         55.3250   47.1330    0.4330 C.3       9 GLL5        0.0000 
      9 CA         53.1810   47.9400    4.1150 C.3       6 GLP5        0.0000 
     10 CA         48.4640   38.0975   -4.6360 C.3       3 GLC5        0.0000 
     11 CA         47.8890   39.6950   -3.2020 C.3       9 GLL5        0.0000 
     12 CA         49.0390   36.5000   -6.0700 C.3       6 GLP5        0.0000 
     13 CA         46.9985   41.3035   -2.7465 C.3       3 GLC5        0.0000 
     14 CA         46.1080   42.9120   -2.2910 C.3       6 GLP5        0.0000 
     15 CA         55.4050   46.0055   -5.2250 C.3       3 GLC5        0.0000 
     16 CA         56.6270   47.3350   -4.2380 C.3       9 GLL5        0.0000 
     17 CA         54.1830   44.6760   -6.2120 C.3       6 GLP5        0.0000 
     18 CA         56.3360   50.4295   -5.6545 C.3       3 GLC5        0.0000 
     19 CA         57.1580   49.4520   -4.5620 C.3       9 GLL5        0.0000 
     20 CA         55.5140   51.4070   -6.7470 C.3       6 GLP5        0.0000 
     21 CA         50.2695   43.0530    1.3620 C.3       3 GLC5        0.0000 
     22 CA         49.4900   43.9050   -0.1060 C.3       9 GLL5        0.0000 
     23 CA         51.0490   42.2010    2.8300 C.3       6 GLP5        0.0000 
     24 CA         46.0200   37.1955    0.0685 C.3       3 GLC5        0.0000 
     25 CA         47.1190   38.2260   -1.2280 C.3       9 GLL5        0.0000 
     26 CA         44.9210   36.1650    1.3650 C.3       6 GLP5        0.0000 
     27 CA         47.2475   37.1480   -4.4220 C.3       3 GLC5        0.0000 
     28 CA         46.8480   38.4090   -2.8880 C.3       9 GLL5        0.0000 
     29 CA         47.6470   35.8870   -5.9560 C.3       6 GLP5        0.0000 
     30 N          48.0070   41.8755   -5.9185 N.am      1 SEC2        0.0000 
     31 N          48.9270   40.9900   -4.8570 N.am      7 SEL2        0.0000 
     32 N          47.0870   42.7610   -6.9800 N.am      4 SEP2        0.0000 
     33 N          49.2695   40.2780   -6.3690 N.am      1 SEC2        0.0000 
     34 N          49.6120   39.5660   -7.8810 N.am      4 SEP2        0.0000 
     35 NZ         47.2025   39.7890   -6.7060 N.4       2 LYC4        0.0000 
     36 NZ         47.0860   39.8990   -5.4360 N.4       8 LYL4        0.0000 
     37 NZ         48.4830   39.4310   -8.5640 N.4       5 LYP4        0.0000 
     38 N          47.2025   39.7890   -6.7060 N.am      1 SEC2        0.0000 
     39 N          47.0860   39.8990   -5.4360 N.am      7 SEL2        0.0000 
     40 N          47.3190   39.6790   -7.9760 N.am      4 SEP2        0.0000 
     41 CA         57.2373   46.3218    0.0610 C.3       3 GLC5        0.0000 
     42 CA         58.9020   45.0400    0.1660 C.3       6 GLP5        0.0000 
     43 CA         55.9278   48.3302    1.5205 C.3       3 GLC5        0.0000 
     44 CA         56.2830   49.0570    3.0850 C.3       6 GLP5        0.0000 
     45 CA         54.1835   48.9922   -0.3180 C.3       3 GLC5        0.0000 
     46 CA         55.8200   48.0740   -0.5210 C.3       9 GLL5        0.0000 
     47 CA         52.8130   49.8840    0.5680 C.3       6 GLP5        0.0000 
     48 CA         52.9390   48.2480   -1.2070 C.3       3 GLC5        0.0000 
     49 CA         51.9180   49.8100   -0.6640 C.3       6 GLP5        0.0000 
     50 CA         51.0143   45.7950   -2.7337 C.3       3 GLC5        0.0000 
     51 CA         52.6670   45.2380   -1.5630 C.3       9 GLL5        0.0000 
     52 CA         49.9420   46.4540   -4.3530 C.3       6 GLP5        0.0000 
     53 CA         53.8085   48.2772    0.4112 C.3       3 GLC5        0.0000 
     54 CA         50.2608   45.0445   -2.9587 C.3       3 GLC5        0.0000 
     55 CA         50.5190   44.0510   -0.9620 C.3       9 GLL5        0.0000 
     56 CA         53.2892   43.6268   -1.0739 C.3       3 GLC5        0.0000 
     57 CA         52.7610   44.4050   -2.7600 C.3       9 GLL5        0.0000 
     58 CA         53.6050   42.1900   -0.0600 C.3       6 GLP5        0.0000 
     59 CA         55.4425   50.3115   -3.8325 C.3       3 GLC5        0.0000 
     60 CA         56.8620   48.5320   -3.6160 C.3       9 GLL5        0.0000 
     61 CA         53.8750   51.6310   -3.5760 C.3       6 GLP5        0.0000 
     62 CA         55.5207   48.5752   -5.3710 C.3       3 GLC5        0.0000 
     63 CA         54.2970   49.2170   -6.8150 C.3       6 GLP5        0.0000 
     64 CA         58.3588   46.9651   -2.8581 C.3       3 GLC5        0.0000 
     65 CA         59.7030   46.0310   -1.9920 C.3       6 GLP5        0.0000 
     66 CA         51.9281   43.2069   -0.2600 C.3       3 GLC5        0.0000 
     67 CA         51.5060   45.0340   -0.6660 C.3       9 GLL5        0.0000 
     68 CA         49.3716   45.3549    0.5985 C.3       3 GLC5        0.0000 
     69 CA         48.4920   46.4860    1.6570 C.3       6 GLP5        0.0000 
     70 CA         48.3939   44.0445   -1.5601 C.3       3 GLC5        0.0000 
     71 CA         46.7530   44.3190   -2.2850 C.3       6 GLP5        0.0000 
     72 CA         51.9378   41.3668   -4.5585 C.3       3 GLC5        0.0000 
     73 CA         51.7620   43.4140   -3.0560 C.3       9 GLL5        0.0000 
     74 CA         52.0420   39.6820   -5.5130 C.3       6 GLP5        0.0000 
     75 CA         51.0126   44.8766   -3.9415 C.3       3 GLC5        0.0000 
     76 CA         51.9050   42.6890   -4.1520 C.3       9 GLL5        0.0000 
     77 CA         53.1331   43.9876   -4.8710 C.3       3 GLC5        0.0000 
     78 CA         52.5790   42.5964   -1.7209 C.3       3 GLC5        0.0000 
     79 CA         49.4934   38.2024   -1.0373 C.3       3 GLC5        0.0000 
     80 CA         48.5050   40.0300   -1.9520 C.3       9 GLL5        0.0000 
     81 CA         51.2880   37.4860   -0.7530 C.3       6 GLP5        0.0000 
     82 CA         46.1857   36.6093   -2.4715 C.3       3 GLC5        0.0000 
     83 CA         45.3880   34.9010   -2.8850 C.3       6 GLP5        0.0000 
     84 CA         46.9075   40.6313   -1.3182 C.3       3 GLC5        0.0000 
     85 CA         48.0520   39.1930   -0.8780 C.3       9 GLL5        0.0000 
     86 CA         46.1840   42.2980   -0.9000 C.3       6 GLP5        0.0000 
@<TRIPOS>BOND
@<TRIPOS>SUBSTRUCTURE
     1 SEC2       30 GROUP        1 X    SEC  0     ROOT SEC X 2
     2 LYC4       35 GROUP        1 X    LYC  0     **** LYC X 4
     3 GLC5        1 GROUP        1 X    GLC  0     **** GLC X 6
     4 SEP2       32 GROUP        1 Y    SEP  0     ROOT SEP Y 9
     5 LYP4       37 GROUP        1 Y    LYP  0     **** LYP Y 11
     6 GLP5        3 GROUP        1 Y    GLP  0     **** GLP Y 13
     7 SEL2       31 GROUP        1 Z    SEL  0     ROOT SEL Z 16
     8 LYL4       36 GROUP        1 Z    LYL  0     **** LYL Z 18
     9 GLL5        2 GROUP        1 Z    GLL  0     **** GLL Z 20
@<TRIPOS>SET

