#    Name: 2fpy_ILF_2_ligand
#    Modification time : Tue Mar 25 13:02:58 2014

@<TRIPOS>MOLECULE
2fpy_ILF_2_ligand
   39    41     1     0     0
SMALL
NO_CHARGES


@<TRIPOS>ATOM
      1 C1         55.8200   48.0740   -0.5210 C.ar      1 ILF407      0.0000 
      2 C2         55.2880   48.1270   -1.8870 C.ar      1 ILF407      0.0000 
      3 C8         54.2150   47.1660   -2.2320 C.ar      1 ILF407      0.0000 
      4 C9         53.7050   46.2060   -1.2680 C.ar      1 ILF407      0.0000 
      5 C10        52.6670   45.2380   -1.5630 C.ar      1 ILF407      0.0000 
      6 C11        54.2830   46.2080    0.0760 C.ar      1 ILF407      0.0000 
      7 C12        55.3250   47.1330    0.4330 C.ar      1 ILF407      0.0000 
      8 C13        51.5060   45.0340   -0.6660 C.ar      1 ILF407      0.0000 
      9 C14        50.5190   44.0510   -0.9620 C.ar      1 ILF407      0.0000 
     10 C16        50.6400   43.2190   -2.1670 C.ar      1 ILF407      0.0000 
     11 C20        52.7610   44.4050   -2.7600 C.ar      1 ILF407      0.0000 
     12 C21        49.4690   41.0570   -1.6800 C.2       1 ILF407      0.0000 
     13 C22        48.5050   40.0300   -1.9520 C.2       1 ILF407      0.0000 
     14 C24        48.0520   39.1930   -0.8780 C.2       1 ILF407      0.0000 
     15 C27        47.8890   39.6950   -3.2020 C.2       1 ILF407      0.0000 
     16 O3         55.6890   48.9950   -2.8940 O.3       1 ILF407      0.0000 
     17 C4         56.8620   48.5320   -3.6160 C.3       1 ILF407      0.0000 
     18 F5         57.9420   48.3950   -2.8050 F         1 ILF407      0.0000 
     19 F6         56.6270   47.3350   -4.2380 F         1 ILF407      0.0000 
     20 F7         57.1580   49.4520   -4.5620 F         1 ILF407      0.0000 
     21 F15        49.4900   43.9050   -0.1060 F         1 ILF407      0.0000 
     22 N17        49.6870   42.2320   -2.4650 N.am      1 ILF407      0.0000 
     23 C18        51.7620   43.4140   -3.0560 C.ar      1 ILF407      0.0000 
     24 F19        51.9050   42.6890   -4.1520 F         1 ILF407      0.0000 
     25 O23        50.1970   40.9250   -0.6440 O.2       1 ILF407      0.0000 
     26 C25        47.1190   38.2260   -1.2280 C.2       1 ILF407      0.0000 
     27 S26        46.8480   38.4090   -2.8880 S.3       1 ILF407      0.0000 
     28 C28        48.0140   40.2290   -4.5090 C.2       1 ILF407      0.0000 
     29 O29        48.9270   40.9900   -4.8570 O.co2     1 ILF407      0.0000 
     30 O30        47.0860   39.8990   -5.4360 O.co2     1 ILF407      0.0000 
     31 H          56.5574   48.7286   -0.2633 H         1 ILF407      0.0000 
     32 H          53.8320   47.1882   -3.1738 H         1 ILF407      0.0000 
     33 H          53.9360   45.5420    0.7598 H         1 ILF407      0.0000 
     34 H          55.7105   47.1135    1.3753 H         1 ILF407      0.0000 
     35 H          51.4354   45.6137    0.1628 H         1 ILF407      0.0000 
     36 H          53.5500   44.5360   -3.3879 H         1 ILF407      0.0000 
     37 H          48.3952   39.3149    0.0419 H         1 ILF407      0.0000 
     38 H          49.0886   42.3557   -3.3203 H         1 ILF407      0.0000 
     39 H          46.6672   37.5842   -0.8147 H         1 ILF407      0.0000 
@<TRIPOS>BOND
     1    2    1 ar   
     2    7    1 ar   
     3   31    1 1    
     4    3    2 ar   
     5   16    2 1    
     6    4    3 ar   
     7   32    3 1    
     8    5    4 1    
     9    6    4 ar   
    10    8    5 ar   
    11   11    5 ar   
    12    7    6 ar   
    13   33    6 1    
    14   34    7 1    
    15    9    8 ar   
    16   35    8 1    
    17   10    9 ar   
    18   21    9 1    
    19   22   10 1    
    20   23   10 ar   
    21   23   11 ar   
    22   36   11 1    
    23   13   12 1    
    24   22   12 am   
    25   25   12 2    
    26   14   13 1    
    27   15   13 2    
    28   26   14 2    
    29   37   14 1    
    30   27   15 1    
    31   28   15 1    
    32   17   16 1    
    33   18   17 1    
    34   19   17 1    
    35   20   17 1    
    36   38   22 1    
    37   24   23 1    
    38   27   26 1    
    39   39   26 1    
    40   29   28 ar   
    41   30   28 ar   
@<TRIPOS>SUBSTRUCTURE
     1 ILF407      1 GROUP   
@<TRIPOS>SET

