#    Name: 2g1o_2IG_1_INTS_M
#    Modification time : Tue Mar 25 13:23:00 2014

@<TRIPOS>MOLECULE
2g1o_2IG_1_INTS_M
   58     0     6     0     0
SMALL
NO_CHARGES


@<TRIPOS>ATOM
      1 O           7.4980   94.3355  139.2695 O.2       1 ALC1        0.0000 
      2 O           7.4130   95.4010  140.3860 O.2       5 ALL1        0.0000 
      3 O           7.5830   93.2700  138.1530 O.2       3 ALP1        0.0000 
      4 O           6.7015   98.7640  143.8920 O.2       1 ALC1        0.0000 
      5 O           6.6240   97.4790  144.3990 O.2       5 ALL1        0.0000 
      6 O           6.7790  100.0490  143.3850 O.2       3 ALP1        0.0000 
      7 O           7.5405   98.9350  144.5765 O.2       1 ALC1        0.0000 
      8 O           8.4570  100.3910  144.7540 O.2       3 ALP1        0.0000 
      9 CA          8.0850   93.2785  145.2560 C.3       2 GLC5        0.0000 
     10 CA          9.7440   93.9210  144.5580 C.3       6 GLL5        0.0000 
     11 CA          6.4260   92.6360  145.9540 C.3       4 GLP5        0.0000 
     12 CA         12.6735   95.4420  145.1375 C.3       2 GLC5        0.0000 
     13 CA         11.1070   94.5830  144.7600 C.3       6 GLL5        0.0000 
     14 CA         14.2400   96.3010  145.5150 C.3       4 GLP5        0.0000 
     15 CA         11.2185   96.6545  144.5555 C.3       2 GLC5        0.0000 
     16 CA         11.3300   98.7260  144.3510 C.3       4 GLP5        0.0000 
     17 CA         14.5630   93.5825  141.0910 C.3       2 GLC5        0.0000 
     18 CA         13.8410   95.3600  140.5560 C.3       6 GLL5        0.0000 
     19 CA         15.2850   91.8050  141.6260 C.3       4 GLP5        0.0000 
     20 CA         15.9590   96.7535  140.4465 C.3       2 GLC5        0.0000 
     21 CA         13.9140   96.8670  140.8390 C.3       6 GLL5        0.0000 
     22 CA         18.0040   96.6400  140.0540 C.3       4 GLP5        0.0000 
     23 CA         13.3800   98.5200  139.4265 C.3       2 GLC5        0.0000 
     24 CA         12.8460  100.1730  138.0140 C.3       4 GLP5        0.0000 
     25 CA         16.4510   97.5530  141.1925 C.3       2 GLC5        0.0000 
     26 CA         14.8980   98.4660  142.3310 C.3       6 GLL5        0.0000 
     27 CA         16.6555   99.5510  141.9570 C.3       2 GLC5        0.0000 
     28 CA         18.4130  100.6360  141.5830 C.3       4 GLP5        0.0000 
     29 CA         14.5690   97.3835  143.9230 C.3       2 GLC5        0.0000 
     30 CA         13.1140   98.5960  143.3410 C.3       2 GLC5        0.0000 
     31 CA         15.6910   93.4230  138.4315 C.3       2 GLC5        0.0000 
     32 CA         14.0920   92.3870  137.9290 C.3       6 GLL5        0.0000 
     33 CA         17.2900   94.4590  138.9340 C.3       4 GLP5        0.0000 
     34 CA         10.9645   89.2615  137.7600 C.3       2 GLC5        0.0000 
     35 CA         12.4280   90.1270  138.5590 C.3       6 GLL5        0.0000 
     36 CA          9.5010   88.3960  136.9610 C.3       4 GLP5        0.0000 
     37 CA         14.0670   89.3000  139.3715 C.3       2 GLC5        0.0000 
     38 CA         15.7060   88.4730  140.1840 C.3       4 GLP5        0.0000 
     39 CA         11.9650   89.2020  136.7100 C.3       2 GLC5        0.0000 
     40 CA         13.5780   89.9740  137.7210 C.3       6 GLL5        0.0000 
     41 CA         10.3520   88.4300  135.6990 C.3       4 GLP5        0.0000 
     42 CA          6.8425   93.6908  142.5966 C.3       2 GLC5        0.0000 
     43 CA          8.6100   94.5920  142.3100 C.3       6 GLL5        0.0000 
     44 CA          5.2150   92.4830  142.3360 C.3       4 GLP5        0.0000 
     45 CA         10.3187   95.5645  146.2580 C.3       2 GLC5        0.0000 
     46 CA         10.2120   96.8770  147.8570 C.3       4 GLP5        0.0000 
     47 CA         10.9422   92.8185  145.6870 C.3       2 GLC5        0.0000 
     48 CA         11.4590   91.3850  146.7150 C.3       4 GLP5        0.0000 
     49 CA          7.2147   92.6783  141.8938 C.3       2 GLC5        0.0000 
     50 CA          9.3570   93.5670  141.5190 C.3       6 GLL5        0.0000 
     51 CA         15.3460   94.8245  139.4400 C.3       2 GLC5        0.0000 
     52 CA         12.9630   95.0200  139.3360 C.3       6 GLL5        0.0000 
     53 CA         12.9180   87.9408  138.3575 C.3       2 GLC5        0.0000 
     54 CA         12.8330   85.8310  138.5750 C.3       4 GLP5        0.0000 
     55 CA         14.7180   89.5205  136.0652 C.3       2 GLC5        0.0000 
     56 CA         15.4420   88.5060  134.5670 C.3       4 GLP5        0.0000 
     57 CA         15.3365   89.6865  138.3263 C.3       2 GLC5        0.0000 
     58 CA         16.6790   88.8380  139.0890 C.3       4 GLP5        0.0000 
@<TRIPOS>BOND
@<TRIPOS>SUBSTRUCTURE
     1 ALC1        1 GROUP        1 X    ALC  0     ROOT ALC X 1
     2 GLC5        9 GROUP        1 X    GLC  0     **** GLC X 6
     3 ALP1        3 GROUP        1 Y    ALP  0     ROOT ALP Y 8
     4 GLP5       11 GROUP        1 Y    GLP  0     **** GLP Y 13
     5 ALL1        2 GROUP        1 Z    ALL  0     ROOT ALL Z 15
     6 GLL5       10 GROUP        1 Z    GLL  0     **** GLL Z 20
@<TRIPOS>SET

