#    Name: 2g1o_2IG_1_ligand
#    Modification time : Tue Mar 25 13:23:00 2014

@<TRIPOS>MOLECULE
2g1o_2IG_1_ligand
   53    56     1     0     0
SMALL
NO_CHARGES


@<TRIPOS>ATOM
      1 C1          7.6800   95.4700  141.7070 C.ar      1 2IG885      0.0000 
      2 N1          7.0060   96.4310  142.3780 N.ar      1 2IG885      0.0000 
      3 C2          7.2560   96.5310  143.6940 C.ar      1 2IG885      0.0000 
      4 N2          8.1090   95.7400  144.3610 N.ar      1 2IG885      0.0000 
      5 C3          8.7950   94.7660  143.7060 C.ar      1 2IG885      0.0000 
      6 C4          8.6100   94.5920  142.3100 C.ar      1 2IG885      0.0000 
      7 N3          7.4130   95.4010  140.3860 N.pl3     1 2IG885      0.0000 
      8 N4          6.6240   97.4790  144.3990 N.pl3     1 2IG885      0.0000 
      9 C5          9.7440   93.9210  144.5580 C.3       1 2IG885      0.0000 
     10 C6         11.1070   94.5830  144.7600 C.3       1 2IG885      0.0000 
     11 C7          9.0720   92.1800  141.3840 C.ar      1 2IG885      0.0000 
     12 C8          9.9320   91.3350  140.5800 C.ar      1 2IG885      0.0000 
     13 C9         11.0530   91.9160  139.9380 C.ar      1 2IG885      0.0000 
     14 C10        11.3040   93.2710  140.0830 C.ar      1 2IG885      0.0000 
     15 C11        10.4770   94.0870  140.8580 C.ar      1 2IG885      0.0000 
     16 C12         9.3570   93.5670  141.5190 C.ar      1 2IG885      0.0000 
     17 N5         12.4300   93.6370  139.3830 N.pl3     1 2IG885      0.0000 
     18 C13        12.9630   95.0200  139.3360 C.3       1 2IG885      0.0000 
     19 C14        13.8410   95.3600  140.5560 C.3       1 2IG885      0.0000 
     20 C15        13.9140   96.8670  140.8390 C.3       1 2IG885      0.0000 
     21 O1         14.7420   97.1070  141.9680 O.3       1 2IG885      0.0000 
     22 C16        14.8980   98.4660  142.3310 C.3       1 2IG885      0.0000 
     23 C17        14.0920   92.3870  137.9290 C.ar      1 2IG885      0.0000 
     24 C18        12.9450   92.5200  138.7610 C.ar      1 2IG885      0.0000 
     25 C19        12.1310   91.4100  139.0660 C.ar      1 2IG885      0.0000 
     26 C20        12.4280   90.1270  138.5590 C.ar      1 2IG885      0.0000 
     27 C21        13.5780   89.9740  137.7210 C.ar      1 2IG885      0.0000 
     28 C22        14.4100   91.0960  137.4060 C.ar      1 2IG885      0.0000 
     29 H           7.5519   94.5094  139.9550 H         1 2IG885      0.0000 
     30 H           7.1000   96.2476  139.9556 H         1 2IG885      0.0000 
     31 H           6.0800   97.1608  145.1754 H         1 2IG885      0.0000 
     32 H           6.7528   98.4199  144.0856 H         1 2IG885      0.0000 
     33 H           9.8869   92.9468  144.0745 H         1 2IG885      0.0000 
     34 H           9.2831   93.7437  145.5375 H         1 2IG885      0.0000 
     35 H           8.2678   91.7702  141.8469 H         1 2IG885      0.0000 
     36 H           9.7240   90.3552  140.4887 H         1 2IG885      0.0000 
     37 H          10.6942   95.0944  140.9466 H         1 2IG885      0.0000 
     38 H          12.1377   95.7468  139.2972 H         1 2IG885      0.0000 
     39 H          13.5690   95.1657  138.4291 H         1 2IG885      0.0000 
     40 H          14.8532   94.9791  140.3808 H         1 2IG885      0.0000 
     41 H          13.4361   94.8494  141.4367 H         1 2IG885      0.0000 
     42 H          12.8882   97.2219  140.9976 H         1 2IG885      0.0000 
     43 H          14.2997   97.3532  139.9344 H         1 2IG885      0.0000 
     44 H          14.6679   93.1830  137.7124 H         1 2IG885      0.0000 
     45 H          11.8497   89.3315  138.7765 H         1 2IG885      0.0000 
     46 H          13.8081   89.0545  137.3433 H         1 2IG885      0.0000 
     47 H          15.2232   90.9730  136.8126 H         1 2IG885      0.0000 
     48 H          11.7153   94.0180  145.3174 H         1 2IG885      0.0000 
     49 H          11.5733   94.7460  143.8905 H         1 2IG885      0.0000 
     50 H          11.0258   95.4675  145.2193 H         1 2IG885      0.0000 
     51 H          15.4900   98.5714  143.1300 H         1 2IG885      0.0000 
     52 H          15.3044   99.0035  141.5921 H         1 2IG885      0.0000 
     53 H          14.0224   98.8930  142.5567 H         1 2IG885      0.0000 
@<TRIPOS>BOND
     1    2    1 ar   
     2    6    1 ar   
     3    7    1 1    
     4    3    2 ar   
     5    4    3 ar   
     6    8    3 1    
     7    5    4 ar   
     8    6    5 ar   
     9    9    5 1    
    10   16    6 1    
    11   29    7 1    
    12   30    7 1    
    13   31    8 1    
    14   32    8 1    
    15   10    9 1    
    16   33    9 1    
    17   34    9 1    
    18   48   10 1    
    19   49   10 1    
    20   50   10 1    
    21   12   11 ar   
    22   16   11 ar   
    23   35   11 1    
    24   13   12 ar   
    25   36   12 1    
    26   14   13 ar   
    27   25   13 1    
    28   15   14 ar   
    29   17   14 1    
    30   16   15 ar   
    31   37   15 1    
    32   18   17 1    
    33   24   17 1    
    34   19   18 1    
    35   38   18 1    
    36   39   18 1    
    37   20   19 1    
    38   40   19 1    
    39   41   19 1    
    40   21   20 1    
    41   42   20 1    
    42   43   20 1    
    43   22   21 1    
    44   51   22 1    
    45   52   22 1    
    46   53   22 1    
    47   24   23 ar   
    48   28   23 ar   
    49   44   23 1    
    50   25   24 ar   
    51   26   25 ar   
    52   27   26 ar   
    53   45   26 1    
    54   28   27 ar   
    55   46   27 1    
    56   47   28 1    
@<TRIPOS>SUBSTRUCTURE
     1 2IG885      1 GROUP   
@<TRIPOS>SET

