#    Name: 2OB2_3_CAVITY_N1_6.mol2
#    Modification time : Tue Mar 11 02:22:33 2014

@<TRIPOS>MOLECULE
2OB2_3_CAVITY_N1_6.mol2
   43     0     5     0     0
SMALL
NO_CHARGES


@<TRIPOS>ATOM
      1 O          24.8883  113.4210  -31.7688 O.2       2 ALA2        0.0000 
      2 OD1        23.0271  110.6435  -31.5017 O.3       3 ASP3        0.0000 
      3 OD1        23.3235  112.0137  -32.0352 O.3       3 ASP3        0.0000 
      4 O          23.6198  113.3840  -32.5686 O.2       2 ALA2        0.0000 
      5 NZ         23.9162  114.7542  -33.1020 N.2       4 LYS4        0.0000 
      6 CA         22.0550  111.9767  -32.8349 C.3       5 GLY6        0.0000 
      7 CA         22.3514  113.3470  -33.3684 C.3       5 GLY6        0.0000 
      8 NZ         22.6477  114.7172  -33.9018 N.2       4 LYS4        0.0000 
      9 OG         32.4898  113.1120  -32.5576 O.2       1 SER1        0.0000 
     10 N          30.9249  111.7047  -32.8239 N.2       2 ALA2        0.0000 
     11 OG         31.2213  113.0750  -33.3573 O.2       1 SER1        0.0000 
     12 OG         29.9528  113.0380  -34.1571 O.2       1 SER1        0.0000 
     13 N          28.3880  111.6307  -34.4234 N.2       2 ALA2        0.0000 
     14 CA         28.6844  113.0009  -34.9568 C.3       5 GLY6        0.0000 
     15 CA         27.1195  111.5937  -35.2232 C.3       5 GLY6        0.0000 
     16 N          27.4159  112.9639  -35.7566 N.2       2 ALA2        0.0000 
     17 NZ         25.8511  111.5567  -36.0229 N.2       4 LYS4        0.0000 
     18 N          26.1474  112.9269  -36.5564 N.2       2 ALA2        0.0000 
     19 CA         24.5826  111.5197  -36.8227 C.3       5 GLY6        0.0000 
     20 O          30.1812  112.3138  -31.6724 O.2       2 ALA2        0.0000 
     21 O          30.4775  113.6841  -32.2059 O.2       2 ALA2        0.0000 
     22 CA         28.9127  112.2768  -32.4722 C.3       5 GLY6        0.0000 
     23 O          29.2091  113.6471  -33.0056 O.2       2 ALA2        0.0000 
     24 O          26.6721  113.5730  -34.6052 O.2       2 ALA2        0.0000 
     25 NZ         25.1073  112.1658  -34.8715 N.2       4 LYS4        0.0000 
     26 N          25.4037  113.5360  -35.4049 N.2       2 ALA2        0.0000 
     27 N          23.8389  112.1288  -35.6713 N.2       2 ALA2        0.0000 
     28 N          24.1352  113.4990  -36.2047 N.2       2 ALA2        0.0000 
     29 OG         33.2335  112.5029  -33.7090 O.2       1 SER1        0.0000 
     30 O          27.8633  110.9846  -36.3746 O.2       2 ALA2        0.0000 
     31 CA         26.5948  110.9476  -37.1744 C.3       5 GLY6        0.0000 
     32 O          29.4374  112.9229  -30.5210 O.2       2 ALA2        0.0000 
     33 NZ         23.7709  110.0344  -32.6532 N.2       4 LYS4        0.0000 
     34 CA         24.0672  111.4046  -33.1866 C.3       5 GLY6        0.0000 
     35 CA         24.3636  112.7749  -33.7200 C.3       5 GLY6        0.0000 
     36 N          24.6599  114.1451  -34.2535 N.2       2 ALA2        0.0000 
     37 O          22.5024  109.9973  -33.4529 O.2       2 ALA2        0.0000 
     38 O          22.7987  111.3676  -33.9864 O.2       2 ALA2        0.0000 
     39 N          23.0951  112.7379  -34.5198 N.2       2 ALA2        0.0000 
     40 N          23.3915  114.1081  -35.0532 N.2       2 ALA2        0.0000 
     41 N          23.6878  115.4784  -35.5867 N.2       2 ALA2        0.0000 
     42 OD1        23.8482  112.6598  -30.0840 O.3       3 ASP3        0.0000 
     43 O          24.1445  114.0301  -30.6174 O.2       2 ALA2        0.0000 
@<TRIPOS>BOND
@<TRIPOS>SUBSTRUCTURE
     1 SER1        9 GROUP   
     2 ALA2        1 GROUP   
     3 ASP3        2 GROUP   
     4 LYS4        5 GROUP   
     5 GLY6        6 GROUP   
@<TRIPOS>SET

