#    Name: 2OB2_3_CAVITY_N1_ALL.mol2
#    Modification time : Tue Mar 11 02:22:33 2014

@<TRIPOS>MOLECULE
2OB2_3_CAVITY_N1_ALL.mol2
   72     0     7     0     0
SMALL
NO_CHARGES


@<TRIPOS>ATOM
      1 CA         31.2306  113.6060  -27.7700 C.3       6 GLY6        0.0000 
      2 O          31.5270  114.9763  -28.3035 O.2       2 ALA2        0.0000 
      3 OG         31.8233  116.3466  -28.8369 O.2       1 SER1        0.0000 
      4 O          29.9622  113.5690  -28.5698 O.2       2 ALA2        0.0000 
      5 O          30.5549  116.3096  -29.6367 O.2       2 ALA2        0.0000 
      6 O          24.8883  113.4210  -31.7688 O.2       2 ALA2        0.0000 
      7 OD1        23.0271  110.6435  -31.5017 O.3       3 ASP3        0.0000 
      8 OD1        23.3235  112.0137  -32.0352 O.3       3 ASP3        0.0000 
      9 O          23.6198  113.3840  -32.5686 O.2       2 ALA2        0.0000 
     10 NZ         23.9162  114.7542  -33.1020 N.2       4 LYS4        0.0000 
     11 CA         22.0550  111.9767  -32.8349 C.3       6 GLY6        0.0000 
     12 CA         22.3514  113.3470  -33.3684 C.3       6 GLY6        0.0000 
     13 NZ         22.6477  114.7172  -33.9018 N.2       4 LYS4        0.0000 
     14 CA         33.4619  111.7787  -31.2244 C.3       6 GLY6        0.0000 
     15 DU         33.7582  113.1490  -31.7578 H         7 CUB7        0.0000 
     16 CA         32.1934  111.7417  -32.0241 C.3       6 GLY6        0.0000 
     17 OG         32.4898  113.1120  -32.5576 O.2       1 SER1        0.0000 
     18 OG         32.7861  114.4822  -33.0910 O.2       1 SER1        0.0000 
     19 N          30.9249  111.7047  -32.8239 N.2       2 ALA2        0.0000 
     20 OG         31.2213  113.0750  -33.3573 O.2       1 SER1        0.0000 
     21 OG         29.9528  113.0380  -34.1571 O.2       1 SER1        0.0000 
     22 N          28.3880  111.6307  -34.4234 N.2       2 ALA2        0.0000 
     23 CA         28.6844  113.0009  -34.9568 C.3       6 GLY6        0.0000 
     24 CA         27.1195  111.5937  -35.2232 C.3       6 GLY6        0.0000 
     25 N          27.4159  112.9639  -35.7566 N.2       2 ALA2        0.0000 
     26 NZ         25.8511  111.5567  -36.0229 N.2       4 LYS4        0.0000 
     27 N          26.1474  112.9269  -36.5564 N.2       2 ALA2        0.0000 
     28 CA         24.5826  111.5197  -36.8227 C.3       6 GLY6        0.0000 
     29 CA         32.7181  112.3878  -30.0729 C.3       6 GLY6        0.0000 
     30 DU         33.0145  113.7581  -30.6064 H         7 CUB7        0.0000 
     31 CA         33.3108  115.1283  -31.1398 C.3       6 GLY6        0.0000 
     32 CA         31.4497  112.3508  -30.8727 C.3       6 GLY6        0.0000 
     33 DU         31.7460  113.7211  -31.4061 H         7 CUB7        0.0000 
     34 CA         32.0424  115.0913  -31.9396 C.3       6 GLY6        0.0000 
     35 O          30.1812  112.3138  -31.6724 O.2       2 ALA2        0.0000 
     36 O          30.4775  113.6841  -32.2059 O.2       2 ALA2        0.0000 
     37 CA         28.9127  112.2768  -32.4722 C.3       6 GLY6        0.0000 
     38 O          29.2091  113.6471  -33.0056 O.2       2 ALA2        0.0000 
     39 O          26.6721  113.5730  -34.6052 O.2       2 ALA2        0.0000 
     40 NZ         25.1073  112.1658  -34.8715 N.2       4 LYS4        0.0000 
     41 N          25.4037  113.5360  -35.4049 N.2       2 ALA2        0.0000 
     42 N          23.8389  112.1288  -35.6713 N.2       2 ALA2        0.0000 
     43 N          24.1352  113.4990  -36.2047 N.2       2 ALA2        0.0000 
     44 OG         34.5020  112.5399  -32.9092 O.2       1 SER1        0.0000 
     45 OG         33.2335  112.5029  -33.7090 O.2       1 SER1        0.0000 
     46 O          27.8633  110.9846  -36.3746 O.2       2 ALA2        0.0000 
     47 CA         26.5948  110.9476  -37.1744 C.3       6 GLY6        0.0000 
     48 CA         31.9744  112.9969  -28.9215 C.3       6 GLY6        0.0000 
     49 DU         32.2707  114.3672  -29.4549 H         7 CUB7        0.0000 
     50 OG         32.5671  115.7375  -29.9884 O.2       1 SER1        0.0000 
     51 CA         30.4096  111.5897  -29.1878 C.3       6 GLY6        0.0000 
     52 O          30.7059  112.9599  -29.7212 O.2       2 ALA2        0.0000 
     53 O          31.0023  114.3302  -30.2547 O.2       2 ALA2        0.0000 
     54 CA         31.2986  115.7004  -30.7881 C.3       6 GLY6        0.0000 
     55 O          29.4374  112.9229  -30.5210 O.2       2 ALA2        0.0000 
     56 NZ         23.7709  110.0344  -32.6532 N.2       4 LYS4        0.0000 
     57 CA         24.0672  111.4046  -33.1866 C.3       6 GLY6        0.0000 
     58 CA         24.3636  112.7749  -33.7200 C.3       6 GLY6        0.0000 
     59 N          24.6599  114.1451  -34.2535 N.2       2 ALA2        0.0000 
     60 O          22.5024  109.9973  -33.4529 O.2       2 ALA2        0.0000 
     61 O          22.7987  111.3676  -33.9864 O.2       2 ALA2        0.0000 
     62 N          23.0951  112.7379  -34.5198 N.2       2 ALA2        0.0000 
     63 N          23.3915  114.1081  -35.0532 N.2       2 ALA2        0.0000 
     64 N          23.6878  115.4784  -35.5867 N.2       2 ALA2        0.0000 
     65 CA         30.4869  114.2151  -26.6186 C.3       6 GLY6        0.0000 
     66 O          30.7832  115.5854  -27.1520 O.2       2 ALA2        0.0000 
     67 CZ         31.0796  116.9557  -27.6855 C.ar      5 PHE5        0.0000 
     68 CA         29.2184  114.1781  -27.4183 C.3       6 GLY6        0.0000 
     69 O          29.8111  116.9187  -28.4852 O.2       2 ALA2        0.0000 
     70 OD1        23.8482  112.6598  -30.0840 O.3       3 ASP3        0.0000 
     71 O          24.1445  114.0301  -30.6174 O.2       2 ALA2        0.0000 
     72 N          30.0395  116.1945  -26.0006 N.2       2 ALA2        0.0000 
@<TRIPOS>BOND
@<TRIPOS>SUBSTRUCTURE
     1 SER1        3 GROUP   
     2 ALA2        2 GROUP   
     3 ASP3        7 GROUP   
     4 LYS4       10 GROUP   
     5 PHE5       67 GROUP   
     6 GLY6        1 GROUP   
     7 CUB7       15 GROUP   
@<TRIPOS>SET

