#    Name: 2ob2_SAH_3_INTS_M
#    Modification time : Tue Mar 25 22:14:31 2014

@<TRIPOS>MOLECULE
2ob2_SAH_3_INTS_M
   87     0    12     0     0
SMALL
NO_CHARGES


@<TRIPOS>ATOM
      1 O          24.1070  114.4620  -37.4010 O.2       1 ALC1        0.0000 
      2 O          24.0980  114.9810  -36.0440 O.2       9 ALL1        0.0000 
      3 O          24.1160  113.9430  -38.7580 O.2       5 ALP1        0.0000 
      4 O          24.9925  115.9170  -35.8830 O.2       1 ALC1        0.0000 
      5 O          25.8870  116.8530  -35.7220 O.2       5 ALP1        0.0000 
      6 O          23.4105  116.1420  -36.8075 O.2       1 ALC1        0.0000 
      7 O          22.7230  117.3030  -37.5710 O.2       5 ALP1        0.0000 
      8 O          22.6710  115.4535  -35.4340 O.2       1 ALC1        0.0000 
      9 O          21.2440  115.9260  -34.8240 O.2       5 ALP1        0.0000 
     10 CA         22.6655  113.4585  -37.1020 C.3       4 GLC5        0.0000 
     11 CA         24.0010  113.6440  -35.4130 C.3      12 GLL5        0.0000 
     12 CA         21.3300  113.2730  -38.7910 C.3       8 GLP5        0.0000 
     13 CA         25.8545  111.8860  -34.1110 C.3       4 GLC5        0.0000 
     14 CA         25.1100  112.7020  -35.9420 C.3      12 GLL5        0.0000 
     15 CA         26.5990  111.0700  -32.2800 C.3       8 GLP5        0.0000 
     16 CA         23.9940  111.3315  -36.8680 C.3       4 GLC5        0.0000 
     17 CA         22.8780  109.9610  -37.7940 C.3       8 GLP5        0.0000 
     18 CA         27.5830  115.0765  -35.3895 C.3       4 GLC5        0.0000 
     19 CA         26.3930  113.4610  -36.2300 C.3      12 GLL5        0.0000 
     20 CA         28.7730  116.6920  -34.5490 C.3       8 GLP5        0.0000 
     21 CA         29.8445  111.4530  -36.3385 C.3       4 GLC5        0.0000 
     22 CA         27.8000  112.3070  -36.2070 C.3      12 GLL5        0.0000 
     23 CA         31.8890  110.5990  -36.4700 C.3       8 GLP5        0.0000 
     24 CA         27.7890  110.4575  -35.7940 C.3       4 GLC5        0.0000 
     25 CA         27.7780  108.6080  -35.3810 C.3       8 GLP5        0.0000 
     26 CA         27.1995  111.6885  -34.2435 C.3       4 GLC5        0.0000 
     27 NZ         25.6655  114.9700  -32.5570 N.4       3 LYC4        0.0000 
     28 NZ         24.5860  114.8170  -33.3550 N.4      11 LYL4        0.0000 
     29 NZ         27.0140  115.6950  -30.5890 N.4       7 LYP4        0.0000 
     30 N          25.6655  114.9700  -32.5570 N.am      2 SEC2        0.0000 
     31 N          24.5860  114.8170  -33.3550 N.am     10 SEL2        0.0000 
     32 N          26.7450  115.1230  -31.7590 N.am      6 SEP2        0.0000 
     33 N          23.4020  114.3750  -32.3555 N.am      2 SEC2        0.0000 
     34 N          22.2180  113.9330  -31.3560 N.am      6 SEP2        0.0000 
     35 N          23.0515  113.3945  -32.2450 N.am      2 SEC2        0.0000 
     36 N          23.8850  112.8560  -33.1340 N.am     10 SEL2        0.0000 
     37 CA         29.8650  113.6935  -37.9315 C.3       4 GLC5        0.0000 
     38 CA         28.2150  112.8680  -37.8640 C.3      12 GLL5        0.0000 
     39 CA         31.5150  114.5190  -37.9990 C.3       8 GLP5        0.0000 
     40 CA         25.6475  113.4175  -40.0440 C.3       4 GLC5        0.0000 
     41 CA         27.2110  112.4170  -38.9380 C.3      12 GLL5        0.0000 
     42 CA         24.0840  114.4180  -41.1500 C.3       8 GLP5        0.0000 
     43 CA         27.0145  109.6295  -37.9465 C.3       4 GLC5        0.0000 
     44 CA         27.3240  110.9750  -39.4440 C.3      12 GLL5        0.0000 
     45 CA         26.7050  108.2840  -36.4490 C.3       8 GLP5        0.0000 
     46 O          25.5135  110.0400  -40.9330 O.2       1 ALC1        0.0000 
     47 O          26.0870  110.2240  -39.3740 O.2       9 ALL1        0.0000 
     48 O          24.9400  109.8560  -42.4920 O.2       5 ALP1        0.0000 
     49 O          25.0685  110.6090  -40.1590 O.2       1 ALC1        0.0000 
     50 O          24.0500  110.9940  -40.9440 O.2       5 ALP1        0.0000 
     51 CA         29.6765  111.5120  -41.3605 C.3       4 GLC5        0.0000 
     52 CA         27.7730  111.1680  -40.8820 C.3      12 GLL5        0.0000 
     53 CA         31.5800  111.8560  -41.8390 C.3       8 GLP5        0.0000 
     54 CA         28.0255  110.6610  -42.9565 C.3       4 GLC5        0.0000 
     55 CA         28.2780  110.1540  -45.0310 C.3       8 GLP5        0.0000 
     56 O          26.1485  109.9615  -42.0755 O.2       1 ALC1        0.0000 
     57 O          27.3570  110.0670  -41.6590 O.2       9 ALL1        0.0000 
     58 CA         25.6260  113.4675  -41.1990 C.3       4 GLC5        0.0000 
     59 CA         27.1680  112.5170  -41.2480 C.3      12 GLL5        0.0000 
     60 CA         26.8500  114.5195  -41.6790 C.3       4 GLC5        0.0000 
     61 CA         26.5320  116.5220  -42.1100 C.3       8 GLP5        0.0000 
     62 O          29.4670  113.5825  -46.7795 O.2       1 ALC1        0.0000 
     63 O          28.4500  114.7650  -46.6750 O.2       9 ALL1        0.0000 
     64 O          30.4840  112.4000  -46.8840 O.2       5 ALP1        0.0000 
     65 O          28.5225  114.1490  -48.2305 O.2       1 ALC1        0.0000 
     66 O          28.5950  113.5330  -49.7860 O.2       5 ALP1        0.0000 
     67 N          26.1610  114.4645  -47.5690 N.am      2 SEC2        0.0000 
     68 N          26.3520  113.7990  -46.2780 N.am     10 SEL2        0.0000 
     69 N          25.9700  115.1300  -48.8600 N.am      6 SEP2        0.0000 
     70 CA         24.0855  112.1885  -44.7170 C.3       4 GLC5        0.0000 
     71 CA         25.4540  113.1750  -45.4160 C.3      12 GLL5        0.0000 
     72 CA         22.7170  111.2020  -44.0180 C.3       8 GLP5        0.0000 
     73 CA         25.2325  111.1150  -45.7960 C.3       4 GLC5        0.0000 
     74 CA         25.0110  109.0550  -46.1760 C.3       8 GLP5        0.0000 
     75 CA         24.8555  114.9140  -45.9570 C.3       4 GLC5        0.0000 
     76 CA         24.2570  116.6530  -46.4980 C.3       8 GLP5        0.0000 
     77 N          25.1665  111.4455  -44.6520 N.am      2 SEC2        0.0000 
     78 N          25.8360  112.9070  -44.1110 N.am     10 SEL2        0.0000 
     79 N          24.4970  109.9840  -45.1930 N.am      6 SEP2        0.0000 
     80 CA         25.5915  113.8480  -42.4025 C.3       4 GLC5        0.0000 
     81 CA         27.0990  113.2780  -43.6550 C.3      12 GLL5        0.0000 
     82 CA         28.5858  109.3593  -40.4890 C.3       4 GLC5        0.0000 
     83 CA         29.6230  107.6470  -40.8150 C.3       8 GLP5        0.0000 
     84 CA         26.7540  115.4400  -46.0805 C.3       4 GLC5        0.0000 
     85 CA         27.9910  113.9150  -44.5080 C.3      12 GLL5        0.0000 
     86 CA         25.7090  116.8340  -46.9850 C.3       8 GLP5        0.0000 
     87 CA         27.0385  115.0593  -43.0957 C.3       4 GLC5        0.0000 
@<TRIPOS>BOND
@<TRIPOS>SUBSTRUCTURE
     1 ALC1        1 GROUP        1 X    ALC  0     ROOT ALC X 1
     2 SEC2       30 GROUP        1 X    SEC  0     **** SEC X 2
     3 LYC4       27 GROUP        1 X    LYC  0     **** LYC X 4
     4 GLC5       10 GROUP        1 X    GLC  0     **** GLC X 6
     5 ALP1        3 GROUP        1 Y    ALP  0     ROOT ALP Y 8
     6 SEP2       32 GROUP        1 Y    SEP  0     **** SEP Y 9
     7 LYP4       29 GROUP        1 Y    LYP  0     **** LYP Y 11
     8 GLP5       12 GROUP        1 Y    GLP  0     **** GLP Y 13
     9 ALL1        2 GROUP        1 Z    ALL  0     ROOT ALL Z 15
    10 SEL2       31 GROUP        1 Z    SEL  0     **** SEL Z 16
    11 LYL4       28 GROUP        1 Z    LYL  0     **** LYL Z 18
    12 GLL5       11 GROUP        1 Z    GLL  0     **** GLL Z 20
@<TRIPOS>SET

