#    Name: 2ob2_SAH_3_ligand
#    Modification time : Tue Mar 25 22:14:32 2014

@<TRIPOS>MOLECULE
2ob2_SAH_3_ligand
   46    48     1     0     0
SMALL
NO_CHARGES


@<TRIPOS>ATOM
      1 N          24.0980  114.9810  -36.0440 N.4       1 SAH1803     0.0000 
      2 CA         24.0010  113.6440  -35.4130 C.3       1 SAH1803     0.0000 
      3 CB         25.1100  112.7020  -35.9420 C.3       1 SAH1803     0.0000 
      4 CG         26.3930  113.4610  -36.2300 C.3       1 SAH1803     0.0000 
      5 SD         27.8000  112.3070  -36.2070 S.3       1 SAH1803     0.0000 
      6 C          24.1450  113.7960  -33.8940 C.2       1 SAH1803     0.0000 
      7 O          24.5860  114.8170  -33.3550 O.co2     1 SAH1803     0.0000 
      8 OXT        23.8850  112.8560  -33.1340 O.co2     1 SAH1803     0.0000 
      9 C5'        28.2150  112.8680  -37.8640 C.3       1 SAH1803     0.0000 
     10 C4'        27.2110  112.4170  -38.9380 C.3       1 SAH1803     0.0000 
     11 O4'        27.4350  113.2430  -40.0840 O.3       1 SAH1803     0.0000 
     12 C3'        27.3240  110.9750  -39.4440 C.3       1 SAH1803     0.0000 
     13 O3'        26.0870  110.2240  -39.3740 O.3       1 SAH1803     0.0000 
     14 C2'        27.7730  111.1680  -40.8820 C.3       1 SAH1803     0.0000 
     15 O2'        27.3570  110.0670  -41.6590 O.3       1 SAH1803     0.0000 
     16 C1'        27.1680  112.5170  -41.2480 C.3       1 SAH1803     0.0000 
     17 N9         27.7380  113.1670  -42.4400 N.pl3     1 SAH1803     0.0000 
     18 C8         28.9880  113.7140  -42.5420 C.2       1 SAH1803     0.0000 
     19 N7         29.1300  114.1510  -43.8230 N.2       1 SAH1803     0.0000 
     20 C5         27.9910  113.9150  -44.5080 C.ar      1 SAH1803     0.0000 
     21 C6         27.6070  114.1770  -45.8440 C.ar      1 SAH1803     0.0000 
     22 N6         28.4500  114.7650  -46.6750 N.pl3     1 SAH1803     0.0000 
     23 N1         26.3520  113.7990  -46.2780 N.ar      1 SAH1803     0.0000 
     24 C2         25.4540  113.1750  -45.4160 C.ar      1 SAH1803     0.0000 
     25 N3         25.8360  112.9070  -44.1110 N.ar      1 SAH1803     0.0000 
     26 C4         27.0990  113.2780  -43.6550 C.ar      1 SAH1803     0.0000 
     27 H          23.0485  113.1981  -35.6206 H         1 SAH1803     0.0000 
     28 H          24.7526  112.2230  -36.8540 H         1 SAH1803     0.0000 
     29 H          25.2976  111.9320  -35.1932 H         1 SAH1803     0.0000 
     30 H          26.6624  114.1564  -35.4765 H         1 SAH1803     0.0000 
     31 H          26.4481  113.8606  -37.2104 H         1 SAH1803     0.0000 
     32 H          29.2008  112.4619  -38.0137 H         1 SAH1803     0.0000 
     33 H          28.2563  113.9379  -37.7505 H         1 SAH1803     0.0000 
     34 H          26.2081  112.5814  -38.5733 H         1 SAH1803     0.0000 
     35 H          28.1308  110.5069  -38.9164 H         1 SAH1803     0.0000 
     36 H          28.8474  111.2888  -40.8483 H         1 SAH1803     0.0000 
     37 H          26.1027  112.3668  -41.3493 H         1 SAH1803     0.0000 
     38 H          29.6333  113.7752  -41.8458 H         1 SAH1803     0.0000 
     39 H          29.0392  114.1571  -47.2073 H         1 SAH1803     0.0000 
     40 H          28.4221  115.7644  -46.6960 H         1 SAH1803     0.0000 
     41 H          24.5187  112.9171  -45.7467 H         1 SAH1803     0.0000 
     42 H          24.4753  114.9288  -36.9686 H         1 SAH1803     0.0000 
     43 H          23.2040  115.4231  -36.1167 H         1 SAH1803     0.0000 
     44 H          24.6877  115.5965  -35.5212 H         1 SAH1803     0.0000 
     45 H          25.4775  110.6676  -40.0311 H         1 SAH1803     0.0000 
     46 H          26.3956  110.2463  -41.8679 H         1 SAH1803     0.0000 
@<TRIPOS>BOND
     1    2    1 1    
     2   42    1 1    
     3   43    1 1    
     4   44    1 1    
     5    3    2 1    
     6    6    2 1    
     7   27    2 1    
     8    4    3 1    
     9   28    3 1    
    10   29    3 1    
    11    5    4 1    
    12   30    4 1    
    13   31    4 1    
    14    9    5 1    
    15    7    6 ar   
    16    8    6 ar   
    17   10    9 1    
    18   32    9 1    
    19   33    9 1    
    20   11   10 1    
    21   12   10 1    
    22   34   10 1    
    23   16   11 1    
    24   13   12 1    
    25   14   12 1    
    26   35   12 1    
    27   45   13 1    
    28   15   14 1    
    29   16   14 1    
    30   36   14 1    
    31   46   15 1    
    32   17   16 1    
    33   37   16 1    
    34   18   17 1    
    35   26   17 1    
    36   19   18 2    
    37   38   18 1    
    38   20   19 1    
    39   21   20 ar   
    40   26   20 ar   
    41   22   21 1    
    42   23   21 ar   
    43   39   22 1    
    44   40   22 1    
    45   24   23 ar   
    46   25   24 ar   
    47   41   24 1    
    48   26   25 ar   
@<TRIPOS>SUBSTRUCTURE
     1 SAH1803     1 GROUP   
@<TRIPOS>SET

