#    Name: 3ri1_3RH_1_INTS_M
#    Modification time : Tue Mar 25 11:29:09 2014

@<TRIPOS>MOLECULE
3ri1_3RH_1_INTS_M
   60     0     9     0     0
SMALL
NO_CHARGES


@<TRIPOS>ATOM
      1 CA        -30.9670   16.2515  -26.1405 C.3       3 GLC5        0.0000 
      2 CA        -30.1570   14.7380  -25.0240 C.3       9 GLL5        0.0000 
      3 CA        -31.7770   17.7650  -27.2570 C.3       6 GLP5        0.0000 
      4 CA        -28.5480   14.3570  -23.8040 C.3       3 GLC5        0.0000 
      5 CA        -26.9390   13.9760  -22.5840 C.3       6 GLP5        0.0000 
      6 O         -30.4670   12.7915  -26.0890 O.2       1 ALC1        0.0000 
      7 O         -31.0660   13.7930  -25.3610 O.2       7 ALL1        0.0000 
      8 O         -29.8680   11.7900  -26.8170 O.2       4 ALP1        0.0000 
      9 N         -28.2370   14.0165  -26.8310 N.am      2 SEC2        0.0000 
     10 N         -29.0420   14.8880  -25.7840 N.am      8 SEL2        0.0000 
     11 N         -27.4320   13.1450  -27.8780 N.am      5 SEP2        0.0000 
     12 CA        -27.3810   15.4485  -27.2885 C.3       3 GLC5        0.0000 
     13 CA        -28.1220   15.8100  -25.4780 C.3       9 GLL5        0.0000 
     14 CA        -26.6400   15.0870  -29.0990 C.3       6 GLP5        0.0000 
     15 CA        -28.8440   19.1695  -24.1410 C.3       3 GLC5        0.0000 
     16 CA        -27.3120   17.6750  -23.9880 C.3       9 GLL5        0.0000 
     17 CA        -30.3760   20.6640  -24.2940 C.3       6 GLP5        0.0000 
     18 CA        -28.3395   20.9995  -22.2830 C.3       3 GLC5        0.0000 
     19 CA        -26.3060   20.1270  -22.4550 C.3       9 GLL5        0.0000 
     20 CA        -30.3730   21.8720  -22.1110 C.3       6 GLP5        0.0000 
     21 CA        -26.7745   22.1670  -22.7210 C.3       3 GLC5        0.0000 
     22 CA        -27.2430   24.2070  -22.9870 C.3       6 GLP5        0.0000 
     23 CA        -26.1870   22.4210  -21.3070 C.3       3 GLC5        0.0000 
     24 CA        -25.2930   21.0370  -22.1490 C.3       9 GLL5        0.0000 
     25 CA        -27.0810   23.8050  -20.4650 C.3       6 GLP5        0.0000 
     26 CA        -22.2390   20.9235  -21.5525 C.3       3 GLC5        0.0000 
     27 CA        -24.1240   20.5840  -21.5370 C.3       9 GLL5        0.0000 
     28 CA        -20.3540   21.2630  -21.5680 C.3       6 GLP5        0.0000 
     29 CA        -23.3710   20.7825  -23.2980 C.3       3 GLC5        0.0000 
     30 CA        -22.6180   20.9810  -25.0590 C.3       6 GLP5        0.0000 
     31 CA        -22.1335   19.4710  -21.8445 C.3       3 GLC5        0.0000 
     32 CA        -23.9680   19.2290  -21.2300 C.3       9 GLL5        0.0000 
     33 CA        -20.2990   19.7130  -22.4590 C.3       6 GLP5        0.0000 
     34 CA        -24.0630   18.5255  -19.1105 C.3       3 GLC5        0.0000 
     35 CA        -24.1580   17.8220  -16.9910 C.3       6 GLP5        0.0000 
     36 CA        -24.7725   16.5125  -20.6560 C.3       3 GLC5        0.0000 
     37 CA        -24.9810   18.3220  -21.5330 C.3       9 GLL5        0.0000 
     38 CA        -24.5640   14.7030  -19.7790 C.3       6 GLP5        0.0000 
     39 CA        -32.1795   17.7700  -23.6090 C.3       3 GLC5        0.0000 
     40 CA        -30.9390   17.5330  -21.8370 C.3       9 GLL5        0.0000 
     41 CA        -33.4200   18.0070  -25.3810 C.3       6 GLP5        0.0000 
     42 CA        -27.7252   15.0765  -23.6557 C.3       3 GLC5        0.0000 
     43 CA        -27.8227   17.9046  -25.9352 C.3       3 GLC5        0.0000 
     44 CA        -28.3280   16.6210  -24.3640 C.3       9 GLL5        0.0000 
     45 CA        -27.8770   18.8640  -27.4160 C.3       6 GLP5        0.0000 
     46 CA        -25.9163   18.6105  -24.4013 C.3       3 GLC5        0.0000 
     47 CA        -24.5730   19.4990  -25.5770 C.3       6 GLP5        0.0000 
     48 CA        -27.0993   15.8490  -22.9047 C.3       3 GLC5        0.0000 
     49 CA        -28.0260   15.8245  -22.3520 C.3       3 GLC5        0.0000 
     50 CA        -29.6680   17.3490  -22.3940 C.3       9 GLL5        0.0000 
     51 CA        -25.1675   19.8709  -23.9001 C.3       3 GLC5        0.0000 
     52 CA        -26.1560   18.7700  -22.1400 C.3       9 GLL5        0.0000 
     53 CA        -23.4937   17.6558  -22.6352 C.3       3 GLC5        0.0000 
     54 CA        -22.5130   16.5360  -23.8890 C.3       6 GLP5        0.0000 
     55 CA        -24.5237   19.1372  -23.4793 C.3       3 GLC5        0.0000 
     56 CA        -33.0290   17.5235  -21.2315 C.3       3 GLC5        0.0000 
     57 CA        -31.1150   18.3590  -20.7250 C.3       9 GLL5        0.0000 
     58 CA        -35.0310   17.1010  -21.1820 C.3       6 GLP5        0.0000 
     59 CA        -30.3080   20.2526  -21.3479 C.3       3 GLC5        0.0000 
     60 CA        -30.1889   19.0784  -23.2110 C.3       3 GLC5        0.0000 
@<TRIPOS>BOND
@<TRIPOS>SUBSTRUCTURE
     1 ALC1        6 GROUP        1 X    ALC  0     ROOT ALC X 1
     2 SEC2        9 GROUP        1 X    SEC  0     **** SEC X 2
     3 GLC5        1 GROUP        1 X    GLC  0     **** GLC X 6
     4 ALP1        8 GROUP        1 Y    ALP  0     ROOT ALP Y 8
     5 SEP2       11 GROUP        1 Y    SEP  0     **** SEP Y 9
     6 GLP5        3 GROUP        1 Y    GLP  0     **** GLP Y 13
     7 ALL1        7 GROUP        1 Z    ALL  0     ROOT ALL Z 15
     8 SEL2       10 GROUP        1 Z    SEL  0     **** SEL Z 16
     9 GLL5        2 GROUP        1 Z    GLL  0     **** GLL Z 20
@<TRIPOS>SET

