#    Name: 3ri1_3RH_1_ligand
#    Modification time : Tue Mar 25 11:29:09 2014

@<TRIPOS>MOLECULE
3ri1_3RH_1_ligand
   36    39     1     0     0
SMALL
NO_CHARGES


@<TRIPOS>ATOM
      1 C1        -29.4740   16.4670  -23.5900 C.ar      1 3RH2        0.0000 
      2 C2        -28.3280   16.6210  -24.3640 C.ar      1 3RH2        0.0000 
      3 N3        -30.3770   15.5180  -23.9340 N.ar      1 3RH2        0.0000 
      4 C4        -30.1570   14.7380  -25.0240 C.ar      1 3RH2        0.0000 
      5 N5        -31.0660   13.7930  -25.3610 N.pl3     1 3RH2        0.0000 
      6 N6        -29.0420   14.8880  -25.7840 N.ar      1 3RH2        0.0000 
      7 C7        -28.1220   15.8100  -25.4780 C.ar      1 3RH2        0.0000 
      8 C8        -27.3120   17.6750  -23.9880 C.3       1 3RH2        0.0000 
      9 C9        -27.2070   17.7690  -22.4630 C.3       1 3RH2        0.0000 
     10 C10       -26.1560   18.7700  -22.1400 C.ar      1 3RH2        0.0000 
     11 C11       -28.5580   17.9970  -21.8460 C.ar      1 3RH2        0.0000 
     12 C12       -29.6680   17.3490  -22.3940 C.ar      1 3RH2        0.0000 
     13 C13       -26.3060   20.1270  -22.4550 C.ar      1 3RH2        0.0000 
     14 C14       -25.2930   21.0370  -22.1490 C.ar      1 3RH2        0.0000 
     15 C15       -24.1240   20.5840  -21.5370 C.ar      1 3RH2        0.0000 
     16 C16       -23.9680   19.2290  -21.2300 C.ar      1 3RH2        0.0000 
     17 C17       -24.9810   18.3220  -21.5330 C.ar      1 3RH2        0.0000 
     18 C18       -28.7350   18.8160  -20.7230 C.ar      1 3RH2        0.0000 
     19 C19       -30.0070   18.9990  -20.1660 C.ar      1 3RH2        0.0000 
     20 C20       -31.1150   18.3590  -20.7250 C.ar      1 3RH2        0.0000 
     21 C21       -30.9390   17.5330  -21.8370 C.ar      1 3RH2        0.0000 
     22 H         -32.0151   13.9871  -25.1129 H         1 3RH2        0.0000 
     23 H         -30.7078   12.9846  -25.8282 H         1 3RH2        0.0000 
     24 H         -27.2691   15.9379  -26.0391 H         1 3RH2        0.0000 
     25 H         -27.6185   18.6388  -24.3816 H         1 3RH2        0.0000 
     26 H         -26.3406   17.4114  -24.3939 H         1 3RH2        0.0000 
     27 H         -26.8387   16.7698  -22.1342 H         1 3RH2        0.0000 
     28 H         -27.1668   20.4514  -22.9134 H         1 3RH2        0.0000 
     29 H         -25.4071   22.0291  -22.3720 H         1 3RH2        0.0000 
     30 H         -23.3728   21.2487  -21.3101 H         1 3RH2        0.0000 
     31 H         -23.1034   18.9036  -20.7799 H         1 3RH2        0.0000 
     32 H         -24.8654   17.3272  -21.3113 H         1 3RH2        0.0000 
     33 H         -27.9220   19.2878  -20.3033 H         1 3RH2        0.0000 
     34 H         -30.1229   19.6048  -19.3457 H         1 3RH2        0.0000 
     35 H         -32.0452   18.4937  -20.3244 H         1 3RH2        0.0000 
     36 H         -31.7508   17.0541  -22.2523 H         1 3RH2        0.0000 
@<TRIPOS>BOND
     1    2    1 ar   
     2    3    1 ar   
     3   12    1 1    
     4    7    2 ar   
     5    8    2 1    
     6    4    3 ar   
     7    5    4 1    
     8    6    4 ar   
     9   22    5 1    
    10   23    5 1    
    11    7    6 ar   
    12   24    7 1    
    13    9    8 1    
    14   25    8 1    
    15   26    8 1    
    16   10    9 1    
    17   11    9 1    
    18   27    9 1    
    19   13   10 ar   
    20   17   10 ar   
    21   12   11 ar   
    22   18   11 ar   
    23   21   12 ar   
    24   14   13 ar   
    25   28   13 1    
    26   15   14 ar   
    27   29   14 1    
    28   16   15 ar   
    29   30   15 1    
    30   17   16 ar   
    31   31   16 1    
    32   32   17 1    
    33   19   18 ar   
    34   33   18 1    
    35   20   19 ar   
    36   34   19 1    
    37   21   20 ar   
    38   35   20 1    
    39   36   21 1    
@<TRIPOS>SUBSTRUCTURE
     1 3RH2        1 GROUP   
@<TRIPOS>SET

