#    Name: 3FFP_1_CAVITY_N1_ALL.mol2
#    Modification time : Mon Mar 10 16:12:47 2014

@<TRIPOS>MOLECULE
3FFP_1_CAVITY_N1_ALL.mol2
   87     0     6     0     0
SMALL
NO_CHARGES


@<TRIPOS>ATOM
      1 O           3.5495    4.7545   10.7921 O.2       2 ALA2        0.0000 
      2 CA         -1.6284    7.2819   13.8826 C.3       5 GLY6        0.0000 
      3 N           1.2628    4.7941   12.0248 N.2       2 ALA2        0.0000 
      4 O           1.4867    4.2862   10.6312 O.2       2 ALA2        0.0000 
      5 N           1.7107    3.7784    9.2377 N.2       2 ALA2        0.0000 
      6 CA         -1.2479    5.3416   14.6509 C.3       5 GLY6        0.0000 
      7 CA         -2.4695    6.0776   14.1864 C.3       5 GLY6        0.0000 
      8 CZ         -3.6912    6.8136   13.7218 C.ar      4 PHE5        0.0000 
      9 CZ         -4.9128    7.5497   13.2572 C.ar      4 PHE5        0.0000 
     10 N          -1.0239    4.8337   13.2574 N.2       2 ALA2        0.0000 
     11 DU         -2.2456    5.5697   12.7928 H         6 CUB7        0.0000 
     12 DU         -3.4672    6.3058   12.3282 H         6 CUB7        0.0000 
     13 DU         -4.6888    7.0418   11.8637 H         6 CUB7        0.0000 
     14 CZ         -5.9105    7.7778   11.3991 C.ar      4 PHE5        0.0000 
     15 CA         -7.1321    8.5139   10.9345 C.3       5 GLY6        0.0000 
     16 N          -0.7999    4.3258   11.8639 N.2       2 ALA2        0.0000 
     17 DU         -2.0216    5.0619   11.3993 H         6 CUB7        0.0000 
     18 DU         -3.2432    5.7979   10.9347 H         6 CUB7        0.0000 
     19 CZ          0.6457    3.0819   10.9350 C.ar      4 PHE5        0.0000 
     20 DU         -0.5760    3.8180   10.4704 H         6 CUB7        0.0000 
     21 DU         -1.7976    4.5540   10.0058 H         6 CUB7        0.0000 
     22 CA          0.8696    2.5741    9.5414 C.3       5 GLY6        0.0000 
     23 CA         -4.7562    6.1172   15.4190 C.3       5 GLY6        0.0000 
     24 OG         -2.0890    4.1373   14.9547 O.2       1 SER1        0.0000 
     25 CA         -3.3106    4.8733   14.4901 C.3       5 GLY6        0.0000 
     26 CZ         -4.5322    5.6093   14.0255 C.ar      4 PHE5        0.0000 
     27 CZ         -5.7539    6.3454   13.5609 C.ar      4 PHE5        0.0000 
     28 CZ         -6.9755    7.0814   13.0963 C.ar      4 PHE5        0.0000 
     29 OG         -1.8650    3.6294   13.5611 O.2       1 SER1        0.0000 
     30 OG         -3.0866    4.3654   13.0966 O.2       1 SER1        0.0000 
     31 O          -4.3083    5.1015   12.6320 O.2       2 ALA2        0.0000 
     32 O          -5.5299    5.8375   12.1674 O.2       2 ALA2        0.0000 
     33 O          -6.7516    6.5735   11.7028 O.2       2 ALA2        0.0000 
     34 CA         -7.9732    7.3096   11.2382 C.3       5 GLY6        0.0000 
     35 OG         -1.6410    3.1215   12.1676 O.2       1 SER1        0.0000 
     36 DU         -2.8627    3.8576   11.7030 H         6 CUB7        0.0000 
     37 O          -4.0843    4.5936   11.2384 O.2       2 ALA2        0.0000 
     38 CZ         -0.1954    1.8776   11.2387 C.ar      4 PHE5        0.0000 
     39 OG         -1.4171    2.6137   10.7741 O.2       1 SER1        0.0000 
     40 O          -2.6387    3.3497   10.3095 O.2       2 ALA2        0.0000 
     41 N          -3.8604    4.0857    9.8449 N.2       2 ALA2        0.0000 
     42 O          -1.1931    2.1058    9.3806 O.2       2 ALA2        0.0000 
     43 CA         -5.5973    4.9129   15.7227 C.3       5 GLY6        0.0000 
     44 CA         -6.8189    5.6490   15.2582 C.3       5 GLY6        0.0000 
     45 OG         -2.9300    2.9330   15.2584 O.2       1 SER1        0.0000 
     46 CA         -4.1517    3.6690   14.7938 C.3       5 GLY6        0.0000 
     47 DU         -5.3733    4.4051   14.3292 H         6 CUB7        0.0000 
     48 O          -6.5950    5.1411   13.8646 O.2       2 ALA2        0.0000 
     49 OG         -3.9277    3.1612   13.4003 O.2       1 SER1        0.0000 
     50 O          -5.1494    3.8972   12.9357 O.2       2 ALA2        0.0000 
     51 OG         -2.4821    1.9173   12.4713 O.2       1 SER1        0.0000 
     52 OG         -3.7038    2.6533   12.0068 O.2       1 SER1        0.0000 
     53 O          -4.9254    3.3893   11.5422 O.2       2 ALA2        0.0000 
     54 OG         -1.0365    0.6733   11.5424 O.2       1 SER1        0.0000 
     55 OG         -2.2582    1.4094   11.0778 O.2       1 SER1        0.0000 
     56 O          -3.4798    2.1454   10.6132 O.2       2 ALA2        0.0000 
     57 N          -4.7014    2.8814   10.1487 N.2       2 ALA2        0.0000 
     58 O          -2.0342    0.9015    9.6843 O.2       2 ALA2        0.0000 
     59 CA         -6.6623    4.2165   17.4200 C.3       5 GLY6        0.0000 
     60 CA         -3.9951    2.2366   16.9556 C.3       5 GLY6        0.0000 
     61 CA         -5.2167    2.9726   16.4911 C.3       5 GLY6        0.0000 
     62 CA         -6.4384    3.7086   16.0265 C.3       5 GLY6        0.0000 
     63 OG         -3.7711    1.7287   15.5621 O.2       1 SER1        0.0000 
     64 DU         -4.9928    2.4647   15.0975 H         6 CUB7        0.0000 
     65 CA         -6.2144    3.2008   14.6330 C.3       5 GLY6        0.0000 
     66 CA         -7.4361    3.9368   14.1684 C.3       5 GLY6        0.0000 
     67 OG         -3.5472    1.2208   14.1686 O.2       1 SER1        0.0000 
     68 N          -4.7688    1.9569   13.7040 N.2       2 ALA2        0.0000 
     69 O          -5.9905    2.6929   13.2394 O.2       2 ALA2        0.0000 
     70 OG         -3.3232    0.7130   12.7751 O.2       1 SER1        0.0000 
     71 N          -4.5448    1.4490   12.3105 N.2       2 ALA2        0.0000 
     72 CA         -3.0992    0.2051   11.3816 C.3       5 GLY6        0.0000 
     73 O          -4.3209    0.9411   10.9170 O.2       2 ALA2        0.0000 
     74 O          -5.5425    1.6772   10.4524 O.2       2 ALA2        0.0000 
     75 CA         -2.8753   -0.3028    9.9880 C.3       5 GLY6        0.0000 
     76 CA         -6.2818    2.2762   18.1883 C.3       5 GLY6        0.0000 
     77 CA         -7.5034    3.0122   17.7237 C.3       5 GLY6        0.0000 
     78 O          -4.8362    1.0323   17.2594 O.2       2 ALA2        0.0000 
     79 OD1        -6.0578    1.7683   16.7948 O.3       3 ASP3        0.0000 
     80 CA         -7.2795    2.5043   16.3302 C.3       5 GLY6        0.0000 
     81 OD1        -4.6122    0.5244   15.8659 O.3       3 ASP3        0.0000 
     82 OD1        -5.8339    1.2604   15.4013 O.3       3 ASP3        0.0000 
     83 CA         -4.1643   -0.4913   13.0788 C.3       5 GLY6        0.0000 
     84 CA         -2.7187   -1.7352   12.1499 C.3       5 GLY6        0.0000 
     85 CA         -3.9403   -0.9992   11.6853 C.3       5 GLY6        0.0000 
     86 CA         -5.1620   -0.2632   11.2207 C.3       5 GLY6        0.0000 
     87 CA         -3.7164   -1.5071   10.2918 C.3       5 GLY6        0.0000 
@<TRIPOS>BOND
@<TRIPOS>SUBSTRUCTURE
     1 SER1       24 GROUP   
     2 ALA2        1 GROUP   
     3 ASP3       79 GROUP   
     4 PHE5        8 GROUP   
     5 GLY6        2 GROUP   
     6 CUB7       11 GROUP   
@<TRIPOS>SET

