#    Name: 3ffp_LC1_1_INTS_M
#    Modification time : Tue Mar 25 03:53:08 2014

@<TRIPOS>MOLECULE
3ffp_LC1_1_INTS_M
   29     0    12     0     0
SMALL
NO_CHARGES


@<TRIPOS>ATOM
      1 CA         -8.8670    8.1105   12.7490 C.3       4 GLC5        0.0000 
      2 CA         -6.7710    7.5470   12.2030 C.3      12 GLL5        0.0000 
      3 CA        -10.9630    8.6740   13.2950 C.3       8 GLP5        0.0000 
      4 CA         -8.2490    6.4125   11.5965 C.3       4 GLC5        0.0000 
      5 CA         -9.7270    5.2780   10.9900 C.3       8 GLP5        0.0000 
      6 CA         -8.1925    9.9675   11.3470 C.3       4 GLC5        0.0000 
      7 CA         -6.6190    8.9580   11.2610 C.3      12 GLL5        0.0000 
      8 CA         -9.7660   10.9770   11.4330 C.3       8 GLP5        0.0000 
      9 N          -4.0540    0.7110   18.5910 N.am      2 SEC2        0.0000 
     10 N          -5.3650    1.0120   18.1680 N.am     10 SEL2        0.0000 
     11 N          -2.7430    0.4100   19.0140 N.am      6 SEP2        0.0000 
     12 O          -4.5470   -1.1825   16.9405 O.2       1 ALC1        0.0000 
     13 O          -5.4420   -0.3110   16.2900 O.2       9 ALL1        0.0000 
     14 O          -3.6520   -2.0540   17.5910 O.2       5 ALP1        0.0000 
     15 Zn         -6.0890   -0.9400   15.8070 Zn        3 ZIC7        0.0000 
     16 Zn         -5.4420   -0.3110   16.2900 Zn       11 ZIL7        0.0000 
     17 Zn         -6.7360   -1.5690   15.3240 Zn        7 ZIP7        0.0000 
     18 CA         -4.1132    4.4370   16.2828 C.3       4 GLC5        0.0000 
     19 CA         -4.2800    4.2720   14.1910 C.3      12 GLL5        0.0000 
     20 CA         -4.3680    5.1060   18.1530 C.3       8 GLP5        0.0000 
     21 CA         -1.9718    1.4495   14.8085 C.3       4 GLC5        0.0000 
     22 CA         -3.4370    3.2640   14.6340 C.3      12 GLL5        0.0000 
     23 CA         -0.2600    0.1440   14.5680 C.3       8 GLP5        0.0000 
     24 CA         -4.4895    3.6625   16.8980 C.3       4 GLC5        0.0000 
     25 CA         -3.9300    2.2460   15.4640 C.3      12 GLL5        0.0000 
     26 CA         -7.8617    3.6115   14.8603 C.3       4 GLC5        0.0000 
     27 CA         -6.1200    3.2300   15.3890 C.3      12 GLL5        0.0000 
     28 CA         -9.8600    3.4870   14.7490 C.3       8 GLP5        0.0000 
     29 CA         -5.1158    4.4210   16.5622 C.3       4 GLC5        0.0000 
@<TRIPOS>BOND
@<TRIPOS>SUBSTRUCTURE
     1 ALC1       12 GROUP        1 X    ALC  0     ROOT ALC X 1
     2 SEC2        9 GROUP        1 X    SEC  0     **** SEC X 2
     3 ZIC7       15 GROUP        1 X    ZIC  0     **** ZIC X 5
     4 GLC5        1 GROUP        1 X    GLC  0     **** GLC X 6
     5 ALP1       14 GROUP        1 Y    ALP  0     ROOT ALP Y 8
     6 SEP2       11 GROUP        1 Y    SEP  0     **** SEP Y 9
     7 ZIP7       17 GROUP        1 Y    ZIP  0     **** ZIP Y 12
     8 GLP5        3 GROUP        1 Y    GLP  0     **** GLP Y 13
     9 ALL1       13 GROUP        1 Z    ALL  0     ROOT ALL Z 15
    10 SEL2       10 GROUP        1 Z    SEL  0     **** SEL Z 16
    11 ZIL7       16 GROUP        1 Z    ZIL  0     **** ZIL Z 19
    12 GLL5        2 GROUP        1 Z    GLL  0     **** GLL Z 20
@<TRIPOS>SET

