#    Name: 3ffp_LC1_1_ligand
#    Modification time : Tue Mar 25 03:53:08 2014

@<TRIPOS>MOLECULE
3ffp_LC1_1_ligand
   25    27     1     0     0
SMALL
NO_CHARGES


@<TRIPOS>ATOM
      1 CAH        -6.7710    7.5470   12.2030 C.2       1 LC1300      0.0000 
      2 SAI        -6.6190    8.9580   11.2610 S.3       1 LC1300      0.0000 
      3 CAR        -4.9260    8.9820   11.2550 C.2       1 LC1300      0.0000 
      4 NAQ        -4.5390    7.9060   11.9720 N.2       1 LC1300      0.0000 
      5 CAP        -5.5250    7.1310   12.4980 C.2       1 LC1300      0.0000 
      6 CAO        -5.2640    5.9710   13.2600 C.2       1 LC1300      0.0000 
      7 NAN        -4.0930    5.3330   13.3980 N.pl3     1 LC1300      0.0000 
      8 CAM        -4.2800    4.2720   14.1910 C.ar      1 LC1300      0.0000 
      9 CAL        -3.4370    3.2640   14.6340 C.ar      1 LC1300      0.0000 
     10 CAK        -3.9300    2.2460   15.4640 C.ar      1 LC1300      0.0000 
     11 CAD        -5.2920    2.1920   15.8220 C.ar      1 LC1300      0.0000 
     12 SAC        -5.9790    1.0410   16.8710 S.o2      1 LC1300      0.0000 
     13 OAA        -7.3540    0.9900   16.7300 O.2       1 LC1300      0.0000 
     14 OAJ        -5.3650    1.0120   18.1680 O.2       1 LC1300      0.0000 
     15 NAB        -5.4420   -0.3110   16.2900 N.pl3     1 LC1300      0.0000 
     16 CAE        -6.1200    3.2300   15.3890 C.ar      1 LC1300      0.0000 
     17 CAF        -5.6070    4.2420   14.5540 C.ar      1 LC1300      0.0000 
     18 NAG        -6.1770    5.2850   13.9660 N.2       1 LC1300      0.0000 
     19 H          -7.6207    7.2863   12.3661 H         1 LC1300      0.0000 
     20 H          -4.5467    9.6585   10.8079 H         1 LC1300      0.0000 
     21 H          -3.2533    5.5973   12.9911 H         1 LC1300      0.0000 
     22 H          -2.4467    3.2562   14.3574 H         1 LC1300      0.0000 
     23 H          -3.2863    1.5229   15.8200 H         1 LC1300      0.0000 
     24 H          -7.1035    3.2604   15.6763 H         1 LC1300      0.0000 
     25 H          -4.8102   -0.6577   16.9833 H         1 LC1300      0.0000 
@<TRIPOS>BOND
     1    2    1 1    
     2    5    1 2    
     3   19    1 1    
     4    3    2 1    
     5    4    3 2    
     6   20    3 1    
     7    5    4 1    
     8    6    5 1    
     9    7    6 1    
    10   18    6 2    
    11    8    7 1    
    12   21    7 1    
    13    9    8 ar   
    14   17    8 ar   
    15   10    9 ar   
    16   22    9 1    
    17   11   10 ar   
    18   23   10 1    
    19   12   11 1    
    20   16   11 ar   
    21   13   12 2    
    22   14   12 2    
    23   15   12 1    
    24   25   15 1    
    25   17   16 ar   
    26   24   16 1    
    27   18   17 1    
@<TRIPOS>SUBSTRUCTURE
     1 LC1300      1 GROUP   
@<TRIPOS>SET

