#    Name: 3si7_ATP_2_INTS_M
#    Modification time : Tue Mar 25 12:39:22 2014

@<TRIPOS>MOLECULE
3si7_ATP_2_INTS_M
   54     0    12     0     0
SMALL
NO_CHARGES


@<TRIPOS>ATOM
      1 NZ        141.8330  -10.7755   58.2635 N.4       2 LYC4        0.0000 
      2 NZ        143.2050  -10.6850   57.9340 N.4      10 LYL4        0.0000 
      3 NZ        140.4610  -10.8660   58.5930 N.4       6 LYP4        0.0000 
      4 N         143.0715  -10.5300   56.5005 N.am      1 SEC2        0.0000 
      5 N         143.2050  -10.6850   57.9340 N.am      9 SEL2        0.0000 
      6 N         142.9380  -10.3750   55.0670 N.am      5 SEP2        0.0000 
      7 N         141.8330  -10.7755   58.2635 N.am      1 SEC2        0.0000 
      8 N         140.4610  -10.8660   58.5930 N.am      5 SEP2        0.0000 
      9 Zn        143.9930   -7.9825   60.2295 Zn        3 ZIC7        0.0000 
     10 Zn        143.9360   -9.0400   59.7080 Zn       11 ZIL7        0.0000 
     11 Zn        144.0500   -6.9250   60.7510 Zn        7 ZIP7        0.0000 
     12 NZ        140.7765   -9.6560   57.8215 N.4       2 LYC4        0.0000 
     13 NZ        141.0920   -8.4460   57.0500 N.4      10 LYL4        0.0000 
     14 N         140.8255   -8.7360   55.6335 N.am      1 SEC2        0.0000 
     15 N         141.0920   -8.4460   57.0500 N.am      9 SEL2        0.0000 
     16 N         140.5590   -9.0260   54.2170 N.am      5 SEP2        0.0000 
     17 N         140.3375   -7.5035   55.9445 N.am      1 SEC2        0.0000 
     18 N         139.5830   -6.5610   54.8390 N.am      5 SEP2        0.0000 
     19 N         139.9890   -7.2555   57.2720 N.am      1 SEC2        0.0000 
     20 N         138.8860   -6.0650   57.4940 N.am      5 SEP2        0.0000 
     21 N         140.7765   -9.6560   57.8215 N.am      1 SEC2        0.0000 
     22 Zn        143.1040   -6.8495   59.7455 Zn        3 ZIC7        0.0000 
     23 Zn        142.1580   -6.7740   58.7400 Zn       11 ZIL7        0.0000 
     24 N         141.2055   -5.7480   59.1850 N.am      1 SEC2        0.0000 
     25 N         142.1580   -6.7740   58.7400 N.am      9 SEL2        0.0000 
     26 N         140.2530   -4.7220   59.6300 N.am      5 SEP2        0.0000 
     27 N         144.6670   -7.2120   58.0830 N.am      1 SEC2        0.0000 
     28 N         143.6390   -8.3030   57.3530 N.am      9 SEL2        0.0000 
     29 N         145.6950   -6.1210   58.8130 N.am      5 SEP2        0.0000 
     30 N         143.2885   -9.3390   56.2100 N.am      1 SEC2        0.0000 
     31 N         141.1870   -3.0515   57.5140 N.am      1 SEC2        0.0000 
     32 N         141.9590   -3.9770   56.5540 N.am      9 SEL2        0.0000 
     33 N         140.4150   -2.1260   58.4740 N.am      5 SEP2        0.0000 
     34 N         141.6400   -2.7565   56.2185 N.am      1 SEC2        0.0000 
     35 N         141.3210   -1.5360   55.8830 N.am      5 SEP2        0.0000 
     36 N         140.9490   -6.5250   55.5060 N.am      1 SEC2        0.0000 
     37 N         142.3150   -6.4890   56.1730 N.am      9 SEL2        0.0000 
     38 CA        143.9595   -2.5610   54.6680 C.3       4 GLC5        0.0000 
     39 CA        142.7370   -3.8470   53.7540 C.3      12 GLL5        0.0000 
     40 CA        145.1820   -1.2750   55.5820 C.3       8 GLP5        0.0000 
     41 CA        141.3505   -2.3555   53.1780 C.3       4 GLC5        0.0000 
     42 CA        139.9640   -0.8640   52.6020 C.3       8 GLP5        0.0000 
     43 CA        140.9825   -4.5270   54.4975 C.3       4 GLC5        0.0000 
     44 CA        139.2280   -5.2070   55.2410 C.3       8 GLP5        0.0000 
     45 CA        144.0015   -2.5070   51.5255 C.3       4 GLC5        0.0000 
     46 CA        143.2850   -4.0330   52.3370 C.3      12 GLL5        0.0000 
     47 CA        144.7180   -0.9810   50.7140 C.3       8 GLP5        0.0000 
     48 CA        146.0075   -4.5215   49.7885 C.3       4 GLC5        0.0000 
     49 CA        145.5490   -4.5600   51.9090 C.3      12 GLL5        0.0000 
     50 CA        146.4660   -4.4830   47.6680 C.3       8 GLP5        0.0000 
     51 CA        145.1335   -2.7705   51.3115 C.3       4 GLC5        0.0000 
     52 CA        143.5373   -7.3982   53.1735 C.3       4 GLC5        0.0000 
     53 CA        144.8170   -5.8840   52.0510 C.3      12 GLL5        0.0000 
     54 CA        142.9890   -9.1050   54.3550 C.3       8 GLP5        0.0000 
@<TRIPOS>BOND
@<TRIPOS>SUBSTRUCTURE
     1 SEC2        4 GROUP        1 X    SEC  0     ROOT SEC X 2
     2 LYC4        1 GROUP        1 X    LYC  0     **** LYC X 4
     3 ZIC7        9 GROUP        1 X    ZIC  0     **** ZIC X 5
     4 GLC5       38 GROUP        1 X    GLC  0     **** GLC X 6
     5 SEP2        6 GROUP        1 Y    SEP  0     ROOT SEP Y 9
     6 LYP4        3 GROUP        1 Y    LYP  0     **** LYP Y 11
     7 ZIP7       11 GROUP        1 Y    ZIP  0     **** ZIP Y 12
     8 GLP5       40 GROUP        1 Y    GLP  0     **** GLP Y 13
     9 SEL2        5 GROUP        1 Z    SEL  0     ROOT SEL Z 16
    10 LYL4        2 GROUP        1 Z    LYL  0     **** LYL Z 18
    11 ZIL7       10 GROUP        1 Z    ZIL  0     **** ZIL Z 19
    12 GLL5       39 GROUP        1 Z    GLL  0     **** GLL Z 20
@<TRIPOS>SET

