#    Name: 3si7_ATP_2_ligand
#    Modification time : Tue Mar 25 12:39:22 2014

@<TRIPOS>MOLECULE
3si7_ATP_2_ligand
   43    45     1     0     0
SMALL
NO_CHARGES


@<TRIPOS>ATOM
      1 PG        144.1170   -9.5300   58.2930 P.3       1 ATP1        0.0000 
      2 O1G       143.2050  -10.6850   57.9340 O.co2     1 ATP1        0.0000 
      3 O2G       143.9360   -9.0400   59.7080 O.co2     1 ATP1        0.0000 
      4 O3G       145.5740   -9.7530   57.9300 O.co2     1 ATP1        0.0000 
      5 PB        142.2180   -7.5130   57.4190 P.3       1 ATP1        0.0000 
      6 O1B       141.0920   -8.4460   57.0500 O.co2     1 ATP1        0.0000 
      7 O2B       142.1580   -6.7740   58.7400 O.co2     1 ATP1        0.0000 
      8 O3B       143.6390   -8.3030   57.3530 O.3       1 ATP1        0.0000 
      9 PA        142.9920   -5.0130   56.1720 P.3       1 ATP1        0.0000 
     10 O1A       144.3170   -5.1340   56.8740 O.co2     1 ATP1        0.0000 
     11 O2A       141.9590   -3.9770   56.5540 O.co2     1 ATP1        0.0000 
     12 O3A       142.3150   -6.4890   56.1730 O.3       1 ATP1        0.0000 
     13 O5'       143.2950   -4.8640   54.5910 O.3       1 ATP1        0.0000 
     14 C5'       142.7370   -3.8470   53.7540 C.3       1 ATP1        0.0000 
     15 C4'       143.2850   -4.0330   52.3370 C.3       1 ATP1        0.0000 
     16 O4'       144.6210   -3.5310   52.2670 O.3       1 ATP1        0.0000 
     17 C3'       143.3540   -5.4990   51.9330 C.3       1 ATP1        0.0000 
     18 O3'       142.9380   -5.6230   50.5700 O.3       1 ATP1        0.0000 
     19 C2'       144.8170   -5.8840   52.0510 C.3       1 ATP1        0.0000 
     20 O2'       145.2040   -6.8130   51.0320 O.3       1 ATP1        0.0000 
     21 C1'       145.5490   -4.5600   51.9090 C.3       1 ATP1        0.0000 
     22 N9        146.7290   -4.4890   52.8100 N.pl3     1 ATP1        0.0000 
     23 C8        146.7070   -4.5860   54.1550 C.2       1 ATP1        0.0000 
     24 N7        147.9580   -4.4720   54.6720 N.2       1 ATP1        0.0000 
     25 C5        148.8080   -4.2990   53.6400 C.ar      1 ATP1        0.0000 
     26 C6        150.2720   -4.1130   53.4750 C.ar      1 ATP1        0.0000 
     27 N6        151.1010   -4.0900   54.5490 N.pl3     1 ATP1        0.0000 
     28 N1        150.7510   -3.9680   52.2180 N.ar      1 ATP1        0.0000 
     29 C2        149.9420   -3.9880   51.1400 C.ar      1 ATP1        0.0000 
     30 N3        148.6090   -4.1520   51.2140 N.ar      1 ATP1        0.0000 
     31 C4        147.9930   -4.3120   52.4140 C.ar      1 ATP1        0.0000 
     32 H         143.0120   -2.8472   54.0901 H         1 ATP1        0.0000 
     33 H         141.6501   -3.9128   53.7033 H         1 ATP1        0.0000 
     34 H         142.6478   -3.5181   51.6434 H         1 ATP1        0.0000 
     35 H         142.7841   -6.0704   52.6012 H         1 ATP1        0.0000 
     36 H         144.9847   -6.2491   53.0404 H         1 ATP1        0.0000 
     37 H         145.8578   -4.4515   50.8877 H         1 ATP1        0.0000 
     38 H         145.8983   -4.7209   54.6932 H         1 ATP1        0.0000 
     39 H         152.0694   -3.9341   54.3541 H         1 ATP1        0.0000 
     40 H         150.6703   -4.2310   55.4404 H         1 ATP1        0.0000 
     41 H         150.3841   -3.8671   50.1762 H         1 ATP1        0.0000 
     42 H         143.5222   -6.3377   50.1852 H         1 ATP1        0.0000 
     43 H         146.1700   -6.6204   50.8597 H         1 ATP1        0.0000 
@<TRIPOS>BOND
     1    2    1 ar   
     2    3    1 ar   
     3    4    1 ar   
     4    8    1 1    
     5    6    5 ar   
     6    7    5 ar   
     7    8    5 1    
     8   12    5 1    
     9   10    9 ar   
    10   11    9 ar   
    11   12    9 1    
    12   13    9 1    
    13   14   13 1    
    14   15   14 1    
    15   32   14 1    
    16   33   14 1    
    17   16   15 1    
    18   17   15 1    
    19   34   15 1    
    20   21   16 1    
    21   18   17 1    
    22   19   17 1    
    23   35   17 1    
    24   42   18 1    
    25   20   19 1    
    26   21   19 1    
    27   36   19 1    
    28   43   20 1    
    29   22   21 1    
    30   37   21 1    
    31   23   22 1    
    32   31   22 1    
    33   24   23 2    
    34   38   23 1    
    35   25   24 1    
    36   26   25 ar   
    37   31   25 ar   
    38   27   26 1    
    39   28   26 ar   
    40   39   27 1    
    41   40   27 1    
    42   29   28 ar   
    43   30   29 ar   
    44   41   29 1    
    45   31   30 ar   
@<TRIPOS>SUBSTRUCTURE
     1 ATP1        1 GROUP   
@<TRIPOS>SET

