#    Name: 1pmu_9HP_1_INTS_M
#    Modification time : Mon Mar 24 21:57:06 2014

@<TRIPOS>MOLECULE
1pmu_9HP_1_INTS_M
   82     0     9     0     0
SMALL
NO_CHARGES


@<TRIPOS>ATOM
      1 CA         25.1350   23.2945   50.1535 C.3       3 GLC5        0.0000 
      2 CA         23.5400   22.8160   49.1950 C.3       9 GLL5        0.0000 
      3 CA         26.7300   23.7730   51.1120 C.3       6 GLP5        0.0000 
      4 CA         21.2635   20.5845   49.4545 C.3       3 GLC5        0.0000 
      5 CA         22.3640   22.1630   49.6050 C.3       9 GLL5        0.0000 
      6 CA         20.1630   19.0060   49.3040 C.3       6 GLP5        0.0000 
      7 CA         20.9890   22.7705   50.6555 C.3       3 GLC5        0.0000 
      8 CA         19.6140   23.3780   51.7060 C.3       6 GLP5        0.0000 
      9 N          19.8825   21.4995   48.9175 N.am      2 SEC2        0.0000 
     10 N          21.2220   22.1490   48.8470 N.am      8 SEL2        0.0000 
     11 N          18.5430   20.8500   48.9880 N.am      5 SEP2        0.0000 
     12 CA         19.1520   22.6620   47.8000 C.3       3 GLC5        0.0000 
     13 CA         21.1770   22.7770   47.6340 C.3       9 GLL5        0.0000 
     14 CA         17.1270   22.5470   47.9660 C.3       6 GLP5        0.0000 
     15 CA         20.6700   20.8915   48.4690 C.3       3 GLC5        0.0000 
     16 CA         20.8270   24.0840   49.0480 C.3       3 GLC5        0.0000 
     17 CA         20.4770   25.3910   50.4620 C.3       6 GLP5        0.0000 
     18 CA         25.3170   23.4045   44.7490 C.3       3 GLC5        0.0000 
     19 CA         24.7770   24.8190   46.3080 C.3       9 GLL5        0.0000 
     20 CA         25.8570   21.9900   43.1900 C.3       6 GLP5        0.0000 
     21 CA         25.8040   24.7865   48.9900 C.3       3 GLC5        0.0000 
     22 CA         24.7410   24.1450   47.5380 C.3       9 GLL5        0.0000 
     23 CA         26.8670   25.4280   50.4420 C.3       6 GLP5        0.0000 
     24 CA         24.1960   25.4560   42.4130 C.3       3 GLC5        0.0000 
     25 CA         22.6670   25.5900   43.3760 C.3       9 GLL5        0.0000 
     26 CA         25.7250   25.3220   41.4500 C.3       6 GLP5        0.0000 
     27 N          24.5630   26.3495   43.6210 N.am      2 SEC2        0.0000 
     28 N          23.7040   25.5090   44.2620 N.am      8 SEL2        0.0000 
     29 N          25.4220   27.1900   42.9800 N.am      5 SEP2        0.0000 
     30 CA         18.3215   22.9605   39.4305 C.3       3 GLC5        0.0000 
     31 CA         18.4540   24.1920   41.3030 C.3       9 GLL5        0.0000 
     32 CA         18.1890   21.7290   37.5580 C.3       6 GLP5        0.0000 
     33 CA         20.1830   22.0265   41.6530 C.3       3 GLC5        0.0000 
     34 CA         19.5380   24.0020   42.2010 C.3       9 GLL5        0.0000 
     35 CA         20.8280   20.0510   41.1050 C.3       6 GLP5        0.0000 
     36 CA         19.7775   24.7970   39.7760 C.3       3 GLC5        0.0000 
     37 CA         18.1130   25.5110   40.8900 C.3       9 GLL5        0.0000 
     38 CA         21.4420   24.0830   38.6620 C.3       6 GLP5        0.0000 
     39 N          17.6165   24.9390   38.7840 N.am      2 SEC2        0.0000 
     40 N          17.0730   25.7590   40.0360 N.am      8 SEL2        0.0000 
     41 N          18.1600   24.1190   37.5320 N.am      5 SEP2        0.0000 
     42 O          16.8005   24.4110   39.3530 O.2       1 ALC1        0.0000 
     43 O          17.0730   25.7590   40.0360 O.2       7 ALL1        0.0000 
     44 O          16.5280   23.0630   38.6700 O.2       4 ALP1        0.0000 
     45 CA         22.3830   21.4765   47.0528 C.3       3 GLC5        0.0000 
     46 CA         22.3110   23.4790   47.0970 C.3       9 GLL5        0.0000 
     47 CA         23.0220   19.8250   46.7400 C.3       6 GLP5        0.0000 
     48 CA         24.7037   22.2862   46.9945 C.3       3 GLC5        0.0000 
     49 CA         23.5300   23.4880   47.9300 C.3       9 GLL5        0.0000 
     50 CA         25.2720   20.7560   46.2550 C.3       6 GLP5        0.0000 
     51 CA         21.8536   24.2704   49.4081 C.3       3 GLC5        0.0000 
     52 CA         23.3831   25.1884   48.5236 C.3       3 GLC5        0.0000 
     53 CA         23.5360   27.2270   48.6930 C.3       6 GLP5        0.0000 
     54 CA         22.9870   21.1572   48.0700 C.3       3 GLC5        0.0000 
     55 CA         20.9727   25.2467   47.0469 C.3       3 GLC5        0.0000 
     56 CA         19.8970   26.8340   47.5080 C.3       6 GLP5        0.0000 
     57 CA         23.2647   25.8695   47.1655 C.3       3 GLC5        0.0000 
     58 CA         22.3530   24.1910   45.8060 C.3       9 GLL5        0.0000 
     59 CA         23.2082   23.0815   44.3405 C.3       3 GLC5        0.0000 
     60 CA         23.6340   24.8330   45.4700 C.3       9 GLL5        0.0000 
     61 CA         23.4230   21.6510   43.0430 C.3       6 GLP5        0.0000 
     62 CA         24.9188   26.6975   45.4170 C.3       3 GLC5        0.0000 
     63 CA         25.6320   28.5690   44.9450 C.3       6 GLP5        0.0000 
     64 CA         25.5192   24.8095   44.1010 C.3       3 GLC5        0.0000 
     65 CA         26.8330   24.7930   42.3130 C.3       6 GLP5        0.0000 
     66 CA         24.7387   22.7910   46.0720 C.3       3 GLC5        0.0000 
     67 CA         24.1475   25.8545   47.8080 C.3       3 GLC5        0.0000 
     68 CA         26.6820   24.0025   46.7810 C.3       3 GLC5        0.0000 
     69 CA         28.6050   23.5230   46.6390 C.3       6 GLP5        0.0000 
     70 CA         19.5880   25.0770   44.8858 C.3       3 GLC5        0.0000 
     71 CA         21.2800   24.2860   44.8610 C.3       9 GLL5        0.0000 
     72 CA         17.8270   25.5170   45.5180 C.3       6 GLP5        0.0000 
     73 CA         22.1662   27.0945   44.3375 C.3       3 GLC5        0.0000 
     74 CA         21.4180   24.9880   43.6460 C.3       9 GLL5        0.0000 
     75 CA         22.2900   28.9000   45.1640 C.3       6 GLP5        0.0000 
     76 CA         22.7155   23.3822   43.4289 C.3       3 GLC5        0.0000 
     77 CA         18.4115   24.8070   43.6350 C.3       3 GLC5        0.0000 
     78 CA         17.9945   22.9300   43.0065 C.3       3 GLC5        0.0000 
     79 CA         16.9930   21.7630   44.2610 C.3       6 GLP5        0.0000 
     80 CA         20.5393   24.3440   40.4387 C.3       3 GLC5        0.0000 
     81 CA         20.2770   25.1130   42.6790 C.3       9 GLL5        0.0000 
     82 CA         18.6500   25.8479   43.7151 C.3       3 GLC5        0.0000 
@<TRIPOS>BOND
@<TRIPOS>SUBSTRUCTURE
     1 ALC1       42 GROUP        1 X    ALC  0     ROOT ALC X 1
     2 SEC2        9 GROUP        1 X    SEC  0     **** SEC X 2
     3 GLC5        1 GROUP        1 X    GLC  0     **** GLC X 6
     4 ALP1       44 GROUP        1 Y    ALP  0     ROOT ALP Y 8
     5 SEP2       11 GROUP        1 Y    SEP  0     **** SEP Y 9
     6 GLP5        3 GROUP        1 Y    GLP  0     **** GLP Y 13
     7 ALL1       43 GROUP        1 Z    ALL  0     ROOT ALL Z 15
     8 SEL2       10 GROUP        1 Z    SEL  0     **** SEL Z 16
     9 GLL5        2 GROUP        1 Z    GLL  0     **** GLL Z 20
@<TRIPOS>SET

