#    Name: 1pmu_9HP_1_ligand
#    Modification time : Mon Mar 24 21:57:06 2014

@<TRIPOS>MOLECULE
1pmu_9HP_1_ligand
   33    36     1     0     0
SMALL
NO_CHARGES


@<TRIPOS>ATOM
      1 C1         22.3110   23.4790   47.0970 C.ar      1 9HP501      0.0000 
      2 C2         23.5300   23.4880   47.9300 C.ar      1 9HP501      0.0000 
      3 C3         23.5400   22.8160   49.1950 C.ar      1 9HP501      0.0000 
      4 C4         22.3640   22.1630   49.6050 C.ar      1 9HP501      0.0000 
      5 N5         21.2220   22.1490   48.8470 N.ar      1 9HP501      0.0000 
      6 C6         21.1770   22.7770   47.6340 C.ar      1 9HP501      0.0000 
      7 C10        22.3530   24.1910   45.8060 C.ar      1 9HP501      0.0000 
      8 C11        23.6340   24.8330   45.4700 C.ar      1 9HP501      0.0000 
      9 C12        24.7770   24.8190   46.3080 C.ar      1 9HP501      0.0000 
     10 C13        24.7410   24.1450   47.5380 C.ar      1 9HP501      0.0000 
     11 C16        21.2800   24.2860   44.8610 C.ar      1 9HP501      0.0000 
     12 C17        21.4180   24.9880   43.6460 C.ar      1 9HP501      0.0000 
     13 C18        22.6670   25.5900   43.3760 C.ar      1 9HP501      0.0000 
     14 N19        23.7040   25.5090   44.2620 N.ar      1 9HP501      0.0000 
     15 C22        18.4540   24.1920   41.3030 C.ar      1 9HP501      0.0000 
     16 C23        19.5380   24.0020   42.2010 C.ar      1 9HP501      0.0000 
     17 C24        20.2770   25.1130   42.6790 C.ar      1 9HP501      0.0000 
     18 C25        19.9130   26.4000   42.2440 C.ar      1 9HP501      0.0000 
     19 C26        18.8510   26.6010   41.3630 C.ar      1 9HP501      0.0000 
     20 C27        18.1130   25.5110   40.8900 C.ar      1 9HP501      0.0000 
     21 O32        17.0730   25.7590   40.0360 O.3       1 9HP501      0.0000 
     22 H          24.3683   22.8182   49.7633 H         1 9HP501      0.0000 
     23 H          22.3762   21.6711   50.5304 H         1 9HP501      0.0000 
     24 H          20.3113   22.7641   47.0596 H         1 9HP501      0.0000 
     25 H          25.6271   25.3033   46.0096 H         1 9HP501      0.0000 
     26 H          25.5480   24.1158   48.1461 H         1 9HP501      0.0000 
     27 H          20.3852   23.8244   45.0849 H         1 9HP501      0.0000 
     28 H          22.7797   26.1012   42.4784 H         1 9HP501      0.0000 
     29 H          17.9277   23.3975   40.9589 H         1 9HP501      0.0000 
     30 H          19.7856   23.0579   42.5035 H         1 9HP501      0.0000 
     31 H          20.4507   27.2160   42.5898 H         1 9HP501      0.0000 
     32 H          18.6082   27.5523   41.0591 H         1 9HP501      0.0000 
     33 H          16.6875   24.8596   39.8298 H         1 9HP501      0.0000 
@<TRIPOS>BOND
     1    2    1 ar   
     2    6    1 ar   
     3    7    1 ar   
     4    3    2 ar   
     5   10    2 ar   
     6    4    3 ar   
     7   22    3 1    
     8    5    4 ar   
     9   23    4 1    
    10    6    5 ar   
    11   24    6 1    
    12    8    7 ar   
    13   11    7 ar   
    14    9    8 ar   
    15   14    8 ar   
    16   10    9 ar   
    17   25    9 1    
    18   26   10 1    
    19   12   11 ar   
    20   27   11 1    
    21   13   12 ar   
    22   17   12 1    
    23   14   13 ar   
    24   28   13 1    
    25   16   15 ar   
    26   20   15 ar   
    27   29   15 1    
    28   17   16 ar   
    29   30   16 1    
    30   18   17 ar   
    31   19   18 ar   
    32   31   18 1    
    33   20   19 ar   
    34   32   19 1    
    35   21   20 1    
    36   33   21 1    
@<TRIPOS>SUBSTRUCTURE
     1 9HP501      1 GROUP   
@<TRIPOS>SET

