#    Name: 2wd8_VGF_3_INTS_M
#    Modification time : Tue Mar 25 04:06:24 2014

@<TRIPOS>MOLECULE
2wd8_VGF_3_INTS_M
   62     0     6     0     0
SMALL
NO_CHARGES


@<TRIPOS>ATOM
      1 CA         -4.3660   22.7130   25.5295 C.3       2 GLC5        0.0000 
      2 CA         -5.5360   21.7960   26.3330 C.3       6 GLL5        0.0000 
      3 CA         -3.1960   23.6300   24.7260 C.3       4 GLP5        0.0000 
      4 CA         -6.2560   22.9635   24.7220 C.3       2 GLC5        0.0000 
      5 CA         -6.9760   24.1310   23.1110 C.3       4 GLP5        0.0000 
      6 CA         -6.3100   19.9890   26.4975 C.3       2 GLC5        0.0000 
      7 CA         -7.0840   18.1820   26.6620 C.3       4 GLP5        0.0000 
      8 CA         -4.1760   19.9755   21.8965 C.3       2 GLC5        0.0000 
      9 CA         -5.1970   20.6680   23.4250 C.3       6 GLL5        0.0000 
     10 CA         -3.1550   19.2830   20.3680 C.3       4 GLP5        0.0000 
     11 CA         -6.9485   20.8710   22.2205 C.3       2 GLC5        0.0000 
     12 CA         -8.7000   21.0740   21.0160 C.3       4 GLP5        0.0000 
     13 CA         -3.8740   21.9215   23.4975 C.3       2 GLC5        0.0000 
     14 CA         -2.5510   23.1750   23.5700 C.3       4 GLP5        0.0000 
     15 CA         -6.0865   22.3995   23.2680 C.3       2 GLC5        0.0000 
     16 CA         -6.9130   20.0710   24.2805 C.3       2 GLC5        0.0000 
     17 CA         -8.6290   19.4740   25.1360 C.3       4 GLP5        0.0000 
     18 CA         -3.2550   19.1215   22.4105 C.3       2 GLC5        0.0000 
     19 CA         -3.3550   18.9600   24.4530 C.3       6 GLL5        0.0000 
     20 CA         -3.1600   19.6755   29.1025 C.3       2 GLC5        0.0000 
     21 CA         -1.8930   18.2670   27.9770 C.3       6 GLL5        0.0000 
     22 CA         -4.4270   21.0840   30.2280 C.3       4 GLP5        0.0000 
     23 O          -2.1425   14.0160   27.4885 O.2       1 ALC1        0.0000 
     24 O          -2.1730   15.3290   27.7530 O.2       5 ALL1        0.0000 
     25 O          -2.1120   12.7030   27.2240 O.2       3 ALP1        0.0000 
     26 O          -3.1905   15.9000   28.7105 O.2       1 ALC1        0.0000 
     27 O          -4.2080   16.4710   29.6680 O.2       3 ALP1        0.0000 
     28 CA          2.3700   18.0940   24.0190 C.3       2 GLC5        0.0000 
     29 CA          2.7570   17.5730   25.6340 C.3       6 GLL5        0.0000 
     30 CA          1.9830   18.6150   22.4040 C.3       4 GLP5        0.0000 
     31 CA          4.2830   17.0605   24.4395 C.3       2 GLC5        0.0000 
     32 CA          5.8090   16.5480   23.2450 C.3       4 GLP5        0.0000 
     33 CA          0.6220   24.2065   28.6980 C.3       2 GLC5        0.0000 
     34 CA         -0.4640   22.5140   28.1260 C.3       6 GLL5        0.0000 
     35 CA          1.7080   25.8990   29.2700 C.3       4 GLP5        0.0000 
     36 CA          0.6640   22.6305   30.8325 C.3       2 GLC5        0.0000 
     37 CA         -0.0340   21.5270   29.0110 C.3       6 GLL5        0.0000 
     38 CA          1.3620   23.7340   32.6540 C.3       4 GLP5        0.0000 
     39 CA         -3.8097   20.2497   28.5850 C.3       2 GLC5        0.0000 
     40 CA         -3.6440   19.9390   27.0680 C.3       6 GLL5        0.0000 
     41 CA         -5.8370   20.7160   27.8247 C.3       2 GLC5        0.0000 
     42 CA         -4.4080   20.4960   26.0260 C.3       6 GLL5        0.0000 
     43 CA         -6.7020   20.2860   29.4700 C.3       4 GLP5        0.0000 
     44 CA         -4.7770   17.8447   23.7430 C.3       2 GLC5        0.0000 
     45 CA         -4.2570   20.0010   24.7190 C.3       6 GLL5        0.0000 
     46 CA         -5.7480   16.2090   22.9000 C.3       4 GLP5        0.0000 
     47 CA         -5.4450   18.8312   25.6240 C.3       2 GLC5        0.0000 
     48 CA         -1.2745   18.7763   24.1148 C.3       2 GLC5        0.0000 
     49 CA          0.4330   18.8640   23.2550 C.3       4 GLP5        0.0000 
     50 CA         -3.6540   16.8948   25.6950 C.3       2 GLC5        0.0000 
     51 CA         -2.6090   18.4170   25.4960 C.3       6 GLL5        0.0000 
     52 CA         -4.6330   15.1350   25.2340 C.3       4 GLP5        0.0000 
     53 CA         -5.2337   18.8684   26.6717 C.3       2 GLC5        0.0000 
     54 CA         -2.7410   18.8920   26.8160 C.3       6 GLL5        0.0000 
     55 CA          0.8666   17.7756   24.7431 C.3       2 GLC5        0.0000 
     56 CA          0.2560   17.6080   26.8650 C.3       6 GLL5        0.0000 
     57 CA          1.0065   18.8325   24.8137 C.3       2 GLC5        0.0000 
     58 CA          2.2090   18.7840   26.0670 C.3       6 GLL5        0.0000 
     59 CA          0.3367   19.7092   24.9625 C.3       2 GLC5        0.0000 
     60 CA          0.4500   20.0550   27.1140 C.3       6 GLL5        0.0000 
     61 CA         -1.3320   23.1067   29.8627 C.3       2 GLC5        0.0000 
     62 CA         -2.4150   24.1930   31.1570 C.3       4 GLP5        0.0000 
@<TRIPOS>BOND
@<TRIPOS>SUBSTRUCTURE
     1 ALC1       23 GROUP        1 X    ALC  0     ROOT ALC X 1
     2 GLC5        1 GROUP        1 X    GLC  0     **** GLC X 6
     3 ALP1       25 GROUP        1 Y    ALP  0     ROOT ALP Y 8
     4 GLP5        3 GROUP        1 Y    GLP  0     **** GLP Y 13
     5 ALL1       24 GROUP        1 Z    ALL  0     ROOT ALL Z 15
     6 GLL5        2 GROUP        1 Z    GLL  0     **** GLL Z 20
@<TRIPOS>SET

