#    Name: 2wd8_VGF_3_ligand
#    Modification time : Tue Mar 25 04:06:24 2014

@<TRIPOS>MOLECULE
2wd8_VGF_3_ligand
   40    43     1     0     0
SMALL
NO_CHARGES


@<TRIPOS>ATOM
      1 CAN        -3.6440   19.9390   27.0680 C.ar      1 VGF1270     0.0000 
      2 CAS        -4.4080   20.4960   26.0260 C.ar      1 VGF1270     0.0000 
      3 CLAC       -5.5360   21.7960   26.3330 Cl        1 VGF1270     0.0000 
      4 CAR        -4.2570   20.0010   24.7190 C.ar      1 VGF1270     0.0000 
      5 CLAB       -5.1970   20.6680   23.4250 Cl        1 VGF1270     0.0000 
      6 CAK        -3.3550   18.9600   24.4530 C.ar      1 VGF1270     0.0000 
      7 CAJ        -2.6090   18.4170   25.4960 C.ar      1 VGF1270     0.0000 
      8 CAQ        -2.7410   18.8920   26.8160 C.ar      1 VGF1270     0.0000 
      9 CAO        -1.8930   18.2670   27.9770 C.3       1 VGF1270     0.0000 
     10 NAY        -0.9240   17.3010   27.4070 N.pl3     1 VGF1270     0.0000 
     11 CAX         0.2560   17.6080   26.8650 C.ar      1 VGF1270     0.0000 
     12 CAU        -1.1020   15.9810   27.3140 C.2       1 VGF1270     0.0000 
     13 NAA        -2.1730   15.3290   27.7530 N.pl3     1 VGF1270     0.0000 
     14 NAP        -0.0400   15.4010   26.7250 N.2       1 VGF1270     0.0000 
     15 CAW         0.8150   16.3890   26.4300 C.ar      1 VGF1270     0.0000 
     16 CAM         2.0650   16.3760   25.8150 C.ar      1 VGF1270     0.0000 
     17 CAG         2.7570   17.5730   25.6340 C.ar      1 VGF1270     0.0000 
     18 CAL         2.2090   18.7840   26.0670 C.ar      1 VGF1270     0.0000 
     19 CAV         0.9510   18.8180   26.6780 C.ar      1 VGF1270     0.0000 
     20 CAT         0.4500   20.0550   27.1140 C.ar      1 VGF1270     0.0000 
     21 CAH         0.0310   21.0540   26.2260 C.ar      1 VGF1270     0.0000 
     22 CAE        -0.4330   22.2730   26.7460 C.ar      1 VGF1270     0.0000 
     23 CAD        -0.4640   22.5140   28.1260 C.ar      1 VGF1270     0.0000 
     24 CAF        -0.0340   21.5270   29.0110 C.ar      1 VGF1270     0.0000 
     25 CAI         0.4310   20.3120   28.5020 C.ar      1 VGF1270     0.0000 
     26 H          -3.7480   20.3025   28.0242 H         1 VGF1270     0.0000 
     27 H          -3.2496   18.6062   23.4999 H         1 VGF1270     0.0000 
     28 H          -1.9426   17.6493   25.3052 H         1 VGF1270     0.0000 
     29 H          -2.5777   17.7777   28.6588 H         1 VGF1270     0.0000 
     30 H          -1.3845   19.0763   28.4864 H         1 VGF1270     0.0000 
     31 H          -2.6470   15.7366   28.5335 H         1 VGF1270     0.0000 
     32 H          -2.4085   14.4895   27.2633 H         1 VGF1270     0.0000 
     33 H           2.4742   15.4919   25.4972 H         1 VGF1270     0.0000 
     34 H           3.6807   17.5665   25.1771 H         1 VGF1270     0.0000 
     35 H           2.7357   19.6590   25.9352 H         1 VGF1270     0.0000 
     36 H           0.0617   20.9006   25.2216 H         1 VGF1270     0.0000 
     37 H          -0.7587   23.0081   26.0953 H         1 VGF1270     0.0000 
     38 H          -0.8023   23.4139   28.4799 H         1 VGF1270     0.0000 
     39 H          -0.0579   21.6884   30.0187 H         1 VGF1270     0.0000 
     40 H           0.7697   19.5816   29.1503 H         1 VGF1270     0.0000 
@<TRIPOS>BOND
     1    2    1 ar   
     2    8    1 ar   
     3   26    1 1    
     4    3    2 1    
     5    4    2 ar   
     6    5    4 1    
     7    6    4 ar   
     8    7    6 ar   
     9   27    6 1    
    10    8    7 ar   
    11   28    7 1    
    12    9    8 1    
    13   10    9 1    
    14   29    9 1    
    15   30    9 1    
    16   11   10 1    
    17   12   10 1    
    18   15   11 ar   
    19   19   11 ar   
    20   13   12 1    
    21   14   12 2    
    22   31   13 1    
    23   32   13 1    
    24   15   14 1    
    25   16   15 ar   
    26   17   16 ar   
    27   33   16 1    
    28   18   17 ar   
    29   34   17 1    
    30   19   18 ar   
    31   35   18 1    
    32   20   19 1    
    33   21   20 ar   
    34   25   20 ar   
    35   22   21 ar   
    36   36   21 1    
    37   23   22 ar   
    38   37   22 1    
    39   24   23 ar   
    40   38   23 1    
    41   25   24 ar   
    42   39   24 1    
    43   40   25 1    
@<TRIPOS>SUBSTRUCTURE
     1 VGF1270     1 GROUP   
@<TRIPOS>SET

