#    Name: 1F9T_1_CAVITY_N1_ALL.mol2
#    Modification time : Mon Mar 10 22:49:13 2014

@<TRIPOS>MOLECULE
1F9T_1_CAVITY_N1_ALL.mol2
   65     0     6     0     0
SMALL
NO_CHARGES


@<TRIPOS>ATOM
      1 CA        -12.1207   13.9235    5.9901 C.3       5 GLY6        0.0000 
      2 CA        -15.1138   11.6947    8.0084 C.3       5 GLY6        0.0000 
      3 CA         -9.1606   15.0163    7.1274 C.3       5 GLY6        0.0000 
      4 CA        -10.1334   13.9453    6.7316 C.3       5 GLY6        0.0000 
      5 OG        -10.6571   13.9018    8.1366 O.2       1 SER1        0.0000 
      6 OG        -11.1809   13.8584    9.5415 O.2       1 SER1        0.0000 
      7 OG        -12.2284   13.7716   12.3513 O.2       1 SER1        0.0000 
      8 OG        -12.7521   13.7281   13.7562 O.2       1 SER1        0.0000 
      9 CA        -11.1062   12.8742    6.3359 C.3       5 GLY6        0.0000 
     10 CA        -11.6299   12.8308    7.7408 C.3       5 GLY6        0.0000 
     11 OG        -12.1537   12.7874    9.1457 O.2       1 SER1        0.0000 
     12 DU        -12.6774   12.7440   10.5507 H         6 CUB7        0.0000 
     13 DU        -13.2011   12.7005   11.9556 H         6 CUB7        0.0000 
     14 N         -12.6027   11.7598    7.3451 N.2       2 ALA2        0.0000 
     15 DU        -13.1264   11.7164    8.7500 H         6 CUB7        0.0000 
     16 DU        -13.6502   11.6729   10.1549 H         6 CUB7        0.0000 
     17 N         -14.0992   10.6454    8.3542 N.2       2 ALA2        0.0000 
     18 DU        -14.6230   10.6019    9.7592 H         6 CUB7        0.0000 
     19 O          -5.1530   16.1959    5.4548 O.2       2 ALA2        0.0000 
     20 O          -5.6767   16.1524    6.8598 O.2       2 ALA2        0.0000 
     21 CA         -6.1257   15.1248    5.0591 C.3       5 GLY6        0.0000 
     22 CA         -6.6495   15.0814    6.4640 C.3       5 GLY6        0.0000 
     23 CA         -7.1732   15.0380    7.8689 C.3       5 GLY6        0.0000 
     24 CA         -8.1460   13.9670    7.4732 C.3       5 GLY6        0.0000 
     25 OG         -8.6698   13.9236    8.8781 O.2       1 SER1        0.0000 
     26 O          -9.1188   12.8960    7.0774 O.2       2 ALA2        0.0000 
     27 OG         -9.6425   12.8525    8.4824 O.2       1 SER1        0.0000 
     28 OG        -10.1663   12.8091    9.8873 O.2       1 SER1        0.0000 
     29 OG        -10.6900   12.7657   11.2922 O.2       1 SER1        0.0000 
     30 OG        -11.2138   12.7223   12.6971 O.2       1 SER1        0.0000 
     31 OG        -11.7375   12.6788   14.1020 O.2       1 SER1        0.0000 
     32 CA        -10.6153   11.7815    8.0866 C.3       5 GLY6        0.0000 
     33 DU        -11.1391   11.7381    9.4915 H         6 CUB7        0.0000 
     34 DU        -11.6628   11.6947   10.8965 H         6 CUB7        0.0000 
     35 CA        -12.1866   11.6512   12.3014 C.3       5 GLY6        0.0000 
     36 CZ        -12.7103   11.6078   13.7063 C.ar      4 PHE5        0.0000 
     37 N         -11.5881   10.7105    7.6909 N.2       2 ALA2        0.0000 
     38 CA        -12.1118   10.6671    9.0958 C.3       5 GLY6        0.0000 
     39 CA        -12.6356   10.6236   10.5007 C.3       5 GLY6        0.0000 
     40 CA        -13.1593   10.5802   11.9056 C.3       5 GLY6        0.0000 
     41 CA        -13.0846    9.5961    8.7000 C.3       5 GLY6        0.0000 
     42 CA        -13.6084    9.5526   10.1050 C.3       5 GLY6        0.0000 
     43 CA         -5.6349   14.0321    6.8098 C.3       5 GLY6        0.0000 
     44 CA         -6.1586   13.9887    8.2147 C.3       5 GLY6        0.0000 
     45 CA         -7.1314   12.9177    7.8190 C.3       5 GLY6        0.0000 
     46 OD1        -7.6552   12.8743    9.2239 O.3       3 ASP3        0.0000 
     47 O          -8.1042   11.8467    7.4232 O.2       2 ALA2        0.0000 
     48 OD1        -8.6280   11.8032    8.8282 O.3       3 ASP3        0.0000 
     49 OD1        -9.1517   11.7598   10.2331 O.3       3 ASP3        0.0000 
     50 CA         -9.6754   11.7164   11.6380 C.3       5 GLY6        0.0000 
     51 OG        -10.1992   11.6730   13.0429 O.2       1 SER1        0.0000 
     52 O          -9.6007   10.7322    8.4324 O.2       2 ALA2        0.0000 
     53 DU        -10.1245   10.6888    9.8373 H         6 CUB7        0.0000 
     54 O         -10.6482   10.6454   11.2423 O.2       2 ALA2        0.0000 
     55 O         -11.1720   10.6019   12.6472 O.2       2 ALA2        0.0000 
     56 CA        -11.6957   10.5585   14.0521 C.3       5 GLY6        0.0000 
     57 O         -10.5735    9.6612    8.0367 O.2       2 ALA2        0.0000 
     58 CA        -11.0973    9.6178    9.4416 C.3       5 GLY6        0.0000 
     59 CA        -11.6210    9.5743   10.8465 C.3       5 GLY6        0.0000 
     60 OD1        -6.1168   11.8684    8.1648 O.3       3 ASP3        0.0000 
     61 OD1        -7.0896   10.7974    7.7690 O.3       3 ASP3        0.0000 
     62 O          -8.0624    9.7263    7.3733 O.2       2 ALA2        0.0000 
     63 OD1        -8.5861    9.6829    8.7782 O.3       3 ASP3        0.0000 
     64 O          -9.1099    9.6395   10.1831 O.2       2 ALA2        0.0000 
     65 O          -9.6336    9.5961   11.5881 O.2       2 ALA2        0.0000 
@<TRIPOS>BOND
@<TRIPOS>SUBSTRUCTURE
     1 SER1        5 GROUP   
     2 ALA2       14 GROUP   
     3 ASP3       46 GROUP   
     4 PHE5       36 GROUP   
     5 GLY6        1 GROUP   
     6 CUB7       12 GROUP   
@<TRIPOS>SET

