#    Name: 1f9t_ADP_1_INTS_M
#    Modification time : Tue Mar 25 01:02:35 2014

@<TRIPOS>MOLECULE
1f9t_ADP_1_INTS_M
   53     0    12     0     0
SMALL
NO_CHARGES


@<TRIPOS>ATOM
      1 NZ         -7.1835    7.7110    7.0015 N.4       2 LYC4        0.0000 
      2 NZ         -8.4440    8.1190    7.5400 N.4      10 LYL4        0.0000 
      3 NZ         -5.9230    7.3030    6.4630 N.4       6 LYP4        0.0000 
      4 N          -8.7705    9.2650    6.3115 N.am      1 SEC2        0.0000 
      5 N          -8.4440    8.1190    7.5400 N.am      9 SEL2        0.0000 
      6 N          -9.0970   10.4110    5.0830 N.am      5 SEP2        0.0000 
      7 N          -9.8260    7.5920    7.6120 N.am      1 SEC2        0.0000 
      8 N         -11.2080    7.0650    7.6840 N.am      5 SEP2        0.0000 
      9 N          -8.8605    7.1125    8.5400 N.am      1 SEC2        0.0000 
     10 N          -9.2770    6.1060    9.5400 N.am      5 SEP2        0.0000 
     11 N          -7.1835    7.7110    7.0015 N.am      1 SEC2        0.0000 
     12 N          -5.9230    7.3030    6.4630 N.am      5 SEP2        0.0000 
     13 Zn         -6.9055    9.8770   10.0920 Zn        3 ZIC7        0.0000 
     14 Zn         -7.7700    9.2310    9.7410 Zn       11 ZIL7        0.0000 
     15 Zn         -6.0410   10.5230   10.4430 Zn        7 ZIP7        0.0000 
     16 N          -7.8955    8.2855   10.8115 N.am      1 SEC2        0.0000 
     17 N          -7.7700    9.2310    9.7410 N.am      9 SEL2        0.0000 
     18 N          -8.0210    7.3400   11.8820 N.am      5 SEP2        0.0000 
     19 NZ         -6.8725    8.8955    6.9685 N.4       2 LYC4        0.0000 
     20 NZ         -7.8220   10.4880    7.4740 N.4      10 LYL4        0.0000 
     21 N          -8.4595   10.4495    6.2785 N.am      1 SEC2        0.0000 
     22 N          -7.8220   10.4880    7.4740 N.am      9 SEL2        0.0000 
     23 N         -10.4975    8.6615   12.1850 N.am      1 SEC2        0.0000 
     24 N         -10.6610    9.3830   10.9760 N.am      9 SEL2        0.0000 
     25 N         -10.3340    7.9400   13.3940 N.am      5 SEP2        0.0000 
     26 N         -10.5620    8.4485    8.1615 N.am      1 SEC2        0.0000 
     27 N          -9.9160    9.8320    8.6390 N.am      9 SEL2        0.0000 
     28 CA        -11.5955   10.8295    6.6690 C.3       4 GLC5        0.0000 
     29 CA        -12.6570   11.0400    8.3080 C.3      12 GLL5        0.0000 
     30 CA        -10.5340   10.6190    5.0300 C.3       8 GLP5        0.0000 
     31 CA        -12.1255    8.8880    8.6780 C.3       4 GLC5        0.0000 
     32 CA        -11.5940    6.7360    9.0480 C.3       8 GLP5        0.0000 
     33 CA        -15.3280   12.3690    6.9955 C.3       4 GLC5        0.0000 
     34 CA        -13.9910   11.7690    8.6410 C.3      12 GLL5        0.0000 
     35 CA        -16.6650   12.9690    5.3500 C.3       8 GLP5        0.0000 
     36 CA        -14.6835   10.2140   12.6115 C.3       4 GLC5        0.0000 
     37 CA        -14.6060   11.3930   10.9700 C.3      12 GLL5        0.0000 
     38 CA        -14.7610    9.0350   14.2530 C.3       8 GLP5        0.0000 
     39 CA        -16.8550   11.4255    8.6090 C.3       4 GLC5        0.0000 
     40 CA        -15.5290   10.6230   10.0400 C.3      12 GLL5        0.0000 
     41 CA        -18.1810   12.2280    7.1780 C.3       8 GLP5        0.0000 
     42 CA        -18.9930    6.7140   10.5140 C.3       4 GLC5        0.0000 
     43 CA        -18.6430    7.9720   11.9100 C.3      12 GLL5        0.0000 
     44 CA        -19.3430    5.4560    9.1180 C.3       8 GLP5        0.0000 
     45 CA        -16.1945    8.0535    8.8120 C.3       4 GLC5        0.0000 
     46 CA        -16.5580    8.5030   10.9120 C.3      12 GLL5        0.0000 
     47 CA        -15.8310    7.6040    6.7120 C.3       8 GLP5        0.0000 
     48 CA        -16.4750    6.0048    9.4070 C.3       4 GLC5        0.0000 
     49 CA        -16.1550    7.1520   10.9830 C.3      12 GLL5        0.0000 
     50 CA        -16.3460    5.3110    7.5550 C.3       8 GLP5        0.0000 
     51 CA        -17.9735    6.0773   10.1885 C.3       4 GLC5        0.0000 
     52 CA        -14.5668    7.8978   12.0542 C.3       4 GLC5        0.0000 
     53 CA        -12.7770    7.9680   13.1610 C.3       8 GLP5        0.0000 
@<TRIPOS>BOND
@<TRIPOS>SUBSTRUCTURE
     1 SEC2        4 GROUP        1 X    SEC  0     ROOT SEC X 2
     2 LYC4        1 GROUP        1 X    LYC  0     **** LYC X 4
     3 ZIC7       13 GROUP        1 X    ZIC  0     **** ZIC X 5
     4 GLC5       28 GROUP        1 X    GLC  0     **** GLC X 6
     5 SEP2        6 GROUP        1 Y    SEP  0     ROOT SEP Y 9
     6 LYP4        3 GROUP        1 Y    LYP  0     **** LYP Y 11
     7 ZIP7       15 GROUP        1 Y    ZIP  0     **** ZIP Y 12
     8 GLP5       30 GROUP        1 Y    GLP  0     **** GLP Y 13
     9 SEL2        5 GROUP        1 Z    SEL  0     ROOT SEL Z 16
    10 LYL4        2 GROUP        1 Z    LYL  0     **** LYL Z 18
    11 ZIL7       14 GROUP        1 Z    ZIL  0     **** ZIL Z 19
    12 GLL5       29 GROUP        1 Z    GLL  0     **** GLL Z 20
@<TRIPOS>SET

