#    Name: 1f9t_ADP_1_ligand
#    Modification time : Tue Mar 25 01:02:36 2014

@<TRIPOS>MOLECULE
1f9t_ADP_1_ligand
   39    41     1     0     0
SMALL
NO_CHARGES


@<TRIPOS>ATOM
      1 PB         -8.4490    9.4000    8.2790 P.3       1 ADP999      0.0000 
      2 O1B        -8.4440    8.1190    7.5400 O.co2     1 ADP999      0.0000 
      3 O2B        -7.7700    9.2310    9.7410 O.co2     1 ADP999      0.0000 
      4 O3B        -7.8220   10.4880    7.4740 O.co2     1 ADP999      0.0000 
      5 PA        -10.5700   10.4270    9.9520 P.3       1 ADP999      0.0000 
      6 O1A       -10.6610    9.3830   10.9760 O.co2     1 ADP999      0.0000 
      7 O2A        -9.8080   11.5670   10.4730 O.co2     1 ADP999      0.0000 
      8 O3A        -9.9160    9.8320    8.6390 O.3       1 ADP999      0.0000 
      9 O5'       -12.0080   10.9750    9.5780 O.3       1 ADP999      0.0000 
     10 C5'       -12.6570   11.0400    8.3080 C.3       1 ADP999      0.0000 
     11 C4'       -13.9910   11.7690    8.6410 C.3       1 ADP999      0.0000 
     12 O4'       -14.9690   10.7350    8.7150 O.3       1 ADP999      0.0000 
     13 C3'       -13.9940   12.4300   10.0420 C.3       1 ADP999      0.0000 
     14 O3'       -14.7190   13.6710   10.0760 O.3       1 ADP999      0.0000 
     15 C2'       -14.6060   11.3930   10.9700 C.3       1 ADP999      0.0000 
     16 O2'       -15.2170   11.9540   12.1370 O.3       1 ADP999      0.0000 
     17 C1'       -15.5290   10.6230   10.0400 C.3       1 ADP999      0.0000 
     18 N9        -15.5720    9.1620   10.3600 N.pl3     1 ADP999      0.0000 
     19 C8        -14.5820    8.2880   10.0940 C.2       1 ADP999      0.0000 
     20 N7        -14.9470    7.0790   10.4750 N.2       1 ADP999      0.0000 
     21 C5        -16.1550    7.1520   10.9830 C.ar      1 ADP999      0.0000 
     22 C6        -17.0530    6.2450   11.5350 C.ar      1 ADP999      0.0000 
     23 N6        -16.7300    4.9460   11.6250 N.pl3     1 ADP999      0.0000 
     24 N1        -18.2710    6.6750   11.9820 N.ar      1 ADP999      0.0000 
     25 C2        -18.6430    7.9720   11.9100 C.ar      1 ADP999      0.0000 
     26 N3        -17.7850    8.8620   11.3770 N.ar      1 ADP999      0.0000 
     27 C4        -16.5580    8.5030   10.9120 C.ar      1 ADP999      0.0000 
     28 H         -12.9038   10.0787    7.9192 H         1 ADP999      0.0000 
     29 H         -12.1291   11.6407    7.6032 H         1 ADP999      0.0000 
     30 H         -14.2116   12.4706    7.9057 H         1 ADP999      0.0000 
     31 H         -12.9578   12.5519   10.3326 H         1 ADP999      0.0000 
     32 H         -13.7848   10.7037   11.2246 H         1 ADP999      0.0000 
     33 H         -16.5010   11.0398   10.0725 H         1 ADP999      0.0000 
     34 H         -13.7278    8.5292    9.6806 H         1 ADP999      0.0000 
     35 H         -17.4041    4.3546   12.0675 H         1 ADP999      0.0000 
     36 H         -15.8440    4.6853   11.2415 H         1 ADP999      0.0000 
     37 H         -19.5685    8.2726   12.2579 H         1 ADP999      0.0000 
     38 H         -14.0457   14.3564   10.3533 H         1 ADP999      0.0000 
     39 H         -15.2656   12.9364   11.9566 H         1 ADP999      0.0000 
@<TRIPOS>BOND
     1    2    1 ar   
     2    3    1 ar   
     3    4    1 ar   
     4    8    1 1    
     5    6    5 ar   
     6    7    5 ar   
     7    8    5 1    
     8    9    5 1    
     9   10    9 1    
    10   11   10 1    
    11   28   10 1    
    12   29   10 1    
    13   12   11 1    
    14   13   11 1    
    15   30   11 1    
    16   17   12 1    
    17   14   13 1    
    18   15   13 1    
    19   31   13 1    
    20   38   14 1    
    21   16   15 1    
    22   17   15 1    
    23   32   15 1    
    24   39   16 1    
    25   18   17 1    
    26   33   17 1    
    27   19   18 1    
    28   27   18 1    
    29   20   19 2    
    30   34   19 1    
    31   21   20 1    
    32   22   21 ar   
    33   27   21 ar   
    34   23   22 1    
    35   24   22 ar   
    36   35   23 1    
    37   36   23 1    
    38   25   24 ar   
    39   26   25 ar   
    40   37   25 1    
    41   27   26 ar   
@<TRIPOS>SUBSTRUCTURE
     1 ADP999      1 GROUP   
@<TRIPOS>SET

