#    Name: 3zqa_NDP_2_INTS_M
#    Modification time : Tue Mar 25 03:49:41 2014

@<TRIPOS>MOLECULE
3zqa_NDP_2_INTS_M
   81     0    12     0     0
SMALL
NO_CHARGES


@<TRIPOS>ATOM
      1 N          54.4620  -90.5275  -20.4680 N.am      2 SEC2        0.0000 
      2 N          53.4130  -91.1120  -21.1030 N.am     10 SEL2        0.0000 
      3 N          55.5110  -89.9430  -19.8330 N.am      6 SEP2        0.0000 
      4 N          53.1420  -91.2920  -23.7715 N.am      2 SEC2        0.0000 
      5 N          52.3160  -92.2810  -22.9870 N.am     10 SEL2        0.0000 
      6 N          53.9680  -90.3030  -24.5560 N.am      6 SEP2        0.0000 
      7 CA         51.5525  -88.7945  -20.3785 C.3       4 GLC5        0.0000 
      8 CA         50.8120  -90.6340  -20.0130 C.3      12 GLL5        0.0000 
      9 CA         52.2930  -86.9550  -20.7440 C.3       8 GLP5        0.0000 
     10 CA         52.3890  -89.9605  -19.0555 C.3       4 GLC5        0.0000 
     11 CA         53.9660  -89.2870  -18.0980 C.3       8 GLP5        0.0000 
     12 CA         50.2100  -88.2560  -20.4095 C.3       4 GLC5        0.0000 
     13 CA         49.4510  -89.9580  -20.0690 C.3      12 GLL5        0.0000 
     14 CA         50.9690  -86.5540  -20.7500 C.3       8 GLP5        0.0000 
     15 CA         46.7195  -91.8650  -19.0910 C.3       4 GLC5        0.0000 
     16 CA         48.2860  -90.8850  -20.2520 C.3      12 GLL5        0.0000 
     17 CA         45.1530  -92.8450  -17.9300 C.3       8 GLP5        0.0000 
     18 O          47.5120  -90.1620  -18.2570 O.2       1 ALC1        0.0000 
     19 O          47.2200  -90.2790  -19.5640 O.2       9 ALL1        0.0000 
     20 O          47.8040  -90.0450  -16.9500 O.2       5 ALP1        0.0000 
     21 N          45.2640  -90.7550  -21.4975 N.am      2 SEC2        0.0000 
     22 N          46.6370  -91.2130  -22.0210 N.am     10 SEL2        0.0000 
     23 N          43.8910  -90.2970  -20.9740 N.am      6 SEP2        0.0000 
     24 CA         47.7860  -87.9865  -20.7860 C.3       4 GLC5        0.0000 
     25 CA         48.2860  -89.3910  -22.0320 C.3      12 GLL5        0.0000 
     26 CA         47.2860  -86.5820  -19.5400 C.3       8 GLP5        0.0000 
     27 CA         49.6275  -87.9725  -21.3910 C.3       4 GLC5        0.0000 
     28 CA         47.3150  -88.1660  -27.4435 C.3       4 GLC5        0.0000 
     29 CA         48.9180  -87.3030  -26.4350 C.3      12 GLL5        0.0000 
     30 CA         45.7120  -89.0290  -28.4520 C.3       8 GLP5        0.0000 
     31 CA         47.2345  -85.0275  -23.0045 C.3       4 GLC5        0.0000 
     32 CA         47.8910  -85.9240  -24.8790 C.3      12 GLL5        0.0000 
     33 CA         46.5780  -84.1310  -21.1300 C.3       8 GLP5        0.0000 
     34 CA         46.6500  -87.6040  -24.7995 C.3       4 GLC5        0.0000 
     35 CA         45.4090  -89.2840  -24.7200 C.3       8 GLP5        0.0000 
     36 CA         45.9885  -85.7710  -24.4805 C.3       4 GLC5        0.0000 
     37 CA         44.0860  -85.6180  -24.0820 C.3       8 GLP5        0.0000 
     38 CA         46.3960  -84.8085  -26.0490 C.3       4 GLC5        0.0000 
     39 CA         44.9010  -83.6930  -27.2190 C.3       8 GLP5        0.0000 
     40 CA         49.3220  -85.2755  -24.4265 C.3       4 GLC5        0.0000 
     41 CA         50.7530  -84.6270  -23.9740 C.3       8 GLP5        0.0000 
     42 N          51.2770  -96.0100  -19.5870 N.am      2 SEC2        0.0000 
     43 N          51.2130  -95.5920  -21.1250 N.am     10 SEL2        0.0000 
     44 N          51.3410  -96.4280  -18.0490 N.am      6 SEP2        0.0000 
     45 CA         57.9575  -96.2815  -17.7400 C.3       4 GLC5        0.0000 
     46 CA         57.1840  -95.2330  -19.2420 C.3      12 GLL5        0.0000 
     47 CA         58.7310  -97.3300  -16.2380 C.3       8 GLP5        0.0000 
     48 CA         56.7460  -91.9745  -20.0170 C.3       4 GLC5        0.0000 
     49 CA         56.6840  -93.8460  -19.5690 C.3      12 GLL5        0.0000 
     50 CA         56.8080  -90.1030  -20.4650 C.3       8 GLP5        0.0000 
     51 CA         56.5385  -91.3280  -19.0250 C.3       4 GLC5        0.0000 
     52 CA         56.2690  -92.5530  -17.5850 C.3      12 GLL5        0.0000 
     53 O          58.1075  -89.4600  -15.4160 O.2       1 ALC1        0.0000 
     54 O          57.2380  -90.8710  -15.7330 O.2       9 ALL1        0.0000 
     55 O          58.9770  -88.0490  -15.0990 O.2       5 ALP1        0.0000 
     56 NZ         44.5655  -91.6465  -21.2325 N.4       3 LYC4        0.0000 
     57 NZ         45.2400  -92.9960  -21.4910 N.4      11 LYL4        0.0000 
     58 NZ         43.8910  -90.2970  -20.9740 N.4       7 LYP4        0.0000 
     59 N          44.5655  -91.6465  -21.2325 N.am      2 SEC2        0.0000 
     60 N          45.2400  -92.9960  -21.4910 N.am     10 SEL2        0.0000 
     61 N          44.6010  -93.5770  -20.5430 N.am      2 SEC2        0.0000 
     62 N          43.9620  -94.1580  -19.5950 N.am      6 SEP2        0.0000 
     63 N          45.3215  -91.6625  -24.2480 N.am      2 SEC2        0.0000 
     64 N          45.9650  -92.7940  -23.7940 N.am     10 SEL2        0.0000 
     65 N          44.6780  -90.5310  -24.7020 N.am      6 SEP2        0.0000 
     66 CA         48.0772  -88.5017  -19.8502 C.3       4 GLC5        0.0000 
     67 CA         46.0872  -89.4688  -21.3885 C.3       4 GLC5        0.0000 
     68 CA         44.0420  -88.8250  -20.8960 C.3       8 GLP5        0.0000 
     69 CA         46.7707  -89.6983  -23.3005 C.3       4 GLC5        0.0000 
     70 CA         47.0562  -88.6105  -24.8751 C.3       4 GLC5        0.0000 
     71 CA         48.9980  -88.3810  -25.4360 C.3      12 GLL5        0.0000 
     72 CA         50.5837  -88.2000  -24.5871 C.3       4 GLC5        0.0000 
     73 CA         48.4490  -88.0320  -24.1250 C.3      12 GLL5        0.0000 
     74 CA         52.4640  -88.4630  -24.1440 C.3       8 GLP5        0.0000 
     75 CA         49.7283  -86.2820  -24.5021 C.3       4 GLC5        0.0000 
     76 CA         54.9100  -90.8127  -17.5905 C.3       4 GLC5        0.0000 
     77 CA         55.4390  -92.1240  -16.5810 C.3      12 GLL5        0.0000 
     78 CA         52.4827  -92.2127  -16.0750 C.3       4 GLC5        0.0000 
     79 CA         54.0090  -92.5900  -16.5100 C.3      12 GLL5        0.0000 
     80 CA         51.1490  -91.3930  -15.1030 C.3       8 GLP5        0.0000 
     81 CA         53.8912  -91.1598  -17.5725 C.3       4 GLC5        0.0000 
@<TRIPOS>BOND
@<TRIPOS>SUBSTRUCTURE
     1 ALC1       18 GROUP        1 X    ALC  0     ROOT ALC X 1
     2 SEC2        1 GROUP        1 X    SEC  0     **** SEC X 2
     3 LYC4       56 GROUP        1 X    LYC  0     **** LYC X 4
     4 GLC5        7 GROUP        1 X    GLC  0     **** GLC X 6
     5 ALP1       20 GROUP        1 Y    ALP  0     ROOT ALP Y 8
     6 SEP2        3 GROUP        1 Y    SEP  0     **** SEP Y 9
     7 LYP4       58 GROUP        1 Y    LYP  0     **** LYP Y 11
     8 GLP5        9 GROUP        1 Y    GLP  0     **** GLP Y 13
     9 ALL1       19 GROUP        1 Z    ALL  0     ROOT ALL Z 15
    10 SEL2        2 GROUP        1 Z    SEL  0     **** SEL Z 16
    11 LYL4       57 GROUP        1 Z    LYL  0     **** LYL Z 18
    12 GLL5        8 GROUP        1 Z    GLL  0     **** GLL Z 20
@<TRIPOS>SET

