#    Name: 3zqa_NDP_2_ligand
#    Modification time : Tue Mar 25 03:49:42 2014

@<TRIPOS>MOLECULE
3zqa_NDP_2_ligand
   74    78     1     0     0
SMALL
NO_CHARGES


@<TRIPOS>ATOM
      1 PA         52.3910  -92.0040  -21.5910 P.3       1 NDP1498     0.0000 
      2 O1A        53.4130  -91.1120  -21.1030 O.co2     1 NDP1498     0.0000 
      3 O2A        52.3160  -92.2810  -22.9870 O.co2     1 NDP1498     0.0000 
      4 O5B        51.0200  -91.4140  -21.1770 O.3       1 NDP1498     0.0000 
      5 C5B        50.8120  -90.6340  -20.0130 C.3       1 NDP1498     0.0000 
      6 C4B        49.4510  -89.9580  -20.0690 C.3       1 NDP1498     0.0000 
      7 O4B        49.3970  -89.1150  -21.2000 O.3       1 NDP1498     0.0000 
      8 C3B        48.2860  -90.8850  -20.2520 C.3       1 NDP1498     0.0000 
      9 O3B        47.2200  -90.2790  -19.5640 O.3       1 NDP1498     0.0000 
     10 C2B        47.9790  -90.8340  -21.7300 C.3       1 NDP1498     0.0000 
     11 O2B        46.6370  -91.2130  -22.0210 O.3       1 NDP1498     0.0000 
     12 C1B        48.2860  -89.3910  -22.0320 C.3       1 NDP1498     0.0000 
     13 N9A        48.6460  -89.1130  -23.4380 N.pl3     1 NDP1498     0.0000 
     14 C8A        49.2770  -90.2050  -24.1180 C.2       1 NDP1498     0.0000 
     15 N7A        49.4760  -89.6340  -25.4340 N.2       1 NDP1498     0.0000 
     16 C5A        48.9980  -88.3810  -25.4360 C.ar      1 NDP1498     0.0000 
     17 C6A        48.9180  -87.3030  -26.4350 C.ar      1 NDP1498     0.0000 
     18 N6A        49.3970  -87.4770  -27.6670 N.pl3     1 NDP1498     0.0000 
     19 N1A        48.3660  -86.1520  -26.0980 N.ar      1 NDP1498     0.0000 
     20 C2A        47.8910  -85.9240  -24.8790 C.ar      1 NDP1498     0.0000 
     21 N3A        47.9110  -86.8300  -23.9120 N.ar      1 NDP1498     0.0000 
     22 C4A        48.4490  -88.0320  -24.1250 C.ar      1 NDP1498     0.0000 
     23 O3         52.4510  -93.4140  -20.8910 O.3       1 NDP1498     0.0000 
     24 PN         52.4080  -94.8670  -21.6260 P.3       1 NDP1498     0.0000 
     25 O1N        52.6370  -94.8290  -23.0730 O.co2     1 NDP1498     0.0000 
     26 O2N        51.2130  -95.5920  -21.1250 O.co2     1 NDP1498     0.0000 
     27 O5D        53.7160  -95.5820  -21.1070 O.3       1 NDP1498     0.0000 
     28 C5D        54.8030  -95.6540  -22.0120 C.3       1 NDP1498     0.0000 
     29 C4D        56.1200  -95.2310  -21.3860 C.3       1 NDP1498     0.0000 
     30 O4D        55.9630  -93.9670  -20.7880 O.3       1 NDP1498     0.0000 
     31 C3D        56.5920  -96.1430  -20.2700 C.3       1 NDP1498     0.0000 
     32 O3D        57.6600  -96.9840  -20.6820 O.3       1 NDP1498     0.0000 
     33 C2D        57.1840  -95.2330  -19.2420 C.3       1 NDP1498     0.0000 
     34 O2D        58.5960  -95.3220  -19.4000 O.3       1 NDP1498     0.0000 
     35 C1D        56.6840  -93.8460  -19.5690 C.3       1 NDP1498     0.0000 
     36 N1N        55.8040  -93.3830  -18.5050 N.pl3     1 NDP1498     0.0000 
     37 C2N        56.2690  -92.5530  -17.5850 C.2       1 NDP1498     0.0000 
     38 C3N        55.4390  -92.1240  -16.5810 C.2       1 NDP1498     0.0000 
     39 C7N        55.9890  -91.1780  -15.5580 C.2       1 NDP1498     0.0000 
     40 O7N        55.3730  -90.7350  -14.6200 O.2       1 NDP1498     0.0000 
     41 N7N        57.2380  -90.8710  -15.7330 N.am      1 NDP1498     0.0000 
     42 C4N        54.0090  -92.5900  -16.5100 C.3       1 NDP1498     0.0000 
     43 C5N        53.6240  -93.4750  -17.5840 C.2       1 NDP1498     0.0000 
     44 C6N        54.5490  -93.8180  -18.5210 C.2       1 NDP1498     0.0000 
     45 P2B        46.3470  -92.7200  -22.3860 P.3       1 NDP1498     0.0000 
     46 O1X        45.2400  -92.9960  -21.4910 O.co2     1 NDP1498     0.0000 
     47 O2X        45.9650  -92.7940  -23.7940 O.co2     1 NDP1498     0.0000 
     48 O3X        47.6490  -93.3240  -22.0760 O.co2     1 NDP1498     0.0000 
     49 H          51.5725  -89.8460  -19.9060 H         1 NDP1498     0.0000 
     50 H          50.8443  -91.2452  -19.0986 H         1 NDP1498     0.0000 
     51 H          49.2982  -89.3811  -19.1717 H         1 NDP1498     0.0000 
     52 H          48.5212  -91.8327  -19.9520 H         1 NDP1498     0.0000 
     53 H          48.7167  -91.4349  -22.2276 H         1 NDP1498     0.0000 
     54 H          47.4450  -88.7945  -21.7255 H         1 NDP1498     0.0000 
     55 H          49.4900  -91.0081  -23.8247 H         1 NDP1498     0.0000 
     56 H          49.3209  -86.6933  -28.2834 H         1 NDP1498     0.0000 
     57 H          49.7892  -88.3756  -27.8638 H         1 NDP1498     0.0000 
     58 H          47.4718  -84.9613  -24.6684 H         1 NDP1498     0.0000 
     59 H          54.6353  -95.0103  -22.9025 H         1 NDP1498     0.0000 
     60 H          54.9373  -96.6844  -22.4066 H         1 NDP1498     0.0000 
     61 H          56.8830  -95.1991  -22.1448 H         1 NDP1498     0.0000 
     62 H          55.7843  -96.6575  -19.8524 H         1 NDP1498     0.0000 
     63 H          56.8537  -95.5228  -18.2883 H         1 NDP1498     0.0000 
     64 H          57.5279  -93.2037  -19.6783 H         1 NDP1498     0.0000 
     65 H          57.2522  -92.2162  -17.6039 H         1 NDP1498     0.0000 
     66 H          57.6959  -91.3131  -16.5043 H         1 NDP1498     0.0000 
     67 H          57.6269  -90.2207  -15.0804 H         1 NDP1498     0.0000 
     68 H          53.3527  -91.6892  -16.4924 H         1 NDP1498     0.0000 
     69 H          53.8556  -93.0845  -15.5229 H         1 NDP1498     0.0000 
     70 H          52.6651  -93.8170  -17.6063 H         1 NDP1498     0.0000 
     71 H          54.2365  -94.4717  -19.3048 H         1 NDP1498     0.0000 
     72 H          47.5173  -90.2389  -18.6100 H         1 NDP1498     0.0000 
     73 H          58.4840  -96.5572  -20.3092 H         1 NDP1498     0.0000 
     74 H          58.9742  -95.0015  -18.5315 H         1 NDP1498     0.0000 
@<TRIPOS>BOND
     1    2    1 ar   
     2    3    1 ar   
     3    4    1 1    
     4   23    1 1    
     5    5    4 1    
     6    6    5 1    
     7   49    5 1    
     8   50    5 1    
     9    7    6 1    
    10    8    6 1    
    11   51    6 1    
    12   12    7 1    
    13    9    8 1    
    14   10    8 1    
    15   52    8 1    
    16   72    9 1    
    17   11   10 1    
    18   12   10 1    
    19   53   10 1    
    20   45   11 1    
    21   13   12 1    
    22   54   12 1    
    23   14   13 1    
    24   22   13 1    
    25   15   14 2    
    26   55   14 1    
    27   16   15 1    
    28   17   16 ar   
    29   22   16 ar   
    30   18   17 1    
    31   19   17 ar   
    32   56   18 1    
    33   57   18 1    
    34   20   19 ar   
    35   21   20 ar   
    36   58   20 1    
    37   22   21 ar   
    38   24   23 1    
    39   25   24 ar   
    40   26   24 ar   
    41   27   24 1    
    42   28   27 1    
    43   29   28 1    
    44   59   28 1    
    45   60   28 1    
    46   30   29 1    
    47   31   29 1    
    48   61   29 1    
    49   35   30 1    
    50   32   31 1    
    51   33   31 1    
    52   62   31 1    
    53   73   32 1    
    54   34   33 1    
    55   35   33 1    
    56   63   33 1    
    57   74   34 1    
    58   36   35 1    
    59   64   35 1    
    60   37   36 1    
    61   44   36 1    
    62   38   37 2    
    63   65   37 1    
    64   39   38 1    
    65   42   38 1    
    66   40   39 2    
    67   41   39 am   
    68   66   41 1    
    69   67   41 1    
    70   43   42 1    
    71   68   42 1    
    72   69   42 1    
    73   44   43 2    
    74   70   43 1    
    75   71   44 1    
    76   46   45 ar   
    77   47   45 ar   
    78   48   45 ar   
@<TRIPOS>SUBSTRUCTURE
     1 NDP1498     1 GROUP   
@<TRIPOS>SET

