#    Name: 3sa6_F71_1_INTS_M
#    Modification time : Mon Apr  7 22:09:42 2014

@<TRIPOS>MOLECULE
3sa6_F71_1_INTS_M
   86     0     9     0     0
SMALL
NO_CHARGES


@<TRIPOS>ATOM
      1 CA         23.6245   27.3025   13.5535 C.3       3 GLC5        0.0000 
      2 CA         23.3120   27.9910   11.6780 C.3       9 GLL5        0.0000 
      3 CA         23.9370   26.6140   15.4290 C.3       6 GLP5        0.0000 
      4 O          25.9680   25.9025   10.2335 O.2       1 ALC1        0.0000 
      5 O          25.3060   27.0950   10.7940 O.2       7 ALL1        0.0000 
      6 O          26.6300   24.7100    9.6730 O.2       4 ALP1        0.0000 
      7 CA         21.2230   34.3225   13.7790 C.3       3 GLC5        0.0000 
      8 CA         22.0680   32.7730   14.9900 C.3       9 GLL5        0.0000 
      9 CA         20.3780   35.8720   12.5680 C.3       6 GLP5        0.0000 
     10 CA         23.2215   32.7750   13.1160 C.3       3 GLC5        0.0000 
     11 CA         24.3750   32.7770   11.2420 C.3       6 GLP5        0.0000 
     12 CA         22.6815   33.0010   19.2195 C.3       3 GLC5        0.0000 
     13 CA         22.1560   33.7380   17.3210 C.3       9 GLL5        0.0000 
     14 CA         23.2070   32.2640   21.1180 C.3       6 GLP5        0.0000 
     15 CA         23.9475   32.6085   17.5255 C.3       3 GLC5        0.0000 
     16 CA         25.7390   31.4790   17.7300 C.3       6 GLP5        0.0000 
     17 CA         17.3650   30.8115   17.8445 C.3       3 GLC5        0.0000 
     18 CA         18.9500   30.7810   16.2760 C.3       9 GLL5        0.0000 
     19 CA         15.7800   30.8420   19.4130 C.3       6 GLP5        0.0000 
     20 CA         22.8550   36.0515   15.4650 C.3       3 GLC5        0.0000 
     21 CA         22.0220   35.1840   16.9090 C.3       9 GLL5        0.0000 
     22 CA         23.6880   36.9190   14.0210 C.3       6 GLP5        0.0000 
     23 N          19.2530   28.0230   17.7730 N.am      2 SEC2        0.0000 
     24 N          19.8230   28.5110   16.4750 N.am      8 SEL2        0.0000 
     25 N          18.6830   27.5350   19.0710 N.am      5 SEP2        0.0000 
     26 O          20.6595   28.1915   17.4210 O.2       1 ALC1        0.0000 
     27 O          19.8230   28.5110   16.4750 O.2       7 ALL1        0.0000 
     28 O          21.4960   27.8720   18.3670 O.2       4 ALP1        0.0000 
     29 O          21.3400   28.9425   16.9865 O.2       1 ALC1        0.0000 
     30 O          22.8570   29.3740   17.4980 O.2       4 ALP1        0.0000 
     31 O          20.3130   27.0460   14.0885 O.2       1 ALC1        0.0000 
     32 O          20.4840   28.5650   13.6370 O.2       7 ALL1        0.0000 
     33 O          20.1420   25.5270   14.5400 O.2       4 ALP1        0.0000 
     34 CA         17.2295   26.5255   14.4030 C.3       3 GLC5        0.0000 
     35 CA         18.1390   28.5270   14.1080 C.3       9 GLL5        0.0000 
     36 CA         16.3200   24.5240   14.6980 C.3       6 GLP5        0.0000 
     37 CA         17.1545   25.7295   13.4190 C.3       3 GLC5        0.0000 
     38 CA         17.9890   26.9350   12.1400 C.3       9 GLL5        0.0000 
     39 CA         17.1375   30.8285    9.9195 C.3       3 GLC5        0.0000 
     40 CA         17.1570   28.9550   10.4270 C.3       9 GLL5        0.0000 
     41 CA         17.1180   32.7020    9.4120 C.3       6 GLP5        0.0000 
     42 CA         17.0420   31.2375   11.2845 C.3       3 GLC5        0.0000 
     43 CA         17.4210   29.2380   11.7700 C.3       9 GLL5        0.0000 
     44 CA         16.6630   33.2370   10.7990 C.3       6 GLP5        0.0000 
     45 N          13.8875   35.1550   20.3655 N.am      2 SEC2        0.0000 
     46 N          14.1910   36.1710   19.0420 N.am      8 SEL2        0.0000 
     47 N          13.5840   34.1390   21.6890 N.am      5 SEP2        0.0000 
     48 CA         16.2715   33.3005   18.7650 C.3       3 GLC5        0.0000 
     49 CA         15.6840   34.9590   17.3680 C.3       9 GLL5        0.0000 
     50 CA         16.8590   31.6420   20.1620 C.3       6 GLP5        0.0000 
     51 CA         15.0565   31.1525   15.4660 C.3       3 GLC5        0.0000 
     52 CA         15.7900   32.8060   16.5910 C.3       9 GLL5        0.0000 
     53 CA         14.3230   29.4990   14.3410 C.3       6 GLP5        0.0000 
     54 CA         23.7127   29.6515   11.6955 C.3       3 GLC5        0.0000 
     55 CA         21.9710   27.8790   11.9140 C.3       9 GLL5        0.0000 
     56 CA         24.7840   31.3680   11.5950 C.3       6 GLP5        0.0000 
     57 CA         23.3362   23.9995   11.1750 C.3       3 GLC5        0.0000 
     58 CA         23.3040   25.7970   10.6270 C.3       9 GLL5        0.0000 
     59 CA         24.0510   22.2620   11.5960 C.3       6 GLP5        0.0000 
     60 CA         23.7785   34.7535   17.8390 C.3       3 GLC5        0.0000 
     61 CA         25.4680   35.0460   18.5630 C.3       6 GLP5        0.0000 
     62 CA         16.1335   26.6502   11.5085 C.3       3 GLC5        0.0000 
     63 CA         14.4070   26.5070   11.5500 C.3       6 GLP5        0.0000 
     64 CA         18.7710   29.5467    9.4292 C.3       3 GLC5        0.0000 
     65 CA         17.3210   27.6640    9.9360 C.3       9 GLL5        0.0000 
     66 CA         20.3030   30.7840    8.6770 C.3       6 GLP5        0.0000 
     67 CA         15.9970   28.5977    8.8737 C.3       3 GLC5        0.0000 
     68 CA         14.7550   28.8860    7.5660 C.3       6 GLP5        0.0000 
     69 CA         15.8230   27.4083   10.8658 C.3       3 GLC5        0.0000 
     70 CA         16.0190   27.6220   11.8770 C.3       3 GLC5        0.0000 
     71 CA         16.0143   29.1544   13.4562 C.3       3 GLC5        0.0000 
     72 CA         14.3277   37.8285   17.0173 C.3       3 GLC5        0.0000 
     73 CA         15.2170   36.1480   18.1530 C.3       9 GLL5        0.0000 
     74 CA         13.1380   38.8910   15.9050 C.3       6 GLP5        0.0000 
     75 CA         15.4525   33.2985   14.2800 C.3       3 GLC5        0.0000 
     76 CA         16.8180   33.4480   15.9050 C.3       9 GLL5        0.0000 
     77 CA         14.6010   33.4700   12.3120 C.3       6 GLP5        0.0000 
     78 CA         13.7600   33.3171   16.5386 C.3       3 GLC5        0.0000 
     79 CA         11.9260   33.0680   16.0780 C.3       6 GLP5        0.0000 
     80 CA         15.7440   32.1262   18.1303 C.3       3 GLC5        0.0000 
     81 CA         15.1120   33.6940   17.4470 C.3       9 GLL5        0.0000 
     82 CA         14.4345   35.2691   15.7221 C.3       3 GLC5        0.0000 
     83 CA         13.1370   36.1660   14.3090 C.3       6 GLP5        0.0000 
     84 CA         22.8071   25.9994   13.0297 C.3       3 GLC5        0.0000 
     85 CA         21.9390   25.6770   10.8810 C.3       9 GLL5        0.0000 
     86 CA         22.9020   25.5660   14.9970 C.3       6 GLP5        0.0000 
@<TRIPOS>BOND
@<TRIPOS>SUBSTRUCTURE
     1 ALC1        4 GROUP        1 X    ALC  0     ROOT ALC X 1
     2 SEC2       23 GROUP        1 X    SEC  0     **** SEC X 2
     3 GLC5        1 GROUP        1 X    GLC  0     **** GLC X 6
     4 ALP1        6 GROUP        1 Y    ALP  0     ROOT ALP Y 8
     5 SEP2       25 GROUP        1 Y    SEP  0     **** SEP Y 9
     6 GLP5        3 GROUP        1 Y    GLP  0     **** GLP Y 13
     7 ALL1        5 GROUP        1 Z    ALL  0     ROOT ALL Z 15
     8 SEL2       24 GROUP        1 Z    SEL  0     **** SEL Z 16
     9 GLL5        2 GROUP        1 Z    GLL  0     **** GLL Z 20
@<TRIPOS>SET

