#    Name: 3sa6_F71_1_ligand
#    Modification time : Mon Apr  7 22:09:42 2014

@<TRIPOS>MOLECULE
3sa6_F71_1_ligand
   73    76     1     0     0
SMALL
NO_CHARGES


@<TRIPOS>ATOM
      1 C21        21.2320   28.9730   12.6220 C.2       1 F71200      0.0000 
      2 O22        21.2800   30.1140   12.2060 O.2       1 F71200      0.0000 
      3 C22        21.9710   27.8790   11.9140 C.ar      1 F71200      0.0000 
      4 C27        23.3120   27.9910   11.6780 C.ar      1 F71200      0.0000 
      5 C26        23.9790   26.9550   11.0240 C.ar      1 F71200      0.0000 
      6 C25        23.3040   25.7970   10.6270 C.ar      1 F71200      0.0000 
      7 C24        21.9390   25.6770   10.8810 C.ar      1 F71200      0.0000 
      8 C23        21.2820   26.7260   11.5210 C.ar      1 F71200      0.0000 
      9 O27        25.3060   27.0950   10.7940 O.3       1 F71200      0.0000 
     10 N11        19.1890   32.0550   15.5650 N.pl3     1 F71200      0.0000 
     11 C12        19.9340   33.0530   16.3890 C.3       1 F71200      0.0000 
     12 C13        21.4420   32.7640   16.3930 C.3       1 F71200      0.0000 
     13 C14        22.0680   32.7730   14.9900 C.3       1 F71200      0.0000 
     14 C15        22.1560   33.7380   17.3210 C.3       1 F71200      0.0000 
     15 C16        18.9500   30.7810   16.2760 C.3       1 F71200      0.0000 
     16 C17        19.8420   29.6920   15.6600 C.3       1 F71200      0.0000 
     17 C18        22.0220   35.1840   16.9090 C.3       1 F71200      0.0000 
     18 O18        19.8230   28.5110   16.4750 O.3       1 F71200      0.0000 
     19 C19        19.4340   29.3520   14.2310 C.3       1 F71200      0.0000 
     20 N20        20.4840   28.5650   13.6370 N.am      1 F71200      0.0000 
     21 C32        18.1390   28.5270   14.1080 C.3       1 F71200      0.0000 
     22 C33        17.9890   26.9350   12.1400 C.ar      1 F71200      0.0000 
     23 C34        17.7310   26.6520   10.7940 C.ar      1 F71200      0.0000 
     24 C35        17.3210   27.6640    9.9360 C.ar      1 F71200      0.0000 
     25 C36        17.1570   28.9550   10.4270 C.ar      1 F71200      0.0000 
     26 C37        17.4210   29.2380   11.7700 C.ar      1 F71200      0.0000 
     27 C38        17.8410   28.2360   12.6380 C.ar      1 F71200      0.0000 
     28 C1         15.0720   38.1610   18.9940 C.2       1 F71200      0.0000 
     29 N1         14.0800   37.4070   19.5610 N.2       1 F71200      0.0000 
     30 O1         14.1910   36.1710   19.0420 O.3       1 F71200      0.0000 
     31 S1         17.0200   35.1420   16.2790 S.3       1 F71200      0.0000 
     32 C2         15.6840   34.9590   17.3680 C.2       1 F71200      0.0000 
     33 C3         15.2170   36.1480   18.1530 C.2       1 F71200      0.0000 
     34 C4         15.8180   37.3840   18.1060 C.2       1 F71200      0.0000 
     35 C5         16.8180   33.4480   15.9050 C.2       1 F71200      0.0000 
     36 C6         15.7900   32.8060   16.5910 C.2       1 F71200      0.0000 
     37 C7         15.1120   33.6940   17.4470 C.2       1 F71200      0.0000 
     38 S8         17.8510   32.6630   14.8310 S.o2      1 F71200      0.0000 
     39 O9         17.2020   31.5740   14.2100 O.2       1 F71200      0.0000 
     40 O10        18.3450   33.6470   13.9070 O.2       1 F71200      0.0000 
     41 H          23.8351   28.8236   11.9737 H         1 F71200      0.0000 
     42 H          23.8100   25.0443   10.1536 H         1 F71200      0.0000 
     43 H          21.4314   24.8386   10.6041 H         1 F71200      0.0000 
     44 H          20.2677   26.6538   11.7101 H         1 F71200      0.0000 
     45 H          19.5744   33.0321   17.4225 H         1 F71200      0.0000 
     46 H          19.7754   34.0614   15.9941 H         1 F71200      0.0000 
     47 H          21.5815   31.7530   16.8145 H         1 F71200      0.0000 
     48 H          23.2263   33.4685   17.3629 H         1 F71200      0.0000 
     49 H          21.7570   33.6116   18.3431 H         1 F71200      0.0000 
     50 H          17.9139   30.4729   16.1767 H         1 F71200      0.0000 
     51 H          19.1994   30.8745   17.3283 H         1 F71200      0.0000 
     52 H          20.8642   30.0966   15.6217 H         1 F71200      0.0000 
     53 H          19.3065   30.2667   13.6714 H         1 F71200      0.0000 
     54 H          20.6307   27.6089   14.0710 H         1 F71200      0.0000 
     55 H          17.3190   29.0896   14.5397 H         1 F71200      0.0000 
     56 H          18.2623   27.5932   14.6447 H         1 F71200      0.0000 
     57 H          18.2908   26.1795   12.7715 H         1 F71200      0.0000 
     58 H          17.8465   25.6924   10.4446 H         1 F71200      0.0000 
     59 H          17.1401   27.4620    8.9471 H         1 F71200      0.0000 
     60 H          16.8398   29.7077    9.8007 H         1 F71200      0.0000 
     61 H          17.3020   30.2023   12.1184 H         1 F71200      0.0000 
     62 H          15.2428   39.0930   19.1719 H         1 F71200      0.0000 
     63 H          16.5479   37.6517   17.6061 H         1 F71200      0.0000 
     64 H          15.5649   31.8717   16.4970 H         1 F71200      0.0000 
     65 H          14.3682   33.4535   17.9982 H         1 F71200      0.0000 
     66 H          23.0487   32.5800   15.0197 H         1 F71200      0.0000 
     67 H          21.6521   32.0867   14.3933 H         1 F71200      0.0000 
     68 H          21.9571   33.6589   14.5395 H         1 F71200      0.0000 
     69 H          22.5036   35.7953   17.5370 H         1 F71200      0.0000 
     70 H          22.3973   35.3465   15.9964 H         1 F71200      0.0000 
     71 H          21.0663   35.4776   16.8894 H         1 F71200      0.0000 
     72 H          25.6055   26.2028   10.4559 H         1 F71200      0.0000 
     73 H          20.7391   28.4561   16.8722 H         1 F71200      0.0000 
@<TRIPOS>BOND
     1    2    1 2    
     2    3    1 1    
     3   20    1 am   
     4    4    3 ar   
     5    8    3 ar   
     6    5    4 ar   
     7   41    4 1    
     8    6    5 ar   
     9    9    5 1    
    10    7    6 ar   
    11   42    6 1    
    12    8    7 ar   
    13   43    7 1    
    14   44    8 1    
    15   72    9 1    
    16   11   10 1    
    17   15   10 1    
    18   38   10 1    
    19   12   11 1    
    20   45   11 1    
    21   46   11 1    
    22   13   12 1    
    23   14   12 1    
    24   47   12 1    
    25   66   13 1    
    26   67   13 1    
    27   68   13 1    
    28   17   14 1    
    29   48   14 1    
    30   49   14 1    
    31   16   15 1    
    32   50   15 1    
    33   51   15 1    
    34   18   16 1    
    35   19   16 1    
    36   52   16 1    
    37   69   17 1    
    38   70   17 1    
    39   71   17 1    
    40   73   18 1    
    41   20   19 1    
    42   21   19 1    
    43   53   19 1    
    44   54   20 1    
    45   27   21 1    
    46   55   21 1    
    47   56   21 1    
    48   23   22 ar   
    49   27   22 ar   
    50   57   22 1    
    51   24   23 ar   
    52   58   23 1    
    53   25   24 ar   
    54   59   24 1    
    55   26   25 ar   
    56   60   25 1    
    57   27   26 ar   
    58   61   26 1    
    59   29   28 2    
    60   34   28 1    
    61   62   28 1    
    62   30   29 1    
    63   33   30 1    
    64   32   31 1    
    65   35   31 1    
    66   33   32 1    
    67   37   32 2    
    68   34   33 2    
    69   63   34 1    
    70   36   35 2    
    71   38   35 1    
    72   37   36 1    
    73   64   36 1    
    74   65   37 1    
    75   39   38 2    
    76   40   38 2    
@<TRIPOS>SUBSTRUCTURE
     1 F71200      1 GROUP   
@<TRIPOS>SET

