#    Name: 3owd_MEY_1_INTS_M
#    Modification time : Tue Mar 25 05:27:22 2014

@<TRIPOS>MOLECULE
3owd_MEY_1_INTS_M
   61     0     9     0     0
SMALL
NO_CHARGES


@<TRIPOS>ATOM
      1 CA         -2.4590    9.0365   18.7775 C.3       3 GLC5        0.0000 
      2 CA         -3.4850    7.0920   19.1550 C.3       9 GLL5        0.0000 
      3 CA         -1.4330   10.9810   18.4000 C.3       6 GLP5        0.0000 
      4 CA         -3.0985   10.0885   21.1485 C.3       3 GLC5        0.0000 
      5 CA         -3.7850    8.5440   22.5040 C.3       9 GLL5        0.0000 
      6 CA         -2.4120   11.6330   19.7930 C.3       6 GLP5        0.0000 
      7 CA         -4.7795   10.3960   23.0685 C.3       3 GLC5        0.0000 
      8 CA         -5.7740   12.2480   23.6330 C.3       6 GLP5        0.0000 
      9 CA         -2.9950    9.8160   19.9905 C.3       3 GLC5        0.0000 
     10 CA         -3.5780    7.9990   20.1880 C.3       9 GLL5        0.0000 
     11 CA          1.3315   12.7500   23.8125 C.3       3 GLC5        0.0000 
     12 CA          0.4930   11.4180   25.2460 C.3       9 GLL5        0.0000 
     13 CA          2.1700   14.0820   22.3790 C.3       6 GLP5        0.0000 
     14 CA          0.8155   13.4125   25.6865 C.3       3 GLC5        0.0000 
     15 CA          1.1380   15.4070   26.1270 C.3       6 GLP5        0.0000 
     16 CA          0.1895    3.0550   19.2605 C.3       3 GLC5        0.0000 
     17 CA         -0.8510    3.7170   20.9460 C.3       9 GLL5        0.0000 
     18 CA          1.2300    2.3930   17.5750 C.3       6 GLP5        0.0000 
     19 O           1.0375    8.7555   18.3240 O.2       1 ALC1        0.0000 
     20 O           0.8820    8.2690   19.7050 O.2       7 ALL1        0.0000 
     21 O           1.1930    9.2420   16.9430 O.2       4 ALP1        0.0000 
     22 N           2.0475   11.6580   20.2015 N.am      2 SEC2        0.0000 
     23 N           1.5110   10.4830   20.1350 N.am      8 SEL2        0.0000 
     24 N           2.5840   12.8330   20.2680 N.am      5 SEP2        0.0000 
     25 N           2.9800   10.2915   20.2260 N.am      2 SEC2        0.0000 
     26 N           4.4490   10.1000   20.3170 N.am      5 SEP2        0.0000 
     27 O           4.0700   10.5615   23.5545 O.2       1 ALC1        0.0000 
     28 O           2.9960   10.0480   22.9820 O.2       7 ALL1        0.0000 
     29 O           5.1440   11.0750   24.1270 O.2       4 ALP1        0.0000 
     30 CA         -1.0280   10.0935   26.1395 C.3       3 GLC5        0.0000 
     31 CA         -2.2050   11.6910   25.1340 C.3       9 GLL5        0.0000 
     32 CA          0.1490    8.4960   27.1450 C.3       6 GLP5        0.0000 
     33 CA         -3.9895   11.9695   24.3835 C.3       3 GLC5        0.0000 
     34 CA         -2.9220   12.7530   26.2175 C.3       3 GLC5        0.0000 
     35 CA         -3.6390   13.8150   27.3010 C.3       6 GLP5        0.0000 
     36 CA         -5.2233    8.2662   19.8532 C.3       3 GLC5        0.0000 
     37 CA         -6.9150    8.9870   20.0350 C.3       6 GLP5        0.0000 
     38 CA         -5.3238    8.5275   21.0203 C.3       3 GLC5        0.0000 
     39 CA         -3.6800    7.5920   21.5070 C.3       9 GLL5        0.0000 
     40 CA          1.8138    5.6719   21.4630 C.3       3 GLC5        0.0000 
     41 CA         -0.5250    5.6400   22.5430 C.3       9 GLL5        0.0000 
     42 CA          3.8630    5.6740   21.8670 C.3       6 GLP5        0.0000 
     43 CA          1.4980    6.4675   19.0718 C.3       3 GLC5        0.0000 
     44 CA          0.0160    5.9520   20.2220 C.3       9 GLL5        0.0000 
     45 CA          2.8070    6.3350   17.7590 C.3       6 GLP5        0.0000 
     46 CA          3.1435    9.5110   25.1270 C.3       3 GLC5        0.0000 
     47 CA          1.7250   11.0630   24.7330 C.3       9 GLL5        0.0000 
     48 CA          4.5370    8.3120   26.1130 C.3       6 GLP5        0.0000 
     49 CA          0.5487    4.6167   23.4686 C.3       3 GLC5        0.0000 
     50 CA         -0.2030    6.9560   22.8600 C.3       9 GLL5        0.0000 
     51 CA          1.5040    3.5170   24.9620 C.3       6 GLP5        0.0000 
     52 CA          1.9566    7.2514   21.6452 C.3       3 GLC5        0.0000 
     53 CA          3.7230    7.2020   21.8480 C.3       6 GLP5        0.0000 
     54 CA          2.4587    8.6845   22.5340 C.3       3 GLC5        0.0000 
     55 CA          0.6140    9.9770   22.8910 C.3       9 GLL5        0.0000 
     56 CA          1.6760   12.2127   22.9475 C.3       3 GLC5        0.0000 
     57 CA         -0.7874   11.7123   22.1841 C.3       3 GLC5        0.0000 
     58 CA         -0.6570   11.1480   24.5360 C.3       9 GLL5        0.0000 
     59 CA         -1.2480   12.7590   20.5300 C.3       6 GLP5        0.0000 
     60 CA          0.4946    9.6988   25.7589 C.3       3 GLC5        0.0000 
     61 CA          1.7750   10.3570   23.5490 C.3       9 GLL5        0.0000 
@<TRIPOS>BOND
@<TRIPOS>SUBSTRUCTURE
     1 ALC1       19 GROUP        1 X    ALC  0     ROOT ALC X 1
     2 SEC2       22 GROUP        1 X    SEC  0     **** SEC X 2
     3 GLC5        1 GROUP        1 X    GLC  0     **** GLC X 6
     4 ALP1       21 GROUP        1 Y    ALP  0     ROOT ALP Y 8
     5 SEP2       24 GROUP        1 Y    SEP  0     **** SEP Y 9
     6 GLP5        3 GROUP        1 Y    GLP  0     **** GLP Y 13
     7 ALL1       20 GROUP        1 Z    ALL  0     ROOT ALL Z 15
     8 SEL2       23 GROUP        1 Z    SEL  0     **** SEL Z 16
     9 GLL5        2 GROUP        1 Z    GLL  0     **** GLL Z 20
@<TRIPOS>SET

