#    Name: 3owd_MEY_1_ligand
#    Modification time : Tue Mar 25 05:27:22 2014

@<TRIPOS>MOLECULE
3owd_MEY_1_ligand
   52    56     1     0     0
SMALL
NO_CHARGES


@<TRIPOS>ATOM
      1 C1         -3.8920    8.1520   23.8240 C.ar      1 MEY1        0.0000 
      2 C2         -3.8990    6.8010   24.1600 C.ar      1 MEY1        0.0000 
      3 C3         -3.4850    7.0920   19.1550 C.ar      1 MEY1        0.0000 
      4 C4         -3.7850    8.5440   22.5040 C.ar      1 MEY1        0.0000 
      5 C5         -3.8080    5.8550   23.1500 C.ar      1 MEY1        0.0000 
      6 C6         -3.5780    7.9990   20.1880 C.ar      1 MEY1        0.0000 
      7 C7         -0.5250    5.6400   22.5430 C.ar      1 MEY1        0.0000 
      8 C8         -0.2030    6.9560   22.8600 C.ar      1 MEY1        0.0000 
      9 C9         -3.5000    5.7490   19.4500 C.ar      1 MEY1        0.0000 
     10 C10         0.0160    5.9520   20.2220 C.ar      1 MEY1        0.0000 
     11 C11        -0.6070   10.3890   23.3900 C.ar      1 MEY1        0.0000 
     12 C12         1.7250   11.0630   24.7330 C.ar      1 MEY1        0.0000 
     13 C13        -3.6800    7.5920   21.5070 C.ar      1 MEY1        0.0000 
     14 C14        -3.7170    6.2440   21.8270 C.ar      1 MEY1        0.0000 
     15 C15        -0.4490    5.1350   21.2490 C.ar      1 MEY1        0.0000 
     16 C16         0.2400    7.7510   21.8160 C.ar      1 MEY1        0.0000 
     17 C17         0.3620    7.2480   20.5470 C.ar      1 MEY1        0.0000 
     18 C18         0.6140    9.9770   22.8910 C.ar      1 MEY1        0.0000 
     19 C19         1.7750   10.3570   23.5490 C.ar      1 MEY1        0.0000 
     20 C20         0.4930   11.4180   25.2460 C.ar      1 MEY1        0.0000 
     21 C21        -3.6160    5.3480   20.7690 C.ar      1 MEY1        0.0000 
     22 C22        -0.6570   11.1480   24.5360 C.ar      1 MEY1        0.0000 
     23 C23         1.0950    9.3910   20.4980 C.2       1 MEY1        0.0000 
     24 C24        -0.8510    3.7170   20.9460 C.3       1 MEY1        0.0000 
     25 N25         0.8820    8.2690   19.7050 N.am      1 MEY1        0.0000 
     26 N26         0.6910    9.0770   21.7940 N.am      1 MEY1        0.0000 
     27 N27        -2.0360    3.2630   21.7210 N.pl3     1 MEY1        0.0000 
     28 O28         1.5110   10.4830   20.1350 O.2       1 MEY1        0.0000 
     29 O29        -4.5480    3.1780   21.9790 O.2       1 MEY1        0.0000 
     30 O30        -3.5760    3.0080   19.6750 O.2       1 MEY1        0.0000 
     31 O31         2.9960   10.0480   22.9820 O.3       1 MEY1        0.0000 
     32 O32         0.4060   12.1280   26.4350 O.3       1 MEY1        0.0000 
     33 S33        -3.5530    3.5770   21.0000 S.o2      1 MEY1        0.0000 
     34 CL34       -2.2050   11.6910   25.1340 Cl        1 MEY1        0.0000 
     35 H          -3.9675    8.8619   24.5701 H         1 MEY1        0.0000 
     36 H          -3.9703    6.5128   25.1381 H         1 MEY1        0.0000 
     37 H          -3.4062    7.4135   18.1854 H         1 MEY1        0.0000 
     38 H          -3.7834    9.5461   22.2615 H         1 MEY1        0.0000 
     39 H          -3.8084    4.8488   23.3915 H         1 MEY1        0.0000 
     40 H          -3.5716    9.0202   19.9731 H         1 MEY1        0.0000 
     41 H          -0.8385    5.0014   23.3128 H         1 MEY1        0.0000 
     42 H          -0.2883    7.3077   23.7969 H         1 MEY1        0.0000 
     43 H          -3.4262    5.0488   18.7026 H         1 MEY1        0.0000 
     44 H           0.0952    5.6035   19.2751 H         1 MEY1        0.0000 
     45 H          -1.4768   10.1266   22.9024 H         1 MEY1        0.0000 
     46 H           2.5862   11.3198   25.2236 H         1 MEY1        0.0000 
     47 H           0.0064    3.0495   21.1548 H         1 MEY1        0.0000 
     48 H          -1.0599    3.6278   19.8631 H         1 MEY1        0.0000 
     49 H           1.0446    8.1832   18.7868 H         1 MEY1        0.0000 
     50 H          -2.0599    2.8321   22.5437 H         1 MEY1        0.0000 
     51 H           3.6697   10.5370   23.5361 H         1 MEY1        0.0000 
     52 H           0.0567   13.0279   26.1740 H         1 MEY1        0.0000 
@<TRIPOS>BOND
     1    2    1 ar   
     2    4    1 ar   
     3   35    1 1    
     4    5    2 ar   
     5   36    2 1    
     6    6    3 ar   
     7    9    3 ar   
     8   37    3 1    
     9   13    4 ar   
    10   38    4 1    
    11   14    5 ar   
    12   39    5 1    
    13   13    6 ar   
    14   40    6 1    
    15    8    7 ar   
    16   15    7 ar   
    17   41    7 1    
    18   16    8 ar   
    19   42    8 1    
    20   21    9 ar   
    21   43    9 1    
    22   15   10 ar   
    23   17   10 ar   
    24   44   10 1    
    25   18   11 ar   
    26   22   11 ar   
    27   45   11 1    
    28   19   12 ar   
    29   20   12 ar   
    30   46   12 1    
    31   14   13 ar   
    32   21   14 ar   
    33   24   15 1    
    34   17   16 ar   
    35   26   16 1    
    36   25   17 1    
    37   19   18 ar   
    38   26   18 1    
    39   31   19 1    
    40   22   20 ar   
    41   32   20 1    
    42   33   21 1    
    43   34   22 1    
    44   25   23 am   
    45   26   23 am   
    46   28   23 2    
    47   27   24 1    
    48   47   24 1    
    49   48   24 1    
    50   49   25 1    
    51   33   27 1    
    52   50   27 1    
    53   33   29 2    
    54   33   30 2    
    55   51   31 1    
    56   52   32 1    
@<TRIPOS>SUBSTRUCTURE
     1 MEY1        1 GROUP   
@<TRIPOS>SET

