#    Name: 3uod_0C3_1_INTS_M
#    Modification time : Mon Mar 24 23:08:26 2014

@<TRIPOS>MOLECULE
3uod_0C3_1_INTS_M
   85     0    12     0     0
SMALL
NO_CHARGES


@<TRIPOS>ATOM
      1 N           3.6175   33.0045   10.0925 N.am      2 SEC2        0.0000 
      2 N           3.9850   31.8040    9.1840 N.am     10 SEL2        0.0000 
      3 N           3.2500   34.2050   11.0010 N.am      6 SEP2        0.0000 
      4 O           3.2295   34.2865    7.8160 O.2       1 ALC1        0.0000 
      5 O           3.4930   33.1100    7.2580 O.2       9 ALL1        0.0000 
      6 O           2.9660   35.4630    8.3740 O.2       5 ALP1        0.0000 
      7 CA          3.2395   31.6795   11.0740 C.3       4 GLC5        0.0000 
      8 CA          4.5110   30.7340    9.8240 C.3      12 GLL5        0.0000 
      9 CA          1.9680   32.6250   12.3240 C.3       8 GLP5        0.0000 
     10 CA          2.4545   30.9475    7.4595 C.3       4 GLC5        0.0000 
     11 CA          4.0780   31.9390    7.8480 C.3      12 GLL5        0.0000 
     12 CA          0.8310   29.9560    7.0710 C.3       8 GLP5        0.0000 
     13 CA          4.6430   33.6820    9.0320 C.3       4 GLC5        0.0000 
     14 CA          5.2080   35.4250   10.2160 C.3       8 GLP5        0.0000 
     15 CA          5.5200   32.7795    7.2275 C.3       4 GLC5        0.0000 
     16 CA          6.9620   33.6200    6.6070 C.3       8 GLP5        0.0000 
     17 CA          3.0350   29.9455    7.3805 C.3       4 GLC5        0.0000 
     18 CA          5.2390   29.9350    7.6900 C.3      12 GLL5        0.0000 
     19 CA          5.6155   27.4090    5.8900 C.3       4 GLC5        0.0000 
     20 CA          6.2770   29.2260    5.5620 C.3      12 GLL5        0.0000 
     21 CA          4.9540   25.5920    6.2180 C.3       8 GLP5        0.0000 
     22 CA          4.3880   27.6465    5.4140 C.3       4 GLC5        0.0000 
     23 CA          5.2800   29.2120    4.5850 C.3      12 GLL5        0.0000 
     24 CA          3.4960   26.0810    6.2430 C.3       8 GLP5        0.0000 
     25 CA          7.2880   31.5535    5.9190 C.3       4 GLC5        0.0000 
     26 CA          7.6140   29.4870    5.2310 C.3      12 GLL5        0.0000 
     27 CA          1.9640   31.6150    6.4775 C.3       4 GLC5        0.0000 
     28 CA          3.0970   33.2740    5.8840 C.3      12 GLL5        0.0000 
     29 NZ         -0.5920   33.8725    2.6500 N.4       3 LYC4        0.0000 
     30 NZ          0.6500   34.1430    1.6150 N.4      11 LYL4        0.0000 
     31 NZ         -2.3930   32.8900    2.7110 N.4       7 LYP4        0.0000 
     32 NZ          1.6520   35.6405    0.8780 N.4       3 LYC4        0.0000 
     33 NZ          2.6540   37.1380    0.1410 N.4       7 LYP4        0.0000 
     34 N          -0.5205   33.3790    1.6150 N.am      2 SEC2        0.0000 
     35 N           0.6500   34.1430    1.6150 N.am     10 SEL2        0.0000 
     36 N          -1.6910   32.6150    1.6150 N.am      6 SEP2        0.0000 
     37 N          -0.5920   33.8725    2.6500 N.am      2 SEC2        0.0000 
     38 N          -1.8340   33.6020    3.6850 N.am      6 SEP2        0.0000 
     39 NZ          2.6755   35.4435    0.5240 N.4       3 LYC4        0.0000 
     40 NZ          2.6970   33.7490    0.9070 N.4      11 LYL4        0.0000 
     41 CA          8.7055   31.9425    4.5705 C.3       4 GLC5        0.0000 
     42 CA          9.3860   30.6630    6.1620 C.3      12 GLL5        0.0000 
     43 CA          8.0250   33.2220    2.9790 C.3       8 GLP5        0.0000 
     44 CA         11.3910   30.9370    5.8060 C.3       4 GLC5        0.0000 
     45 CA         13.3960   31.2110    5.4500 C.3       8 GLP5        0.0000 
     46 CA          8.6940   32.0985    6.9355 C.3       4 GLC5        0.0000 
     47 CA          8.0020   33.5340    7.7090 C.3       8 GLP5        0.0000 
     48 CA         11.1250   28.0105    6.8885 C.3       4 GLC5        0.0000 
     49 CA          9.5770   28.4960    6.0010 C.3      12 GLL5        0.0000 
     50 CA         12.6730   27.5250    7.7760 C.3       8 GLP5        0.0000 
     51 CA          3.2920   29.3965   10.1190 C.3       4 GLC5        0.0000 
     52 CA          5.1570   29.7540    9.0680 C.3      12 GLL5        0.0000 
     53 CA          1.7500   28.5490   10.7920 C.3       8 GLP5        0.0000 
     54 CA          6.2160   30.3570   10.8520 C.3       4 GLC5        0.0000 
     55 CA          7.5980   30.4700   12.2580 C.3       8 GLP5        0.0000 
     56 CA          4.1955   28.3257    7.9600 C.3       4 GLC5        0.0000 
     57 CA          3.1930   26.8070    7.5410 C.3       8 GLP5        0.0000 
     58 CA          6.3042   31.2858    8.6490 C.3       4 GLC5        0.0000 
     59 CA          7.5720   32.4820    8.7300 C.3       8 GLP5        0.0000 
     60 CA          3.4148   29.3937    4.2903 C.3       4 GLC5        0.0000 
     61 CA          1.3890   29.4510    4.6590 C.3       8 GLP5        0.0000 
     62 CA          7.1433   31.4078    3.0345 C.3       4 GLC5        0.0000 
     63 CA          5.6010   29.4610    3.2580 C.3      12 GLL5        0.0000 
     64 CA          4.9071   28.3701    2.4754 C.3       4 GLC5        0.0000 
     65 CA          6.9220   29.7260    2.9220 C.3      12 GLL5        0.0000 
     66 CA          3.6330   27.2090    1.5290 C.3       8 GLP5        0.0000 
     67 CA          7.8965   31.4175    3.7715 C.3       4 GLC5        0.0000 
     68 CA          7.9220   29.7390    3.8970 C.3      12 GLL5        0.0000 
     69 CA          8.0385   30.9593    7.8048 C.3       4 GLC5        0.0000 
     70 CA          8.7300   29.5060    6.2520 C.3      12 GLL5        0.0000 
     71 CA          4.0587   34.5705    4.9492 C.3       4 GLC5        0.0000 
     72 CA          3.7620   32.6380    4.8450 C.3      12 GLL5        0.0000 
     73 CA          4.6880   36.1850    4.5340 C.3       8 GLP5        0.0000 
     74 CA          5.1958   33.2880    5.9857 C.3       4 GLC5        0.0000 
     75 CA          2.4780   31.0905    4.4207 C.3       4 GLC5        0.0000 
     76 CA          3.7662   34.7178    3.9600 C.3       4 GLC5        0.0000 
     77 CA          3.3720   32.8220    3.5200 C.3      12 GLL5        0.0000 
     78 CA          3.2677   35.2095    4.7382 C.3       4 GLC5        0.0000 
     79 CA          1.6500   34.3350    4.2860 C.3      12 GLL5        0.0000 
     80 CA          0.7121   32.4820    4.9390 C.3       4 GLC5        0.0000 
     81 CA          2.0450   34.1330    5.5990 C.3      12 GLL5        0.0000 
     82 CA         -0.5900   30.8940    5.1940 C.3       8 GLP5        0.0000 
     83 CA          9.9066   30.3309    7.7209 C.3       4 GLC5        0.0000 
     84 CA          8.2800   29.3670    7.5070 C.3      12 GLL5        0.0000 
     85 CA         10.5520   31.3890    9.1810 C.3       8 GLP5        0.0000 
@<TRIPOS>BOND
@<TRIPOS>SUBSTRUCTURE
     1 ALC1        4 GROUP        1 X    ALC  0     ROOT ALC X 1
     2 SEC2        1 GROUP        1 X    SEC  0     **** SEC X 2
     3 LYC4       29 GROUP        1 X    LYC  0     **** LYC X 4
     4 GLC5        7 GROUP        1 X    GLC  0     **** GLC X 6
     5 ALP1        6 GROUP        1 Y    ALP  0     ROOT ALP Y 8
     6 SEP2        3 GROUP        1 Y    SEP  0     **** SEP Y 9
     7 LYP4       31 GROUP        1 Y    LYP  0     **** LYP Y 11
     8 GLP5        9 GROUP        1 Y    GLP  0     **** GLP Y 13
     9 ALL1        5 GROUP        1 Z    ALL  0     ROOT ALL Z 15
    10 SEL2        2 GROUP        1 Z    SEL  0     **** SEL Z 16
    11 LYL4       30 GROUP        1 Z    LYL  0     **** LYL Z 18
    12 GLL5        8 GROUP        1 Z    GLL  0     **** GLL Z 20
@<TRIPOS>SET

