#    Name: 3uod_0C3_1_ligand
#    Modification time : Mon Mar 24 23:08:26 2014

@<TRIPOS>MOLECULE
3uod_0C3_1_ligand
   39    41     1     0     0
SMALL
NO_CHARGES


@<TRIPOS>ATOM
      1 N01         3.9850   31.8040    9.1840 N.ar      1 0C31        0.0000 
      2 N02         4.7060   31.0230    7.0960 N.ar      1 0C31        0.0000 
      3 N03         5.9020   28.9500    6.9080 N.pl3     1 0C31        0.0000 
      4 N04         3.4930   33.1100    7.2580 N.pl3     1 0C31        0.0000 
      5 C05         4.5110   30.7340    9.8240 C.ar      1 0C31        0.0000 
      6 C06         4.0780   31.9390    7.8480 C.ar      1 0C31        0.0000 
      7 C07         5.2390   29.9350    7.6900 C.ar      1 0C31        0.0000 
      8 C08         5.1570   29.7540    9.0680 C.ar      1 0C31        0.0000 
      9 C09         6.2770   29.2260    5.5620 C.ar      1 0C31        0.0000 
     10 C10         5.2800   29.2120    4.5850 C.ar      1 0C31        0.0000 
     11 C11         5.6010   29.4610    3.2580 C.ar      1 0C31        0.0000 
     12 C12         6.9220   29.7260    2.9220 C.ar      1 0C31        0.0000 
     13 C13         7.9220   29.7390    3.8970 C.ar      1 0C31        0.0000 
     14 C14         7.6140   29.4870    5.2310 C.ar      1 0C31        0.0000 
     15 C15         8.7300   29.5060    6.2520 C.3       1 0C31        0.0000 
     16 C16         3.0970   33.2740    5.8840 C.ar      1 0C31        0.0000 
     17 C17         3.7620   32.6380    4.8450 C.ar      1 0C31        0.0000 
     18 C18         3.3720   32.8220    3.5200 C.ar      1 0C31        0.0000 
     19 C19         2.3170   33.6790    3.2520 C.ar      1 0C31        0.0000 
     20 C20         1.6500   34.3350    4.2860 C.ar      1 0C31        0.0000 
     21 C21         2.0450   34.1330    5.5990 C.ar      1 0C31        0.0000 
     22 C22         1.8710   33.8760    1.8450 C.2       1 0C31        0.0000 
     23 O23         0.6500   34.1430    1.6150 O.co2     1 0C31        0.0000 
     24 O24         2.6970   33.7490    0.9070 O.co2     1 0C31        0.0000 
     25 F25         8.2800   29.3670    7.5070 F         1 0C31        0.0000 
     26 F26         9.3860   30.6630    6.1620 F         1 0C31        0.0000 
     27 F27         9.5770   28.4960    6.0010 F         1 0C31        0.0000 
     28 H           6.1116   28.0364    7.3139 H         1 0C31        0.0000 
     29 H           3.3359   33.9409    7.9001 H         1 0C31        0.0000 
     30 H           4.4471   30.6270   10.8405 H         1 0C31        0.0000 
     31 H           5.5549   28.9336    9.5121 H         1 0C31        0.0000 
     32 H           4.3061   29.0163    4.8530 H         1 0C31        0.0000 
     33 H           4.8754   29.4496    2.5377 H         1 0C31        0.0000 
     34 H           7.1726   29.9169    1.9370 H         1 0C31        0.0000 
     35 H           8.8964   29.9372    3.6242 H         1 0C31        0.0000 
     36 H           4.5628   32.0149    5.0558 H         1 0C31        0.0000 
     37 H           3.8550   32.3348    2.7666 H         1 0C31        0.0000 
     38 H           0.8681   34.9658    4.0711 H         1 0C31        0.0000 
     39 H           1.5579   34.6204    6.3644 H         1 0C31        0.0000 
@<TRIPOS>BOND
     1    5    1 ar   
     2    6    1 ar   
     3    6    2 ar   
     4    7    2 ar   
     5    7    3 1    
     6    9    3 1    
     7   28    3 1    
     8    6    4 1    
     9   16    4 1    
    10   29    4 1    
    11    8    5 ar   
    12   30    5 1    
    13    8    7 ar   
    14   31    8 1    
    15   10    9 ar   
    16   14    9 ar   
    17   11   10 ar   
    18   32   10 1    
    19   12   11 ar   
    20   33   11 1    
    21   13   12 ar   
    22   34   12 1    
    23   14   13 ar   
    24   35   13 1    
    25   15   14 1    
    26   25   15 1    
    27   26   15 1    
    28   27   15 1    
    29   17   16 ar   
    30   21   16 ar   
    31   18   17 ar   
    32   36   17 1    
    33   19   18 ar   
    34   37   18 1    
    35   20   19 ar   
    36   22   19 1    
    37   21   20 ar   
    38   38   20 1    
    39   39   21 1    
    40   23   22 ar   
    41   24   22 ar   
@<TRIPOS>SUBSTRUCTURE
     1 0C31        1 GROUP   
@<TRIPOS>SET

