#    Name: 3cy2_MB9_1_INTS_M
#    Modification time : Mon Mar 24 22:30:03 2014

@<TRIPOS>MOLECULE
3cy2_MB9_1_INTS_M
   54     0     6     0     0
SMALL
NO_CHARGES


@<TRIPOS>ATOM
      1 CA        -13.7470   34.7590    0.3595 C.3       2 GLC5        0.0000 
      2 CA        -15.2530   33.8740   -0.9240 C.3       6 GLL5        0.0000 
      3 CA        -12.2410   35.6440    1.6430 C.3       4 GLP5        0.0000 
      4 OD1       -12.5765   34.4650   -1.2110 O.co2     1 ASC3        0.0000 
      5 OD1       -13.4230   34.8480   -2.3740 O.co2     5 ASL3        0.0000 
      6 OD1       -11.7300   34.0820   -0.0480 O.co2     3 ASP3        0.0000 
      7 CA        -12.9695   37.2220   -4.0305 C.3       2 GLC5        0.0000 
      8 CA        -14.2590   36.0250   -2.6530 C.3       6 GLL5        0.0000 
      9 CA        -11.6800   38.4190   -5.4080 C.3       4 GLP5        0.0000 
     10 CA        -13.7245   35.9790    0.0735 C.3       2 GLC5        0.0000 
     11 CA        -15.2080   36.3140   -1.4960 C.3       6 GLL5        0.0000 
     12 CA        -16.8725   33.1285   -1.6175 C.3       2 GLC5        0.0000 
     13 CA        -16.0930   35.0950   -1.1610 C.3       6 GLL5        0.0000 
     14 CA        -17.6520   31.1620   -2.0740 C.3       4 GLP5        0.0000 
     15 CA        -22.0145   37.1255   -2.8590 C.3       2 GLC5        0.0000 
     16 CA        -20.1970   37.8450   -2.9460 C.3       6 GLL5        0.0000 
     17 CA        -23.8320   36.4060   -2.7720 C.3       4 GLP5        0.0000 
     18 CA        -22.5435   38.3415   -0.4110 C.3       2 GLC5        0.0000 
     19 CA        -20.5910   38.9050   -0.0520 C.3       6 GLL5        0.0000 
     20 CA        -24.4960   37.7780   -0.7700 C.3       4 GLP5        0.0000 
     21 CA        -23.2470   41.1120    2.2515 C.3       2 GLC5        0.0000 
     22 CA        -21.7020   40.4050    1.8770 C.3       6 GLL5        0.0000 
     23 CA        -24.7920   41.8190    2.6260 C.3       4 GLP5        0.0000 
     24 CA        -21.5680   42.2315    2.7650 C.3       2 GLC5        0.0000 
     25 CA        -21.4340   44.0580    3.6530 C.3       4 GLP5        0.0000 
     26 CA        -20.1770   41.3290    1.7335 C.3       2 GLC5        0.0000 
     27 CA        -18.6520   42.2530    1.5900 C.3       4 GLP5        0.0000 
     28 CA        -19.0430   39.7010    3.8655 C.3       2 GLC5        0.0000 
     29 CA        -19.7360   38.5580    2.2070 C.3       6 GLL5        0.0000 
     30 CA        -18.3500   40.8440    5.5240 C.3       4 GLP5        0.0000 
     31 CA        -18.8950   36.6895    3.7010 C.3       2 GLC5        0.0000 
     32 CA        -18.8340   37.6140    1.7360 C.3       6 GLL5        0.0000 
     33 CA        -18.9560   35.7650    5.6660 C.3       4 GLP5        0.0000 
     34 CA        -17.7080   32.4190   -0.0915 C.3       2 GLC5        0.0000 
     35 CA        -17.5610   34.2210    0.6310 C.3       6 GLL5        0.0000 
     36 CA        -17.8550   30.6170   -0.8140 C.3       4 GLP5        0.0000 
     37 CA        -17.0390   32.9020    1.8765 C.3       2 GLC5        0.0000 
     38 CA        -16.5170   31.5830    3.1220 C.3       4 GLP5        0.0000 
     39 CA        -15.5807   32.3458   -2.0960 C.3       2 GLC5        0.0000 
     40 CA        -16.4350   30.9430   -2.7280 C.3       4 GLP5        0.0000 
     41 CA        -21.6879   38.1944    2.7258 C.3       2 GLC5        0.0000 
     42 CA        -20.5930   39.2020    1.3070 C.3       6 GLL5        0.0000 
     43 CA        -22.9340   37.2080    3.5520 C.3       4 GLP5        0.0000 
     44 CA        -19.4080   40.5294    1.5036 C.3       2 GLC5        0.0000 
     45 CA        -17.4920   38.5945    1.2732 C.3       2 GLC5        0.0000 
     46 CA        -15.6990   39.1030    0.5750 C.3       4 GLP5        0.0000 
     47 CA        -19.0302   34.2935   -0.3020 C.3       2 GLC5        0.0000 
     48 CA        -16.9520   35.4290    0.0470 C.3       6 GLL5        0.0000 
     49 CA        -20.8040   33.7620   -0.9430 C.3       4 GLP5        0.0000 
     50 CA        -16.0001   37.3349   -0.0329 C.3       2 GLC5        0.0000 
     51 CA        -19.7904   35.3961   -0.7470 C.3       2 GLC5        0.0000 
     52 CA        -18.0600   36.4020   -0.3700 C.3       6 GLL5        0.0000 
     53 CA        -17.2379   38.0666    0.0120 C.3       2 GLC5        0.0000 
     54 CA        -18.5060   36.5040   -1.7050 C.3       6 GLL5        0.0000 
@<TRIPOS>BOND
@<TRIPOS>SUBSTRUCTURE
     1 ASC3        4 GROUP        1 X    ASC  0     ROOT ASC X 3
     2 GLC5        1 GROUP        1 X    GLC  0     **** GLC X 6
     3 ASP3        6 GROUP        1 Y    ASP  0     ROOT ASP Y 10
     4 GLP5        3 GROUP        1 Y    GLP  0     **** GLP Y 13
     5 ASL3        5 GROUP        1 Z    ASL  0     ROOT ASL Z 17
     6 GLL5        2 GROUP        1 Z    GLL  0     **** GLL Z 20
@<TRIPOS>SET

