#    Name: 3cy2_MB9_1_ligand
#    Modification time : Mon Mar 24 22:30:03 2014

@<TRIPOS>MOLECULE
3cy2_MB9_1_ligand
   39    42     1     0     0
SMALL
NO_CHARGES


@<TRIPOS>ATOM
      1 C1K       -15.2530   33.8740   -0.9240 C.3       1 MB9501      0.0000 
      2 C1I       -14.2000   33.6230   -2.0040 C.3       1 MB9501      0.0000 
      3 N1M       -13.4230   34.8480   -2.3740 N.4       1 MB9501      0.0000 
      4 C1J       -14.2590   36.0250   -2.6530 C.3       1 MB9501      0.0000 
      5 C1L       -15.2080   36.3140   -1.4960 C.3       1 MB9501      0.0000 
      6 C1W       -16.0930   35.0950   -1.1610 C.3       1 MB9501      0.0000 
      7 N1N       -16.8920   34.8570   -2.3860 N.am      1 MB9501      0.0000 
      8 C1O       -17.9550   35.6860   -2.6860 C.2       1 MB9501      0.0000 
      9 O1C       -18.5440   35.4660   -3.7410 O.2       1 MB9501      0.0000 
     10 C1Q       -18.5060   36.5040   -1.7050 C.2       1 MB9501      0.0000 
     11 N1V       -19.4870   37.4110   -1.7260 N.pl3     1 MB9501      0.0000 
     12 C1A       -20.1970   37.8450   -2.9460 C.3       1 MB9501      0.0000 
     13 C1T       -19.7150   37.9170   -0.5110 C.ar      1 MB9501      0.0000 
     14 C1H       -20.5910   38.9050   -0.0520 C.ar      1 MB9501      0.0000 
     15 C1P       -20.5930   39.2020    1.3070 C.ar      1 MB9501      0.0000 
     16 CL1D      -21.7020   40.4050    1.8770 Cl        1 MB9501      0.0000 
     17 C1F       -19.7360   38.5580    2.2070 C.ar      1 MB9501      0.0000 
     18 C1G       -18.8340   37.6140    1.7360 C.ar      1 MB9501      0.0000 
     19 C1S       -18.8260   37.2980    0.3820 C.ar      1 MB9501      0.0000 
     20 C1R       -18.0600   36.4020   -0.3700 C.2       1 MB9501      0.0000 
     21 C1U       -16.9520   35.4290    0.0470 C.3       1 MB9501      0.0000 
     22 C1E       -17.5610   34.2210    0.6310 C.1       1 MB9501      0.0000 
     23 N1B       -18.0560   33.2890    1.0380 N.1       1 MB9501      0.0000 
     24 H         -14.7397   33.9616    0.0513 H         1 MB9501      0.0000 
     25 H         -15.9049   32.9836   -0.8575 H         1 MB9501      0.0000 
     26 H         -14.7056   33.2189   -2.8975 H         1 MB9501      0.0000 
     27 H         -13.5111   32.8396   -1.6447 H         1 MB9501      0.0000 
     28 H         -14.8567   35.8664   -3.5595 H         1 MB9501      0.0000 
     29 H         -13.6333   36.9114   -2.8171 H         1 MB9501      0.0000 
     30 H         -15.8537   37.1553   -1.7558 H         1 MB9501      0.0000 
     31 H         -14.6303   36.5822   -0.6092 H         1 MB9501      0.0000 
     32 H         -16.6230   34.0750   -2.9742 H         1 MB9501      0.0000 
     33 H         -21.2073   39.3904   -0.6951 H         1 MB9501      0.0000 
     34 H         -19.7782   38.7853    3.2043 H         1 MB9501      0.0000 
     35 H         -18.1816   37.1550    2.3774 H         1 MB9501      0.0000 
     36 H         -16.3366   35.9283    0.7826 H         1 MB9501      0.0000 
     37 H         -19.5733   38.2503   -3.6144 H         1 MB9501      0.0000 
     38 H         -20.6569   37.0816   -3.3995 H         1 MB9501      0.0000 
     39 H         -20.8965   38.5306   -2.7446 H         1 MB9501      0.0000 
@<TRIPOS>BOND
     1    2    1 1    
     2    6    1 1    
     3   24    1 1    
     4   25    1 1    
     5    3    2 1    
     6   26    2 1    
     7   27    2 1    
     8    4    3 1    
     9    5    4 1    
    10   28    4 1    
    11   29    4 1    
    12    6    5 1    
    13   30    5 1    
    14   31    5 1    
    15    7    6 1    
    16   21    6 1    
    17    8    7 am   
    18   32    7 1    
    19    9    8 2    
    20   10    8 1    
    21   11   10 1    
    22   20   10 2    
    23   12   11 1    
    24   13   11 1    
    25   37   12 1    
    26   38   12 1    
    27   39   12 1    
    28   14   13 ar   
    29   19   13 ar   
    30   15   14 ar   
    31   33   14 1    
    32   16   15 1    
    33   17   15 ar   
    34   18   17 ar   
    35   34   17 1    
    36   19   18 ar   
    37   35   18 1    
    38   20   19 1    
    39   21   20 1    
    40   22   21 1    
    41   36   21 1    
    42   23   22 3    
@<TRIPOS>SUBSTRUCTURE
     1 MB9501      1 GROUP   
@<TRIPOS>SET

