#    Name: 3bgi_SAH_1_INTS_M
#    Modification time : Mon Mar 24 19:26:53 2014

@<TRIPOS>MOLECULE
3bgi_SAH_1_INTS_M
   80     0     9     0     0
SMALL
NO_CHARGES


@<TRIPOS>ATOM
      1 O          27.3420   60.9935   15.0410 O.2       1 ALC1        0.0000 
      2 O          27.9140   61.8270   15.9200 O.2       7 ALL1        0.0000 
      3 O          26.7700   60.1600   14.1620 O.2       4 ALP1        0.0000 
      4 O          28.2115   61.7405   17.3510 O.2       1 ALC1        0.0000 
      5 O          28.5090   61.6540   18.7820 O.2       4 ALP1        0.0000 
      6 CA         28.4050   61.3905   13.7660 C.3       3 GLC5        0.0000 
      7 CA         27.8290   62.9890   15.0040 C.3       9 GLL5        0.0000 
      8 CA         28.9810   59.7920   12.5280 C.3       6 GLP5        0.0000 
      9 CA         25.7720   62.8655   17.9095 C.3       3 GLC5        0.0000 
     10 CA         25.3060   63.2790   15.8060 C.3       9 GLL5        0.0000 
     11 CA         26.2380   62.4520   20.0130 C.3       6 GLP5        0.0000 
     12 CA         21.5905   63.8730   14.6750 C.3       3 GLC5        0.0000 
     13 CA         23.5410   63.6550   15.3320 C.3       9 GLL5        0.0000 
     14 CA         19.6400   64.0910   14.0180 C.3       6 GLP5        0.0000 
     15 CA         21.1825   62.7810   15.0430 C.3       3 GLC5        0.0000 
     16 CA         22.9950   62.0070   14.7890 C.3       9 GLL5        0.0000 
     17 CA         19.3700   63.5550   15.2970 C.3       6 GLP5        0.0000 
     18 CA         22.3050   64.6345   11.8790 C.3       3 GLC5        0.0000 
     19 CA         22.8150   62.5310   12.2860 C.3       9 GLL5        0.0000 
     20 CA         21.7950   66.7380   11.4720 C.3       6 GLP5        0.0000 
     21 N          23.2060   63.6290   10.1320 N.am      2 SEC2        0.0000 
     22 N          23.7920   62.8490   11.2720 N.am      8 SEL2        0.0000 
     23 N          22.6200   64.4090    8.9920 N.am      5 SEP2        0.0000 
     24 O          24.4100   61.8340   10.7775 O.2       1 ALC1        0.0000 
     25 O          23.7920   62.8490   11.2720 O.2       7 ALL1        0.0000 
     26 O          25.0280   60.8190   10.2830 O.2       4 ALP1        0.0000 
     27 O          23.6140   61.8630   10.0050 O.2       1 ALC1        0.0000 
     28 O          23.4360   60.8770    8.7380 O.2       4 ALP1        0.0000 
     29 N          22.0420   63.1085    9.6560 N.am      2 SEC2        0.0000 
     30 N          21.4640   61.8080   10.3200 N.am      8 SEL2        0.0000 
     31 O          22.4500   61.3425    9.5290 O.2       1 ALC1        0.0000 
     32 O          21.4640   61.8080   10.3200 O.2       7 ALL1        0.0000 
     33 CA         20.3325   61.2450   12.4625 C.3       3 GLC5        0.0000 
     34 CA         22.2510   60.2250   11.9230 C.3       9 GLL5        0.0000 
     35 CA         18.4140   62.2650   13.0020 C.3       6 GLP5        0.0000 
     36 CA         22.8860   58.8430   13.3405 C.3       3 GLC5        0.0000 
     37 CA         23.5210   57.4610   14.7580 C.3       6 GLP5        0.0000 
     38 CA         22.0830   55.8130   13.5695 C.3       3 GLC5        0.0000 
     39 CA         20.4850   55.6760   12.3240 C.3       9 GLL5        0.0000 
     40 CA         23.6810   55.9500   14.8150 C.3       6 GLP5        0.0000 
     41 CA         20.6145   54.1640   10.7740 C.3       3 GLC5        0.0000 
     42 CA         20.7440   52.6520    9.2240 C.3       6 GLP5        0.0000 
     43 CA         21.2885   54.0515   13.3430 C.3       3 GLC5        0.0000 
     44 CA         22.0920   52.4270   14.3620 C.3       6 GLP5        0.0000 
     45 O          19.2930   53.5105   11.8975 O.2       1 ALC1        0.0000 
     46 O          19.5520   54.8820   12.9000 O.2       7 ALL1        0.0000 
     47 O          19.0340   52.1390   10.8950 O.2       4 ALP1        0.0000 
     48 N          21.7695   53.7245   11.3595 N.am      2 SEC2        0.0000 
     49 N          21.4100   55.1300   11.5210 N.am      8 SEL2        0.0000 
     50 N          22.1290   52.3190   11.1980 N.am      5 SEP2        0.0000 
     51 CA         23.0090   55.9145   12.8705 C.3       3 GLC5        0.0000 
     52 CA         22.3370   55.8790   10.9260 C.3       9 GLL5        0.0000 
     53 CA         23.9970   54.5475   10.2160 C.3       3 GLC5        0.0000 
     54 CA         25.6570   53.2160    9.5060 C.3       6 GLP5        0.0000 
     55 CA         23.8235   56.7835    9.8320 C.3       3 GLC5        0.0000 
     56 CA         25.3100   57.6880    8.7380 C.3       6 GLP5        0.0000 
     57 CA         21.3950   56.7210    9.4810 C.3       3 GLC5        0.0000 
     58 CA         20.4530   57.5630    8.0360 C.3       6 GLP5        0.0000 
     59 CA         21.5405   54.2655   10.0750 C.3       3 GLC5        0.0000 
     60 N          22.6695   57.4780    9.6190 N.am      2 SEC2        0.0000 
     61 N          22.3870   57.1960   11.1390 N.am      8 SEL2        0.0000 
     62 N          22.9520   57.7600    8.0990 N.am      5 SEP2        0.0000 
     63 CA         27.2993   62.9817   12.7225 C.3       3 GLC5        0.0000 
     64 CA         26.3600   63.3740   14.6540 C.3       9 GLL5        0.0000 
     65 CA         27.5040   62.7820   10.6160 C.3       6 GLP5        0.0000 
     66 CA         22.3935   61.9045   16.5322 C.3       3 GLC5        0.0000 
     67 CA         21.5190   60.9780   18.0040 C.3       6 GLP5        0.0000 
     68 CA         24.0485   60.0337   14.4473 C.3       3 GLC5        0.0000 
     69 CA         24.8550   58.2290   14.8130 C.3       6 GLP5        0.0000 
     70 CA         20.7118   62.7668   12.4327 C.3       3 GLC5        0.0000 
     71 CA         19.1680   63.4460   12.8550 C.3       6 GLP5        0.0000 
     72 CA         21.0468   59.9368   10.2150 C.3       3 GLC5        0.0000 
     73 CA         21.6960   61.6440   11.7350 C.3       9 GLL5        0.0000 
     74 CA         20.1200   58.9390    8.6010 C.3       6 GLP5        0.0000 
     75 CA         18.9432   55.9705   11.4112 C.3       3 GLC5        0.0000 
     76 CA         20.5220   57.0560   12.5630 C.3       9 GLL5        0.0000 
     77 CA         17.3830   55.5750   10.3790 C.3       6 GLP5        0.0000 
     78 CA         22.2665   57.4477   13.5053 C.3       3 GLC5        0.0000 
     79 CA         20.5660   58.1868   10.4268 C.3       3 GLC5        0.0000 
     80 CA         21.5020   57.8130   11.9420 C.3       9 GLL5        0.0000 
@<TRIPOS>BOND
@<TRIPOS>SUBSTRUCTURE
     1 ALC1        1 GROUP        1 X    ALC  0     ROOT ALC X 1
     2 SEC2       21 GROUP        1 X    SEC  0     **** SEC X 2
     3 GLC5        6 GROUP        1 X    GLC  0     **** GLC X 6
     4 ALP1        3 GROUP        1 Y    ALP  0     ROOT ALP Y 8
     5 SEP2       23 GROUP        1 Y    SEP  0     **** SEP Y 9
     6 GLP5        8 GROUP        1 Y    GLP  0     **** GLP Y 13
     7 ALL1        2 GROUP        1 Z    ALL  0     ROOT ALL Z 15
     8 SEL2       22 GROUP        1 Z    SEL  0     **** SEL Z 16
     9 GLL5        7 GROUP        1 Z    GLL  0     **** GLL Z 20
@<TRIPOS>SET

