#    Name: 3bgi_SAH_1_ligand
#    Modification time : Mon Mar 24 19:26:53 2014

@<TRIPOS>MOLECULE
3bgi_SAH_1_ligand
   46    48     1     0     0
SMALL
NO_CHARGES


@<TRIPOS>ATOM
      1 N          27.9140   61.8270   15.9200 N.4       1 SAH300      0.0000 
      2 CA         27.8290   62.9890   15.0040 C.3       1 SAH300      0.0000 
      3 CB         26.3600   63.3740   14.6540 C.3       1 SAH300      0.0000 
      4 CG         25.3060   63.2790   15.8060 C.3       1 SAH300      0.0000 
      5 SD         23.5410   63.6550   15.3320 S.3       1 SAH300      0.0000 
      6 C          28.5270   64.2080   15.5950 C.2       1 SAH300      0.0000 
      7 O          28.5010   64.4250   16.8130 O.co2     1 SAH300      0.0000 
      8 OXT        29.1080   65.0000   14.8340 O.co2     1 SAH300      0.0000 
      9 C5'        22.9950   62.0070   14.7890 C.3       1 SAH300      0.0000 
     10 C4'        23.4890   61.6700   13.3740 C.3       1 SAH300      0.0000 
     11 O4'        23.0100   60.3370   13.1810 O.3       1 SAH300      0.0000 
     12 C3'        22.8150   62.5310   12.2860 C.3       1 SAH300      0.0000 
     13 O3'        23.7920   62.8490   11.2720 O.3       1 SAH300      0.0000 
     14 C2'        21.6960   61.6440   11.7350 C.3       1 SAH300      0.0000 
     15 O2'        21.4640   61.8080   10.3200 O.3       1 SAH300      0.0000 
     16 C1'        22.2510   60.2250   11.9230 C.3       1 SAH300      0.0000 
     17 N9         21.3320   59.0920   12.3000 N.pl3     1 SAH300      0.0000 
     18 C8         20.2960   59.1420   13.1490 C.2       1 SAH300      0.0000 
     19 N7         19.7950   57.9150   13.2920 N.2       1 SAH300      0.0000 
     20 C5         20.5220   57.0560   12.5630 C.ar      1 SAH300      0.0000 
     21 C6         20.4850   55.6760   12.3240 C.ar      1 SAH300      0.0000 
     22 N6         19.5520   54.8820   12.9000 N.pl3     1 SAH300      0.0000 
     23 N1         21.4100   55.1300   11.5210 N.ar      1 SAH300      0.0000 
     24 C2         22.3370   55.8790   10.9260 C.ar      1 SAH300      0.0000 
     25 N3         22.3870   57.1960   11.1390 N.ar      1 SAH300      0.0000 
     26 C4         21.5020   57.8130   11.9420 C.ar      1 SAH300      0.0000 
     27 H          28.3274   62.7531   14.0590 H         1 SAH300      0.0000 
     28 H          26.0184   62.7299   13.8180 H         1 SAH300      0.0000 
     29 H          26.3533   64.4121   14.2631 H         1 SAH300      0.0000 
     30 H          25.4747   63.9950   16.5960 H         1 SAH300      0.0000 
     31 H          25.2126   62.2844   16.2151 H         1 SAH300      0.0000 
     32 H          21.9312   62.0830   14.8612 H         1 SAH300      0.0000 
     33 H          23.4026   61.3703   15.5446 H         1 SAH300      0.0000 
     34 H          24.5180   61.7315   13.3217 H         1 SAH300      0.0000 
     35 H          22.3945   63.3763   12.7489 H         1 SAH300      0.0000 
     36 H          20.8394   61.7368   12.3254 H         1 SAH300      0.0000 
     37 H          22.9122   59.9579   11.1658 H         1 SAH300      0.0000 
     38 H          19.9662   59.9462   13.5879 H         1 SAH300      0.0000 
     39 H          18.8768   55.3429   13.4759 H         1 SAH300      0.0000 
     40 H          19.6206   53.9049   12.6985 H         1 SAH300      0.0000 
     41 H          23.0367   55.4300   10.2822 H         1 SAH300      0.0000 
     42 H          28.7513   61.2999   15.7745 H         1 SAH300      0.0000 
     43 H          27.9082   62.1091   16.8793 H         1 SAH300      0.0000 
     44 H          27.1464   61.1984   15.7947 H         1 SAH300      0.0000 
     45 H          23.8384   62.0349   10.6931 H         1 SAH300      0.0000 
     46 H          22.2893   61.4543    9.8798 H         1 SAH300      0.0000 
@<TRIPOS>BOND
     1    2    1 1    
     2   42    1 1    
     3   43    1 1    
     4   44    1 1    
     5    3    2 1    
     6    6    2 1    
     7   27    2 1    
     8    4    3 1    
     9   28    3 1    
    10   29    3 1    
    11    5    4 1    
    12   30    4 1    
    13   31    4 1    
    14    9    5 1    
    15    7    6 ar   
    16    8    6 ar   
    17   10    9 1    
    18   32    9 1    
    19   33    9 1    
    20   11   10 1    
    21   12   10 1    
    22   34   10 1    
    23   16   11 1    
    24   13   12 1    
    25   14   12 1    
    26   35   12 1    
    27   45   13 1    
    28   15   14 1    
    29   16   14 1    
    30   36   14 1    
    31   46   15 1    
    32   17   16 1    
    33   37   16 1    
    34   18   17 1    
    35   26   17 1    
    36   19   18 2    
    37   38   18 1    
    38   20   19 1    
    39   21   20 ar   
    40   26   20 ar   
    41   22   21 1    
    42   23   21 ar   
    43   39   22 1    
    44   40   22 1    
    45   24   23 ar   
    46   25   24 ar   
    47   41   24 1    
    48   26   25 ar   
@<TRIPOS>SUBSTRUCTURE
     1 SAH300      1 GROUP   
@<TRIPOS>SET

