#    Name: 3GJQ_2_CAVITY_N1_ALL.mol2
#    Modification time : Mon Mar 10 19:30:51 2014

@<TRIPOS>MOLECULE
3GJQ_2_CAVITY_N1_ALL.mol2
  106     0     5     0     0
SMALL
NO_CHARGES


@<TRIPOS>ATOM
      1 CZ         26.6466   31.2407   16.1828 C.ar      3 PHE5        0.0000 
      2 CZ         26.6798   29.9698   16.9789 C.ar      3 PHE5        0.0000 
      3 CZ         27.6726   34.5483   12.9413 C.ar      3 PHE5        0.0000 
      4 CZ         27.7058   33.2774   13.7373 C.ar      3 PHE5        0.0000 
      5 CZ         27.7390   32.0065   14.5334 C.ar      3 PHE5        0.0000 
      6 DU         27.7722   30.7356   15.3295 H         5 CUB7        0.0000 
      7 CZ         27.8053   29.4648   16.1256 C.ar      3 PHE5        0.0000 
      8 N          28.7982   34.0432   12.0880 N.2       2 ALA2        0.0000 
      9 DU         28.8314   32.7723   12.8841 H         5 CUB7        0.0000 
     10 DU         28.8645   31.5014   13.6802 H         5 CUB7        0.0000 
     11 DU         28.9309   28.9597   15.2724 H         5 CUB7        0.0000 
     12 CZ         28.9641   27.6888   16.0685 C.ar      3 PHE5        0.0000 
     13 N          29.8906   34.8090   10.4387 N.2       2 ALA2        0.0000 
     14 N          29.9237   33.5381   11.2348 N.2       2 ALA2        0.0000 
     15 DU         29.9569   32.2672   12.0309 H         5 CUB7        0.0000 
     16 DU         29.9901   30.9963   12.8270 H         5 CUB7        0.0000 
     17 DU         30.0233   29.7255   13.6231 H         5 CUB7        0.0000 
     18 DU         30.0565   28.4546   14.4192 H         5 CUB7        0.0000 
     19 DU         30.0897   27.1837   15.2153 H         5 CUB7        0.0000 
     20 O          31.0493   33.0330   10.3816 O.2       2 ALA2        0.0000 
     21 O          31.0825   31.7621   11.1777 O.2       2 ALA2        0.0000 
     22 OG         31.1157   30.4913   11.9738 O.2       1 SER1        0.0000 
     23 OG         31.1488   29.2204   12.7698 O.2       1 SER1        0.0000 
     24 DU         31.2152   26.6786   14.3620 H         5 CUB7        0.0000 
     25 OG         32.2080   31.2570   10.3244 O.2       1 SER1        0.0000 
     26 O          32.3408   26.1735   13.5088 O.2       2 ALA2        0.0000 
     27 CZ         27.6044   33.1278   16.3291 C.ar      3 PHE5        0.0000 
     28 CZ         27.6376   31.8570   17.1252 C.ar      3 PHE5        0.0000 
     29 O          28.6636   35.1645   13.8837 O.2       2 ALA2        0.0000 
     30 CZ         28.6968   33.8936   14.6798 C.ar      3 PHE5        0.0000 
     31 CZ         28.7299   32.6228   15.4759 C.ar      3 PHE5        0.0000 
     32 CZ         28.7631   31.3519   16.2720 C.ar      3 PHE5        0.0000 
     33 CZ         28.7963   30.0810   17.0681 C.ar      3 PHE5        0.0000 
     34 N          29.7891   34.6594   13.0305 N.2       2 ALA2        0.0000 
     35 O          29.8223   33.3885   13.8266 O.2       2 ALA2        0.0000 
     36 DU         29.8555   32.1177   14.6227 H         5 CUB7        0.0000 
     37 DU         29.8887   30.8468   15.4188 H         5 CUB7        0.0000 
     38 CZ         29.9219   29.5759   16.2149 C.ar      3 PHE5        0.0000 
     39 CZ         29.9551   28.3050   17.0110 C.ar      3 PHE5        0.0000 
     40 CZ         29.9882   27.0342   17.8071 C.ar      3 PHE5        0.0000 
     41 CZ         30.0214   25.7633   18.6031 C.ar      3 PHE5        0.0000 
     42 O          30.9147   34.1543   12.1773 O.2       2 ALA2        0.0000 
     43 O          30.9479   32.8835   12.9733 O.2       2 ALA2        0.0000 
     44 O          30.9811   31.6126   13.7694 O.2       2 ALA2        0.0000 
     45 DU         31.0143   30.3417   14.5655 H         5 CUB7        0.0000 
     46 DU         31.0474   29.0708   15.3616 H         5 CUB7        0.0000 
     47 DU         31.0806   27.7999   16.1577 H         5 CUB7        0.0000 
     48 DU         31.1138   26.5291   16.9538 H         5 CUB7        0.0000 
     49 O          32.1066   31.1075   12.9162 O.2       2 ALA2        0.0000 
     50 OG         32.1398   29.8366   13.7123 O.2       1 SER1        0.0000 
     51 N          32.1730   28.5657   14.5084 N.2       2 ALA2        0.0000 
     52 O          32.2062   27.2949   15.3045 O.2       2 ALA2        0.0000 
     53 DU         32.2394   26.0240   16.1006 H         5 CUB7        0.0000 
     54 N          33.3317   26.7898   14.4513 N.2       2 ALA2        0.0000 
     55 CA         33.3649   25.5189   15.2474 C.3       4 GLY6        0.0000 
     56 N          33.3981   24.2480   16.0435 N.2       2 ALA2        0.0000 
     57 N          29.7541   31.9681   17.2145 N.2       2 ALA2        0.0000 
     58 N          30.8133   34.0048   14.7690 N.2       2 ALA2        0.0000 
     59 N          30.8465   32.7339   15.5651 N.2       2 ALA2        0.0000 
     60 CA         30.8797   31.4630   16.3612 C.3       4 GLY6        0.0000 
     61 CA         30.9128   30.1922   17.1573 C.3       4 GLY6        0.0000 
     62 CA         30.9460   28.9213   17.9534 C.3       4 GLY6        0.0000 
     63 CZ         30.9792   27.6504   18.7495 C.ar      3 PHE5        0.0000 
     64 CA         31.0124   26.3795   19.5456 C.3       4 GLY6        0.0000 
     65 O          31.9720   32.2288   14.7119 O.2       2 ALA2        0.0000 
     66 O          32.0052   30.9579   15.5080 O.2       2 ALA2        0.0000 
     67 O          32.0384   29.6871   16.3041 O.2       2 ALA2        0.0000 
     68 O          32.0716   28.4162   17.1002 O.2       2 ALA2        0.0000 
     69 DU         32.1048   27.1453   17.8963 H         5 CUB7        0.0000 
     70 DU         32.1379   25.8744   18.6924 H         5 CUB7        0.0000 
     71 O          33.2303   26.6402   17.0431 O.2       2 ALA2        0.0000 
     72 DU         33.2635   25.3693   17.8392 H         5 CUB7        0.0000 
     73 CA         34.3559   26.1351   16.1898 C.3       4 GLY6        0.0000 
     74 CA         34.3891   24.8643   16.9859 C.3       4 GLY6        0.0000 
     75 CA         31.8706   32.0793   17.3037 C.3       4 GLY6        0.0000 
     76 CA         31.9702   28.2666   19.6920 C.3       4 GLY6        0.0000 
     77 N          32.0033   26.9958   20.4881 N.2       2 ALA2        0.0000 
     78 O          32.9630   32.8451   15.6544 O.2       2 ALA2        0.0000 
     79 O          32.9962   31.5742   16.4505 O.2       2 ALA2        0.0000 
     80 O          33.0294   30.3033   17.2466 O.2       2 ALA2        0.0000 
     81 O          33.0625   29.0324   18.0427 O.2       2 ALA2        0.0000 
     82 O          33.0957   27.7616   18.8387 O.2       2 ALA2        0.0000 
     83 DU         33.1289   26.4907   19.6348 H         5 CUB7        0.0000 
     84 O          34.2213   27.2565   17.9855 O.2       2 ALA2        0.0000 
     85 CA         34.2545   25.9856   18.7816 C.3       4 GLY6        0.0000 
     86 N          32.8284   33.9664   17.4501 N.2       2 ALA2        0.0000 
     87 O          33.9540   33.4613   16.5968 O.2       2 ALA2        0.0000 
     88 O          33.9871   32.1904   17.3929 O.2       2 ALA2        0.0000 
     89 N          34.0867   28.3778   19.7812 N.2       2 ALA2        0.0000 
     90 N          34.1199   27.1069   20.5773 N.2       2 ALA2        0.0000 
     91 CA         35.2123   27.8727   18.9280 C.3       4 GLY6        0.0000 
     92 CZ         25.7571   30.7740   12.6485 C.ar      3 PHE5        0.0000 
     93 CZ         25.7902   29.5031   13.4446 C.ar      3 PHE5        0.0000 
     94 CZ         26.7148   32.6611   12.7949 C.ar      3 PHE5        0.0000 
     95 CZ         26.7480   31.3903   13.5910 C.ar      3 PHE5        0.0000 
     96 CZ         26.7812   30.1194   14.3871 C.ar      3 PHE5        0.0000 
     97 CZ         26.8144   28.8485   15.1832 C.ar      3 PHE5        0.0000 
     98 DU         27.8072   33.4269   11.1456 H         5 CUB7        0.0000 
     99 DU         27.8404   32.1561   11.9417 H         5 CUB7        0.0000 
    100 DU         27.8736   30.8852   12.7378 H         5 CUB7        0.0000 
    101 DU         27.9068   29.6143   13.5338 H         5 CUB7        0.0000 
    102 CZ         27.9399   28.3434   14.3299 C.ar      3 PHE5        0.0000 
    103 DU         28.9328   32.9219   10.2923 H         5 CUB7        0.0000 
    104 DU         28.9991   30.3801   11.8845 H         5 CUB7        0.0000 
    105 DU         29.0323   29.1092   12.6806 H         5 CUB7        0.0000 
    106 DU         29.0655   27.8383   13.4767 H         5 CUB7        0.0000 
@<TRIPOS>BOND
@<TRIPOS>SUBSTRUCTURE
     1 SER1       22 GROUP   
     2 ALA2        8 GROUP   
     3 PHE5        1 GROUP   
     4 GLY6       55 GROUP   
     5 CUB7        6 GROUP   
@<TRIPOS>SET

