#    Name: 3gjq_TRP_GLU_HIS_ASP_ACE_2_INTS_M
#    Modification time : Tue Mar 25 12:35:34 2014

@<TRIPOS>MOLECULE
3gjq_TRP_GLU_HIS_ASP_ACE_2_INTS_M
   68     0    12     0     0
SMALL
NO_CHARGES


@<TRIPOS>ATOM
      1 O          28.0925   37.2070   11.3455 O.2       1 ALC1        0.0000 
      2 O          26.5080   37.0540   10.7340 O.2       9 ALL1        0.0000 
      3 O          29.6770   37.3600   11.9570 O.2       5 ALP1        0.0000 
      4 O          28.9140   35.9985   11.5770 O.2       1 ALC1        0.0000 
      5 O          28.1510   34.6370   11.1970 O.2       9 ALL1        0.0000 
      6 N          29.4575   36.1755   14.3235 N.am      2 SEC2        0.0000 
      7 N          28.8910   34.9350   13.8660 N.am     10 SEL2        0.0000 
      8 N          30.0240   37.4160   14.7810 N.am      6 SEP2        0.0000 
      9 CA         29.3380   34.9120   16.1890 C.3       4 GLC5        0.0000 
     10 CA         29.7850   32.8650   15.5330 C.3      12 GLL5        0.0000 
     11 CA         28.8910   36.9590   16.8450 C.3       8 GLP5        0.0000 
     12 CA         28.5330   31.0365   18.0145 C.3       4 GLC5        0.0000 
     13 CA         28.7820   32.0900   16.3910 C.3      12 GLL5        0.0000 
     14 CA         28.2840   29.9830   19.6380 C.3       8 GLP5        0.0000 
     15 CA         27.3145   33.4755   15.9600 C.3       4 GLC5        0.0000 
     16 CA         25.8470   34.8610   15.5290 C.3       8 GLP5        0.0000 
     17 O          31.1085   33.8100   17.3750 O.2       1 ALC1        0.0000 
     18 O          31.7520   32.7100   16.9350 O.2       9 ALL1        0.0000 
     19 O          30.4650   34.9100   17.8150 O.2       5 ALP1        0.0000 
     20 CA         33.9285   30.8270   16.1535 C.3       4 GLC5        0.0000 
     21 CA         33.0970   32.2960   17.3130 C.3      12 GLL5        0.0000 
     22 CA         34.7600   29.3580   14.9940 C.3       8 GLP5        0.0000 
     23 N          34.4235   31.7785   20.0890 N.am      2 SEC2        0.0000 
     24 N          34.3900   30.8350   18.7540 N.am     10 SEL2        0.0000 
     25 N          34.4570   32.7220   21.4240 N.am      6 SEP2        0.0000 
     26 N          34.8210   30.1890   17.4830 N.am      2 SEC2        0.0000 
     27 N          35.2520   29.5430   16.2120 N.am      6 SEP2        0.0000 
     28 N          35.6460   30.3750   19.6310 N.am      2 SEC2        0.0000 
     29 N          36.9020   29.9150   20.5080 N.am      6 SEP2        0.0000 
     30 CA         35.0205   33.9925   19.2905 C.3       4 GLC5        0.0000 
     31 CA         33.9540   33.5270   17.6360 C.3      12 GLL5        0.0000 
     32 CA         36.0870   34.4580   20.9450 C.3       8 GLP5        0.0000 
     33 CA         32.8435   34.5995   19.0485 C.3       4 GLC5        0.0000 
     34 CA         31.7330   35.6720   20.4610 C.3       8 GLP5        0.0000 
     35 NZ         36.1420   33.7065   15.0785 N.4       3 LYC4        0.0000 
     36 NZ         34.8200   33.3920   15.4240 N.4      11 LYL4        0.0000 
     37 NZ         38.2540   35.0710   14.5750 N.4       7 LYP4        0.0000 
     38 NZ         34.2760   33.3925   14.2045 N.4       3 LYC4        0.0000 
     39 NZ         33.9060   34.6220   12.5080 N.4       7 LYP4        0.0000 
     40 N          36.1420   33.7065   15.0785 N.am      2 SEC2        0.0000 
     41 N          34.8200   33.3920   15.4240 N.am     10 SEL2        0.0000 
     42 N          37.4640   34.0210   14.7330 N.am      6 SEP2        0.0000 
     43 N          34.5505   34.5015   14.3715 N.am      2 SEC2        0.0000 
     44 N          34.2810   35.6110   13.3190 N.am      6 SEP2        0.0000 
     45 N          34.2760   33.3925   14.2045 N.am      2 SEC2        0.0000 
     46 N          33.7320   33.3930   12.9850 N.am      6 SEP2        0.0000 
     47 NZ         36.1565   34.6875   15.5650 N.4       3 LYC4        0.0000 
     48 NZ         34.8490   35.3540   16.3970 N.4      11 LYL4        0.0000 
     49 N          36.1565   34.6875   15.5650 N.am      2 SEC2        0.0000 
     50 N          34.8490   35.3540   16.3970 N.am     10 SEL2        0.0000 
     51 N          36.3525   35.8105   15.6990 N.am      2 SEC2        0.0000 
     52 N          37.8560   36.2670   15.0010 N.am      6 SEP2        0.0000 
     53 N          34.5475   36.4335   17.3875 N.am      2 SEC2        0.0000 
     54 N          34.2460   37.5130   18.3780 N.am      6 SEP2        0.0000 
     55 N          34.5650   35.4825   14.8580 N.am      2 SEC2        0.0000 
     56 N          22.9060   37.1085   11.8410 N.am      2 SEC2        0.0000 
     57 N          24.4070   36.8240   11.5160 N.am     10 SEL2        0.0000 
     58 N          21.4050   37.3930   12.1660 N.am      6 SEP2        0.0000 
     59 CA         25.5450   39.3625   13.8560 C.3       4 GLC5        0.0000 
     60 CA         25.6600   38.7040   12.2490 C.3      12 GLL5        0.0000 
     61 CA         25.4300   40.0210   15.4630 C.3       8 GLP5        0.0000 
     62 CA         23.8205   38.3865   13.3225 C.3       4 GLC5        0.0000 
     63 CA         21.9810   38.0690   14.3960 C.3       8 GLP5        0.0000 
     64 CA         29.0294   37.1039    7.0984 C.3       4 GLC5        0.0000 
     65 CA         27.4380   37.8770    6.9450 C.3      12 GLL5        0.0000 
     66 CA         30.7640   37.0560    6.6450 C.3       8 GLP5        0.0000 
     67 CA         32.6758   32.1568   18.6043 C.3       4 GLC5        0.0000 
     68 CA         31.8260   31.4020   19.7340 C.3       8 GLP5        0.0000 
@<TRIPOS>BOND
@<TRIPOS>SUBSTRUCTURE
     1 ALC1        1 GROUP        1 X    ALC  0     ROOT ALC X 1
     2 SEC2        6 GROUP        1 X    SEC  0     **** SEC X 2
     3 LYC4       35 GROUP        1 X    LYC  0     **** LYC X 4
     4 GLC5        9 GROUP        1 X    GLC  0     **** GLC X 6
     5 ALP1        3 GROUP        1 Y    ALP  0     ROOT ALP Y 8
     6 SEP2        8 GROUP        1 Y    SEP  0     **** SEP Y 9
     7 LYP4       37 GROUP        1 Y    LYP  0     **** LYP Y 11
     8 GLP5       11 GROUP        1 Y    GLP  0     **** GLP Y 13
     9 ALL1        2 GROUP        1 Z    ALL  0     ROOT ALL Z 15
    10 SEL2        7 GROUP        1 Z    SEL  0     **** SEL Z 16
    11 LYL4       36 GROUP        1 Z    LYL  0     **** LYL Z 18
    12 GLL5       10 GROUP        1 Z    GLL  0     **** GLL Z 20
@<TRIPOS>SET

