#    Name: 3gjq_TRP_GLU_HIS_ASP_ACE_2_ligand
#    Modification time : Tue Mar 25 12:35:34 2014

@<TRIPOS>MOLECULE
3gjq_TRP_GLU_HIS_ASP_ACE_2_ligand
   74    76     5     0     0
SMALL
NO_CHARGES


@<TRIPOS>ATOM
      1 N          26.5080   37.0540   10.7340 N.am      1 TRP7        0.0000
      2 CA         26.4960   35.8500    9.9120 C.3       1 TRP7        0.0000
      3 C          26.9170   34.6150   10.6990 C.2       1 TRP7        0.0000
      4 O          26.1430   33.6720   10.8530 O.2       1 TRP7        0.0000
      5 CB         27.4430   36.0290    8.7190 C.3       1 TRP7        0.0000
      6 CG         26.8600   36.8240    7.5980 C.2       1 TRP7        0.0000
      7 CD1        27.4380   37.8770    6.9450 C.2       1 TRP7        0.0000
      8 CD2        25.5990   36.5990    6.9640 C.ar      1 TRP7        0.0000
      9 NE1        26.6110   38.3230    5.9380 N.pl3     1 TRP7        0.0000
     10 CE2        25.4730   37.5560    5.9280 C.ar      1 TRP7        0.0000
     11 CE3        24.5570   35.6810    7.1680 C.ar      1 TRP7        0.0000
     12 CZ2        24.3470   37.6170    5.0970 C.ar      1 TRP7        0.0000
     13 CZ3        23.4390   35.7410    6.3430 C.ar      1 TRP7        0.0000
     14 CH2        23.3430   36.7050    5.3210 C.ar      1 TRP7        0.0000
     15 HNCA       27.4027   37.6034   10.7102 H         1 TRP7        0.0000
     16 HA         25.5025   35.6738    9.5110 H         1 TRP7        0.0000
     17 HB2        27.7347   35.0266    8.3558 H         1 TRP7        0.0000
     18 HB3        28.3677   36.5141    9.0815 H         1 TRP7        0.0000
     19 HD1        28.3028   38.2580    7.1556 H         1 TRP7        0.0000
     20 HE1        26.8015   39.0499    5.3434 H         1 TRP7        0.0000
     21 HE3        24.6240   34.9857    7.9085 H         1 TRP7        0.0000
     22 HZ2        24.2866   38.3108    4.3630 H         1 TRP7        0.0000
     23 HZ3        22.6639   35.0722    6.4757 H         1 TRP7        0.0000
     24 HH2        22.4884   36.7154    4.7308 H         1 TRP7        0.0000
     25 N          28.1510   34.6370   11.1970 N.am      2 GLU8        0.0000
     26 CA         28.7090   33.5150   11.9400 C.3       2 GLU8        0.0000
     27 C          29.0220   33.8050   13.4050 C.2       2 GLU8        0.0000
     28 O          28.8910   34.9350   13.8660 O.2       2 GLU8        0.0000
     29 CB         29.9750   33.0320   11.2310 C.3       2 GLU8        0.0000
     30 CG         29.7090   32.4390    9.8480 C.3       2 GLU8        0.0000
     31 CD         30.7630   32.8280    8.8200 C.2       2 GLU8        0.0000
     32 OE1        30.7390   33.9880    8.3470 O.co2     2 GLU8        0.0000
     33 OE2        31.6200   31.9780    8.4920 O.co2     2 GLU8        0.0000
     34 HNCA       28.7822   35.4608   11.0800 H         2 GLU8        0.0000
     35 HA         28.0034   32.6666   11.9117 H         2 GLU8        0.0000
     36 HB2        30.4677   32.2736   11.8570 H         2 GLU8        0.0000
     37 HB3        30.6723   33.8767   11.1303 H         2 GLU8        0.0000
     38 HG2        28.7233   32.7764    9.4989 H         2 GLU8        0.0000
     39 HG3        29.6729   31.3439    9.9304 H         2 GLU8        0.0000
     40 N          29.4340   32.7640   14.1240 N.am      3 HIS9        0.0000
     41 CA         29.7850   32.8650   15.5330 C.3       3 HIS9        0.0000
     42 C          31.1950   32.3450   15.7850 C.2       3 HIS9        0.0000
     43 O          31.7550   31.6300   14.9600 O.2       3 HIS9        0.0000
     44 CB         28.7820   32.0900   16.3910 C.3       3 HIS9        0.0000
     45 CG         28.4340   30.7420   15.8460 C.2       3 HIS9        0.0000
     46 ND1        29.3700   29.7490   15.6540 N.pl3     3 HIS9        0.0000
     47 CD2        27.2500   30.2260   15.4420 C.2       3 HIS9        0.0000
     48 CE1        28.7760   28.6780   15.1560 C.2       3 HIS9        0.0000
     49 NE2        27.4900   28.9410   15.0180 N.2       3 HIS9        0.0000
     50 HNCA       29.5273   31.8064   13.7047 H         3 HIS9        0.0000
     51 HA         29.7520   33.9067   15.8530 H         3 HIS9        0.0000
     52 HB2        27.8657   32.7000   16.4911 H         3 HIS9        0.0000
     53 HB3        29.2028   31.9843   17.4076 H         3 HIS9        0.0000
     54 HD1        30.3134   29.8516   15.8625 H         3 HIS9        0.0000
     55 HD2        26.4029   30.6613   15.4458 H         3 HIS9        0.0000
     56 HE1        29.2154   27.8357   14.9292 H         3 HIS9        0.0000
     57 N          31.7520   32.7100   16.9350 N.am      4 ASP10       0.0000
     58 CA         33.0970   32.2960   17.3130 C.3       4 ASP10       0.0000
     59 C          33.1100   31.3530   18.5100 C.2       4 ASP10       0.0000
     60 O          34.3900   30.8350   18.7540 O.2       4 ASP10       0.0000
     61 CB         33.9540   33.5270   17.6360 C.3       4 ASP10       0.0000
     62 CG         34.5880   34.1340   16.3990 C.2       4 ASP10       0.0000
     63 OD1        34.8200   33.3920   15.4240 O.co2     4 ASP10       0.0000
     64 OD2        34.8490   35.3540   16.3970 O.co2     4 ASP10       0.0000
     65 HNCA       31.2538   33.3130   17.6276 H         4 ASP10       0.0000
     66 HA         33.5823   31.7838   16.4786 H         4 ASP10       0.0000
     67 HB2        34.7396   33.2341   18.3426 H         4 ASP10       0.0000
     68 HB3        33.3229   34.2766   18.1281 H         4 ASP10       0.0000
     69 C          25.4690   37.4410   11.4660 C.2       5 ACE6        0.0000
     70 O          24.4070   36.8240   11.5160 O.2       5 ACE6        0.0000
     71 CH3        25.6600   38.7040   12.2490 C.3       5 ACE6        0.0000
     72 H          26.4171   38.6278   12.8978 H         5 ACE6        0.0000
     73 H          25.8606   39.4827   11.6546 H         5 ACE6        0.0000
     74 H          24.8443   38.9407   12.7769 H         5 ACE6        0.0000
@<TRIPOS>BOND
     1    2    1 1
     2   15    1 1
     3    3    2 1
     4    5    2 1
     5   16    2 1
     6    4    3 2
     7    6    5 1
     8   17    5 1
     9   18    5 1
    10    7    6 2
    11    8    6 1
    12    9    7 1
    13   19    7 1
    14   10    8 ar
    15   11    8 ar
    16   10    9 1
    17   20    9 1
    18   12   10 ar
    19   13   11 ar
    20   21   11 1
    21   14   12 ar
    22   22   12 1
    23   14   13 ar
    24   23   13 1
    25   24   14 1
    26   26   25 1
    27   34   25 1
    28   27   26 1
    29   29   26 1
    30   35   26 1
    31   28   27 2
    32   30   29 1
    33   36   29 1
    34   37   29 1
    35   31   30 1
    36   38   30 1
    37   39   30 1
    38   32   31 ar
    39   33   31 ar
    40   41   40 1
    41   50   40 1
    42   42   41 1
    43   44   41 1
    44   51   41 1
    45   43   42 2
    46   45   44 1
    47   52   44 1
    48   53   44 1
    49   46   45 1
    50   47   45 2
    51   48   46 1
    52   54   46 1
    53   49   47 1
    54   55   47 1
    55   49   48 2
    56   56   48 1
    57   58   57 1
    58   65   57 1
    59   59   58 1
    60   61   58 1
    61   66   58 1
    62   60   59 2
    63   62   61 1
    64   67   61 1
    65   68   61 1
    66   63   62 ar
    67   64   62 ar
    68   70   69 2
    69   71   69 1
    70   72   71 1
    71   73   71 1
    72   74   71 1
    73   69    1 1 
    74   25    3 am
    75   40   27 am
    76   57   42 am
@<TRIPOS>SUBSTRUCTURE
     1 TRP7        1 RESIDUE
     2 GLU8       25 RESIDUE
     3 HIS9       40 RESIDUE
     4 ASP10      57 RESIDUE
     5 ACE6       69 GROUP
@<TRIPOS>SET

