#    Name: 3g5s_FAD_1_INTS_M
#    Modification time : Tue Mar 25 07:13:15 2014

@<TRIPOS>MOLECULE
3g5s_FAD_1_INTS_M
  124     0     9     0     0
SMALL
NO_CHARGES


@<TRIPOS>ATOM
      1 N          27.5165   48.7460   40.8990 N.am      2 SEC2        0.0000 
      2 N          27.5770   48.5210   39.2220 N.am      8 SEL2        0.0000 
      3 N          27.4560   48.9710   42.5760 N.am      5 SEP2        0.0000 
      4 N          28.9540   48.3425   39.3775 N.am      2 SEC2        0.0000 
      5 N          30.3310   48.1640   39.5330 N.am      5 SEP2        0.0000 
      6 CA         24.9310   45.3175   37.8635 C.3       3 GLC5        0.0000 
      7 CA         26.5550   44.8460   38.8910 C.3       9 GLL5        0.0000 
      8 CA         23.3070   45.7890   36.8360 C.3       6 GLP5        0.0000 
      9 CA         27.0110   42.6005   40.7405 C.3       3 GLC5        0.0000 
     10 CA         27.5500   43.7850   39.3190 C.3       9 GLL5        0.0000 
     11 CA         26.4720   41.4160   42.1620 C.3       6 GLP5        0.0000 
     12 N          31.3430   43.8570   38.8890 N.am      2 SEC2        0.0000 
     13 N          29.9690   43.9030   39.3710 N.am      8 SEL2        0.0000 
     14 N          32.7170   43.8110   38.4070 N.am      5 SEP2        0.0000 
     15 N          31.2205   44.4020   39.8970 N.am      2 SEC2        0.0000 
     16 N          32.4720   44.9010   40.4230 N.am      5 SEP2        0.0000 
     17 O          30.1065   42.9145   40.2530 O.2       1 ALC1        0.0000 
     18 O          29.9690   43.9030   39.3710 O.2       7 ALL1        0.0000 
     19 O          30.2440   41.9260   41.1350 O.2       4 ALP1        0.0000 
     20 CA         29.0970   41.0675   36.1030 C.3       3 GLC5        0.0000 
     21 CA         28.8300   42.5930   37.6590 C.3       9 GLL5        0.0000 
     22 CA         29.3640   39.5420   34.5470 C.3       6 GLP5        0.0000 
     23 CA         29.3620   42.8650   35.7685 C.3       3 GLC5        0.0000 
     24 CA         29.8940   43.1370   33.8780 C.3       6 GLP5        0.0000 
     25 N          31.4110   42.9295   37.8970 N.am      2 SEC2        0.0000 
     26 N          30.1050   42.0480   37.3870 N.am      8 SEL2        0.0000 
     27 O          30.7410   41.5170   38.4380 O.2       1 ALC1        0.0000 
     28 O          30.1050   42.0480   37.3870 O.2       7 ALL1        0.0000 
     29 O          31.3770   40.9860   39.4890 O.2       4 ALP1        0.0000 
     30 CA         27.2390   41.5345   40.3400 C.3       3 GLC5        0.0000 
     31 CA         28.0060   41.6530   38.5180 C.3       9 GLL5        0.0000 
     32 N          25.2355   39.3030   35.0905 N.am      2 SEC2        0.0000 
     33 N          25.9180   39.4430   36.5190 N.am      8 SEL2        0.0000 
     34 N          24.5530   39.1630   33.6620 N.am      5 SEP2        0.0000 
     35 CA         24.9825   37.3835   39.6810 C.3       3 GLC5        0.0000 
     36 CA         26.1040   37.2580   37.7680 C.3       9 GLL5        0.0000 
     37 CA         23.8610   37.5090   41.5940 C.3       6 GLP5        0.0000 
     38 CA         26.8530   35.6775   36.8440 C.3       3 GLC5        0.0000 
     39 CA         27.6020   34.0970   35.9200 C.3       6 GLP5        0.0000 
     40 O          25.0235   36.3475   35.6880 O.2       1 ALC1        0.0000 
     41 O          25.1630   36.5540   37.1250 O.2       7 ALL1        0.0000 
     42 O          24.8840   36.1410   34.2510 O.2       4 ALP1        0.0000 
     43 O          24.6485   35.2430   37.3410 O.2       1 ALC1        0.0000 
     44 O          24.1340   33.9320   37.5570 O.2       4 ALP1        0.0000 
     45 N          26.6160   35.2315   38.9820 N.am      2 SEC2        0.0000 
     46 N          26.7060   36.6960   38.8610 N.am      8 SEL2        0.0000 
     47 N          26.5260   33.7670   39.1030 N.am      5 SEP2        0.0000 
     48 CA         25.7090   37.4635   40.6290 C.3       3 GLC5        0.0000 
     49 CA         27.5570   37.4180   39.6640 C.3       9 GLL5        0.0000 
     50 CA         29.1310   38.0460   40.8910 C.3       3 GLC5        0.0000 
     51 CA         30.7050   38.6740   42.1180 C.3       6 GLP5        0.0000 
     52 CA         29.2310   37.1860   38.6475 C.3       3 GLC5        0.0000 
     53 CA         30.9050   36.9540   37.6310 C.3       6 GLP5        0.0000 
     54 CA         28.1525   35.6220   38.9025 C.3       3 GLC5        0.0000 
     55 CA         28.7480   33.8260   38.1410 C.3       6 GLP5        0.0000 
     56 N          29.4690   38.3525   39.6250 N.am      2 SEC2        0.0000 
     57 N          27.8060   38.7460   39.4030 N.am      8 SEL2        0.0000 
     58 N          31.1320   37.9590   39.8470 N.am      5 SEP2        0.0000 
     59 CA         26.8385   40.3565   40.2450 C.3       3 GLC5        0.0000 
     60 CA         27.2050   39.2970   38.3280 C.3       9 GLL5        0.0000 
     61 CA         28.9035   38.7465   37.5830 C.3       3 GLC5        0.0000 
     62 CA         30.6020   38.1960   36.8380 C.3       6 GLP5        0.0000 
     63 N          24.9700   56.8085   38.3980 N.am      2 SEC2        0.0000 
     64 N          25.3550   57.6500   37.2430 N.am      8 SEL2        0.0000 
     65 N          24.5850   55.9670   39.5530 N.am      5 SEP2        0.0000 
     66 N          30.0115   58.1380   33.9470 N.am      2 SEC2        0.0000 
     67 N          28.3270   58.2260   33.8580 N.am      8 SEL2        0.0000 
     68 N          31.6960   58.0500   34.0360 N.am      5 SEP2        0.0000 
     69 CA         29.9455   50.3035   30.5595 C.3       3 GLC5        0.0000 
     70 CA         28.8880   51.9460   29.9170 C.3       9 GLL5        0.0000 
     71 CA         31.0030   48.6610   31.2020 C.3       6 GLP5        0.0000 
     72 CA         28.4610   52.5485   28.0795 C.3       3 GLC5        0.0000 
     73 CA         28.0340   53.1510   26.2420 C.3       6 GLP5        0.0000 
     74 CA         29.0050   49.4815   31.2975 C.3       3 GLC5        0.0000 
     75 CA         27.0070   50.3020   31.3930 C.3       9 GLL5        0.0000 
     76 CA         25.8175   49.4150   32.6025 C.3       3 GLC5        0.0000 
     77 CA         24.6280   48.5280   33.8120 C.3       6 GLP5        0.0000 
     78 CA         27.6220   48.2940   31.1145 C.3       3 GLC5        0.0000 
     79 CA         28.2370   46.2860   30.8360 C.3       6 GLP5        0.0000 
     80 CA         25.6065   50.3860   33.3645 C.3       3 GLC5        0.0000 
     81 CA         26.5850   52.2440   32.9170 C.3       9 GLL5        0.0000 
     82 CA         23.0705   51.7795   36.2690 C.3       3 GLC5        0.0000 
     83 CA         24.6400   52.9740   36.1740 C.3       9 GLL5        0.0000 
     84 CA         21.5010   50.5850   36.3640 C.3       6 GLP5        0.0000 
     85 CA         23.6215   54.6400   37.1830 C.3       3 GLC5        0.0000 
     86 CA         22.6030   56.3060   38.1920 C.3       6 GLP5        0.0000 
     87 N          23.0370   54.6995   37.3105 N.am      2 SEC2        0.0000 
     88 N          24.3770   53.9760   37.1420 N.am      8 SEL2        0.0000 
     89 N          21.6970   55.4230   37.4790 N.am      5 SEP2        0.0000 
     90 CA         24.4510   49.2740   36.6725 C.3       3 GLC5        0.0000 
     91 CA         24.7100   50.6410   38.2450 C.3       9 GLL5        0.0000 
     92 CA         24.1920   47.9070   35.1000 C.3       6 GLP5        0.0000 
     93 CA         23.1055   50.6130   37.3045 C.3       3 GLC5        0.0000 
     94 CA         23.7015   51.2180   39.8315 C.3       3 GLC5        0.0000 
     95 CA         22.6930   51.7950   41.4180 C.3       6 GLP5        0.0000 
     96 N          21.6365   48.7010   39.0060 N.am      2 SEC2        0.0000 
     97 N          22.9980   48.3230   39.3260 N.am      8 SEL2        0.0000 
     98 N          20.2750   49.0790   38.6860 N.am      5 SEP2        0.0000 
     99 N          24.8485   48.5115   42.4195 N.am      2 SEC2        0.0000 
    100 N          24.8530   48.0980   41.0690 N.am      8 SEL2        0.0000 
    101 N          24.8440   48.9250   43.7700 N.am      5 SEP2        0.0000 
    102 CA         27.7642   45.5722   40.6035 C.3       3 GLC5        0.0000 
    103 CA         28.4760   46.8290   42.1020 C.3       6 GLP5        0.0000 
    104 CA         25.2852   43.3997   38.8945 C.3       3 GLC5        0.0000 
    105 CA         23.5180   42.4840   38.6840 C.3       6 GLP5        0.0000 
    106 CA         27.7725   37.8690   36.5380 C.3       3 GLC5        0.0000 
    107 CA         26.3480   38.5960   37.4920 C.3       9 GLL5        0.0000 
    108 CA         29.3190   37.8110   35.4460 C.3       6 GLP5        0.0000 
    109 CA         25.9990   37.4705   35.6080 C.3       3 GLC5        0.0000 
    110 CA         25.7720   37.0140   33.5860 C.3       6 GLP5        0.0000 
    111 CA         25.1258   39.3165   38.5505 C.3       3 GLC5        0.0000 
    112 CA         23.5360   40.0210   39.1220 C.3       6 GLP5        0.0000 
    113 CA         29.2118   52.8745   33.1240 C.3       3 GLC5        0.0000 
    114 CA         27.7110   54.3440   32.6050 C.3       9 GLL5        0.0000 
    115 CA         30.3760   51.6680   34.1920 C.3       6 GLP5        0.0000 
    116 CA         29.4887   54.9720   32.3665 C.3       3 GLC5        0.0000 
    117 CA         28.3840   53.8180   31.5070 C.3       9 GLL5        0.0000 
    118 CA         30.9300   55.8630   32.6770 C.3       6 GLP5        0.0000 
    119 CA         29.0420   51.8915   32.8260 C.3       3 GLC5        0.0000 
    120 CA         28.1580   52.5090   31.1050 C.3       9 GLL5        0.0000 
    121 CA         28.5355   52.2848   33.6550 C.3       3 GLC5        0.0000 
    122 CA         26.8888   53.3225   38.0362 C.3       3 GLC5        0.0000 
    123 CA         25.8630   52.1430   36.5610 C.3       9 GLL5        0.0000 
    124 CA         27.9320   54.7490   38.7890 C.3       6 GLP5        0.0000 
@<TRIPOS>BOND
@<TRIPOS>SUBSTRUCTURE
     1 ALC1       17 GROUP        1 X    ALC  0     ROOT ALC X 1
     2 SEC2        1 GROUP        1 X    SEC  0     **** SEC X 2
     3 GLC5        6 GROUP        1 X    GLC  0     **** GLC X 6
     4 ALP1       19 GROUP        1 Y    ALP  0     ROOT ALP Y 8
     5 SEP2        3 GROUP        1 Y    SEP  0     **** SEP Y 9
     6 GLP5        8 GROUP        1 Y    GLP  0     **** GLP Y 13
     7 ALL1       18 GROUP        1 Z    ALL  0     ROOT ALL Z 15
     8 SEL2        2 GROUP        1 Z    SEL  0     **** SEL Z 16
     9 GLL5        7 GROUP        1 Z    GLL  0     **** GLL Z 20
@<TRIPOS>SET

