#    Name: 3g5s_FAD_1_ligand
#    Modification time : Tue Mar 25 07:13:15 2014

@<TRIPOS>MOLECULE
3g5s_FAD_1_ligand
   84    89     1     0     0
SMALL
NO_CHARGES


@<TRIPOS>ATOM
      1 PA         26.8480   47.4300   38.5010 P.3       1 FAD444      0.0000 
      2 O1A        27.1650   47.1980   37.0520 O.co2     1 FAD444      0.0000 
      3 O2A        27.5770   48.5210   39.2220 O.co2     1 FAD444      0.0000 
      4 O5B        27.0460   46.0910   39.3480 O.3       1 FAD444      0.0000 
      5 C5B        26.5550   44.8460   38.8910 C.3       1 FAD444      0.0000 
      6 C4B        27.5500   43.7850   39.3190 C.3       1 FAD444      0.0000 
      7 O4B        26.9990   42.5020   39.0740 O.3       1 FAD444      0.0000 
      8 C3B        28.8450   43.8610   38.5130 C.3       1 FAD444      0.0000 
      9 O3B        29.9690   43.9030   39.3710 O.3       1 FAD444      0.0000 
     10 C2B        28.8300   42.5930   37.6590 C.3       1 FAD444      0.0000 
     11 O2B        30.1050   42.0480   37.3870 O.3       1 FAD444      0.0000 
     12 C1B        28.0060   41.6530   38.5180 C.3       1 FAD444      0.0000 
     13 N9A        27.2770   40.5670   37.8460 N.pl3     1 FAD444      0.0000 
     14 C8A        26.4800   40.6500   36.7380 C.2       1 FAD444      0.0000 
     15 N7A        25.9180   39.4430   36.5190 N.2       1 FAD444      0.0000 
     16 C5A        26.3480   38.5960   37.4920 C.ar      1 FAD444      0.0000 
     17 C6A        26.1040   37.2580   37.7680 C.ar      1 FAD444      0.0000 
     18 N6A        25.1630   36.5540   37.1250 N.pl3     1 FAD444      0.0000 
     19 N1A        26.7060   36.6960   38.8610 N.ar      1 FAD444      0.0000 
     20 C2A        27.5570   37.4180   39.6640 C.ar      1 FAD444      0.0000 
     21 N3A        27.8060   38.7460   39.4030 N.ar      1 FAD444      0.0000 
     22 C4A        27.2050   39.2970   38.3280 C.ar      1 FAD444      0.0000 
     23 N1         25.7200   55.8960   35.8660 N.2       1 FAD444      0.0000 
     24 C2         25.9420   57.1890   36.2660 C.2       1 FAD444      0.0000 
     25 O2         25.3550   57.6500   37.2430 O.2       1 FAD444      0.0000 
     26 N3         26.8360   57.9740   35.5630 N.am      1 FAD444      0.0000 
     27 C4         27.5290   57.4990   34.4620 C.2       1 FAD444      0.0000 
     28 O4         28.3270   58.2260   33.8580 O.2       1 FAD444      0.0000 
     29 C4X        27.2960   56.1820   34.0670 C.2       1 FAD444      0.0000 
     30 N5         27.9470   55.6520   32.9760 N.2       1 FAD444      0.0000 
     31 C5X        27.7110   54.3440   32.6050 C.ar      1 FAD444      0.0000 
     32 C6         28.3840   53.8180   31.5070 C.ar      1 FAD444      0.0000 
     33 C7         28.1580   52.5090   31.1050 C.ar      1 FAD444      0.0000 
     34 C7M        28.8880   51.9460   29.9170 C.3       1 FAD444      0.0000 
     35 C8         27.2580   51.7210   31.8150 C.ar      1 FAD444      0.0000 
     36 C8M        27.0070   50.3020   31.3930 C.3       1 FAD444      0.0000 
     37 C9         26.5850   52.2440   32.9170 C.ar      1 FAD444      0.0000 
     38 C9A        26.8050   53.5590   33.3190 C.ar      1 FAD444      0.0000 
     39 N10        26.1210   54.0890   34.4060 N.pl3     1 FAD444      0.0000 
     40 C10        26.3890   55.3940   34.7740 C.2       1 FAD444      0.0000 
     41 C1'        24.7520   53.5480   34.7510 C.3       1 FAD444      0.0000 
     42 C2'        24.6400   52.9740   36.1740 C.3       1 FAD444      0.0000 
     43 O2'        24.3770   53.9760   37.1420 O.3       1 FAD444      0.0000 
     44 C3'        25.8630   52.1430   36.5610 C.3       1 FAD444      0.0000 
     45 O3'        25.8940   51.0340   35.6850 O.3       1 FAD444      0.0000 
     46 C4'        25.8280   51.6490   38.0060 C.3       1 FAD444      0.0000 
     47 O4'        27.0950   51.0970   38.3030 O.3       1 FAD444      0.0000 
     48 C5'        24.7100   50.6410   38.2450 C.3       1 FAD444      0.0000 
     49 O5'        24.8910   50.0200   39.4990 O.3       1 FAD444      0.0000 
     50 P          24.4370   48.4980   39.6920 P.3       1 FAD444      0.0000 
     51 O1P        22.9980   48.3230   39.3260 O.co2     1 FAD444      0.0000 
     52 O2P        24.8530   48.0980   41.0690 O.co2     1 FAD444      0.0000 
     53 O3P        25.2670   47.6920   38.5780 O.3       1 FAD444      0.0000 
     54 H          26.4697   44.8104   37.8058 H         1 FAD444      0.0000 
     55 H          25.5889   44.5988   39.3288 H         1 FAD444      0.0000 
     56 H          27.7876   43.9141   40.3544 H         1 FAD444      0.0000 
     57 H          28.7721   44.6999   37.8579 H         1 FAD444      0.0000 
     58 H          28.2474   42.8041   36.7811 H         1 FAD444      0.0000 
     59 H          28.6171   41.2770   39.3152 H         1 FAD444      0.0000 
     60 H          26.3483   41.4443   36.2082 H         1 FAD444      0.0000 
     61 H          24.9380   36.8618   36.2005 H         1 FAD444      0.0000 
     62 H          24.7698   35.7837   37.6271 H         1 FAD444      0.0000 
     63 H          28.0152   36.9587   40.4730 H         1 FAD444      0.0000 
     64 H          26.9957   58.9608   35.8719 H         1 FAD444      0.0000 
     65 H          29.0552   54.4059   30.9891 H         1 FAD444      0.0000 
     66 H          25.9200   51.6537   33.4379 H         1 FAD444      0.0000 
     67 H          24.4790   52.7547   34.0331 H         1 FAD444      0.0000 
     68 H          24.0013   54.3499   34.6390 H         1 FAD444      0.0000 
     69 H          23.7792   52.2559   36.1472 H         1 FAD444      0.0000 
     70 H          26.7418   52.7585   36.4252 H         1 FAD444      0.0000 
     71 H          25.6376   52.5221   38.6375 H         1 FAD444      0.0000 
     72 H          24.7326   49.9184   37.4181 H         1 FAD444      0.0000 
     73 H          23.7565   51.1829   38.1852 H         1 FAD444      0.0000 
     74 H          29.8790   51.9585   30.0500 H         1 FAD444      0.0000 
     75 H          28.6283   50.9972   29.7370 H         1 FAD444      0.0000 
     76 H          28.6975   52.4651   29.0838 H         1 FAD444      0.0000 
     77 H          27.8422   49.7528   31.4214 H         1 FAD444      0.0000 
     78 H          26.3394   49.8509   31.9853 H         1 FAD444      0.0000 
     79 H          26.6531   50.2493   30.4592 H         1 FAD444      0.0000 
     80 H          29.6788   43.4267   40.2010 H         1 FAD444      0.0000 
     81 H          30.4380   41.7160   38.2695 H         1 FAD444      0.0000 
     82 H          24.8183   54.8004   36.7875 H         1 FAD444      0.0000 
     83 H          26.7778   50.5970   35.8521 H         1 FAD444      0.0000 
     84 H          26.9060   50.1616   38.6017 H         1 FAD444      0.0000 
@<TRIPOS>BOND
     1    2    1 ar   
     2    3    1 ar   
     3    4    1 1    
     4   53    1 1    
     5    5    4 1    
     6    6    5 1    
     7   54    5 1    
     8   55    5 1    
     9    7    6 1    
    10    8    6 1    
    11   56    6 1    
    12   12    7 1    
    13    9    8 1    
    14   10    8 1    
    15   57    8 1    
    16   80    9 1    
    17   11   10 1    
    18   12   10 1    
    19   58   10 1    
    20   81   11 1    
    21   13   12 1    
    22   59   12 1    
    23   14   13 1    
    24   22   13 1    
    25   15   14 2    
    26   60   14 1    
    27   16   15 1    
    28   17   16 ar   
    29   22   16 ar   
    30   18   17 1    
    31   19   17 ar   
    32   61   18 1    
    33   62   18 1    
    34   20   19 ar   
    35   21   20 ar   
    36   63   20 1    
    37   22   21 ar   
    38   24   23 1    
    39   40   23 2    
    40   25   24 2    
    41   26   24 am   
    42   27   26 am   
    43   64   26 1    
    44   28   27 2    
    45   29   27 1    
    46   30   29 2    
    47   40   29 1    
    48   31   30 1    
    49   32   31 ar   
    50   38   31 ar   
    51   33   32 ar   
    52   65   32 1    
    53   34   33 1    
    54   35   33 ar   
    55   74   34 1    
    56   75   34 1    
    57   76   34 1    
    58   36   35 1    
    59   37   35 ar   
    60   77   36 1    
    61   78   36 1    
    62   79   36 1    
    63   38   37 ar   
    64   66   37 1    
    65   39   38 1    
    66   40   39 1    
    67   41   39 1    
    68   42   41 1    
    69   67   41 1    
    70   68   41 1    
    71   43   42 1    
    72   44   42 1    
    73   69   42 1    
    74   82   43 1    
    75   45   44 1    
    76   46   44 1    
    77   70   44 1    
    78   83   45 1    
    79   47   46 1    
    80   48   46 1    
    81   71   46 1    
    82   84   47 1    
    83   49   48 1    
    84   72   48 1    
    85   73   48 1    
    86   50   49 1    
    87   51   50 ar   
    88   52   50 ar   
    89   53   50 1    
@<TRIPOS>SUBSTRUCTURE
     1 FAD444      1 GROUP   
@<TRIPOS>SET

