#    Name: 1jtq_LY3_2_INTS_M
#    Modification time : Tue Mar 25 09:25:58 2014

@<TRIPOS>MOLECULE
1jtq_LY3_2_INTS_M
   30     0     6     0     0
SMALL
NO_CHARGES


@<TRIPOS>ATOM
      1 O          48.4365   36.4435   26.0020 O.2       1 ALC1        0.0000 
      2 O          48.1150   35.9940   24.5620 O.2       5 ALL1        0.0000 
      3 O          48.7580   36.8930   27.4420 O.2       3 ALP1        0.0000 
      4 CA         49.5235   36.6325   22.2350 C.3       2 GLC5        0.0000 
      5 CA         47.7330   35.4860   21.9510 C.3       6 GLL5        0.0000 
      6 CA         51.3140   37.7790   22.5190 C.3       4 GLP5        0.0000 
      7 CA         46.1045   35.0125   23.9460 C.3       2 GLC5        0.0000 
      8 CA         46.8960   36.3310   22.5470 C.3       6 GLL5        0.0000 
      9 CA         45.3130   33.6940   25.3450 C.3       4 GLP5        0.0000 
     10 CA         47.4185   41.1750   24.7155 C.3       2 GLC5        0.0000 
     11 CA         46.7320   41.8640   22.7000 C.3       6 GLL5        0.0000 
     12 CA         48.1050   40.4860   26.7310 C.3       4 GLP5        0.0000 
     13 O          51.0535   34.1565   23.9400 O.2       1 ALC1        0.0000 
     14 O          50.0210   34.5680   24.7570 O.2       5 ALL1        0.0000 
     15 O          52.0860   33.7450   23.1230 O.2       3 ALP1        0.0000 
     16 CA         49.8110   43.6715   24.6090 C.3       2 GLC5        0.0000 
     17 CA         50.0210   44.9050   22.8890 C.3       6 GLL5        0.0000 
     18 CA         49.6010   42.4380   26.3290 C.3       4 GLP5        0.0000 
     19 O          46.1245   47.4690   18.6645 O.2       1 ALC1        0.0000 
     20 O          47.4810   47.6910   19.4710 O.2       5 ALL1        0.0000 
     21 O          44.7680   47.2470   17.8580 O.2       3 ALP1        0.0000 
     22 CA         44.2127   35.8414   21.9530 C.3       2 GLC5        0.0000 
     23 CA         45.8570   36.8420   21.5860 C.3       6 GLL5        0.0000 
     24 CA         43.0480   34.4970   22.4440 C.3       4 GLP5        0.0000 
     25 CA         46.3220   40.9237   19.2227 C.3       2 GLC5        0.0000 
     26 CA         45.8290   39.9780   21.3210 C.3       6 GLL5        0.0000 
     27 CA         46.2090   41.8820   17.4910 C.3       4 GLP5        0.0000 
     28 CA         47.1335   42.2675   19.8387 C.3       2 GLC5        0.0000 
     29 CA         48.0880   40.8570   20.8910 C.3       6 GLL5        0.0000 
     30 CA         46.2500   43.2020   18.2630 C.3       4 GLP5        0.0000 
@<TRIPOS>BOND
@<TRIPOS>SUBSTRUCTURE
     1 ALC1        1 GROUP        1 X    ALC  0     ROOT ALC X 1
     2 GLC5        4 GROUP        1 X    GLC  0     **** GLC X 6
     3 ALP1        3 GROUP        1 Y    ALP  0     ROOT ALP Y 8
     4 GLP5        6 GROUP        1 Y    GLP  0     **** GLP Y 13
     5 ALL1        2 GROUP        1 Z    ALL  0     ROOT ALL Z 15
     6 GLL5        5 GROUP        1 Z    GLL  0     **** GLL Z 20
@<TRIPOS>SET

