#    Name: 1jtq_LY3_2_ligand
#    Modification time : Tue Mar 25 09:25:58 2014

@<TRIPOS>MOLECULE
1jtq_LY3_2_ligand
   53    56     1     0     0
SMALL
NO_CHARGES


@<TRIPOS>ATOM
      1 N1         48.1150   35.9940   24.5620 N.am      1 LY3502      0.0000 
      2 C1         48.9590   35.1420   23.9310 C.2       1 LY3502      0.0000 
      3 N2         48.8370   34.8580   22.6880 N.2       1 LY3502      0.0000 
      4 C2         47.7330   35.4860   21.9510 C.2       1 LY3502      0.0000 
      5 C3         46.8960   36.3310   22.5470 C.2       1 LY3502      0.0000 
      6 C4         47.0430   36.6540   24.0150 C.2       1 LY3502      0.0000 
      7 N3         47.3020   35.3990   20.5530 N.pl3     1 LY3502      0.0000 
      8 C5         46.1290   36.2710   20.3980 C.2       1 LY3502      0.0000 
      9 C6         45.8570   36.8420   21.5860 C.2       1 LY3502      0.0000 
     10 C7         44.7620   37.8150   21.9320 C.3       1 LY3502      0.0000 
     11 C8         44.7420   38.9920   20.9580 C.3       1 LY3502      0.0000 
     12 C9         45.8290   39.9780   21.3210 C.ar      1 LY3502      0.0000 
     13 C10        45.6670   40.9350   22.3860 C.ar      1 LY3502      0.0000 
     14 C11        46.7320   41.8640   22.7000 C.ar      1 LY3502      0.0000 
     15 C12        47.9460   41.8090   21.9380 C.ar      1 LY3502      0.0000 
     16 C13        48.0880   40.8570   20.8910 C.ar      1 LY3502      0.0000 
     17 C14        47.0410   39.9530   20.5880 C.ar      1 LY3502      0.0000 
     18 C15        49.1330   42.7450   22.1830 C.2       1 LY3502      0.0000 
     19 O1         46.3270   37.4030   24.6220 O.2       1 LY3502      0.0000 
     20 N4         50.0210   34.5680   24.7570 N.pl3     1 LY3502      0.0000 
     21 C16        50.0210   44.9050   22.8890 C.3       1 LY3502      0.0000 
     22 C17        50.2800   45.7650   21.6370 C.3       1 LY3502      0.0000 
     23 C18        49.8980   45.7960   24.1410 C.2       1 LY3502      0.0000 
     24 O2         48.4580   45.9940   24.5280 O.co2     1 LY3502      0.0000 
     25 O3         50.8450   46.2860   24.7350 O.co2     1 LY3502      0.0000 
     26 N5         48.8680   44.0130   22.6860 N.am      1 LY3502      0.0000 
     27 O4         50.2630   42.3940   21.9240 O.2       1 LY3502      0.0000 
     28 C19        49.9920   47.2480   21.8620 C.3       1 LY3502      0.0000 
     29 C20        49.0520   47.7120   20.8010 C.2       1 LY3502      0.0000 
     30 N6         47.9580   46.8980   20.3140 N.2       1 LY3502      0.0000 
     31 N7         47.4810   47.6910   19.4710 N.pl3     1 LY3502      0.0000 
     32 N8         48.1130   48.8920   19.3560 N.2       1 LY3502      0.0000 
     33 N9         49.1210   48.8340   20.2520 N.2       1 LY3502      0.0000 
     34 H          48.3018   36.1793   25.6165 H         1 LY3502      0.0000 
     35 H          47.6894   34.8961   19.8968 H         1 LY3502      0.0000 
     36 H          45.6858   36.3678   19.5675 H         1 LY3502      0.0000 
     37 H          44.9132   38.1969   22.9445 H         1 LY3502      0.0000 
     38 H          43.7937   37.3100   21.8957 H         1 LY3502      0.0000 
     39 H          43.7723   39.4794   21.0093 H         1 LY3502      0.0000 
     40 H          44.9042   38.6217   19.9495 H         1 LY3502      0.0000 
     41 H          44.8065   40.9602   22.9183 H         1 LY3502      0.0000 
     42 H          46.6170   42.5326   23.4391 H         1 LY3502      0.0000 
     43 H          48.9580   40.8271   20.3518 H         1 LY3502      0.0000 
     44 H          47.1611   39.2734   19.8305 H         1 LY3502      0.0000 
     45 H          50.6365   33.9266   24.2991 H         1 LY3502      0.0000 
     46 H          50.0444   34.8641   25.7119 H         1 LY3502      0.0000 
     47 H          50.9330   44.2856   23.0284 H         1 LY3502      0.0000 
     48 H          49.6504   45.3944   20.8190 H         1 LY3502      0.0000 
     49 H          51.3273   45.6417   21.3357 H         1 LY3502      0.0000 
     50 H          47.9564   44.3393   22.9104 H         1 LY3502      0.0000 
     51 H          50.9229   47.7986   21.8078 H         1 LY3502      0.0000 
     52 H          49.5473   47.3747   22.8412 H         1 LY3502      0.0000 
     53 H          46.6622   47.4991   18.8737 H         1 LY3502      0.0000 
@<TRIPOS>BOND
     1    2    1 1    
     2    6    1 am   
     3   34    1 1    
     4    3    2 2    
     5   20    2 1    
     6    4    3 1    
     7    5    4 2    
     8    7    4 1    
     9    6    5 1    
    10    9    5 1    
    11   19    6 2    
    12    8    7 1    
    13   35    7 1    
    14    9    8 2    
    15   36    8 1    
    16   10    9 1    
    17   11   10 1    
    18   37   10 1    
    19   38   10 1    
    20   12   11 1    
    21   39   11 1    
    22   40   11 1    
    23   13   12 ar   
    24   17   12 ar   
    25   14   13 ar   
    26   41   13 1    
    27   15   14 ar   
    28   42   14 1    
    29   16   15 ar   
    30   18   15 1    
    31   17   16 ar   
    32   43   16 1    
    33   44   17 1    
    34   26   18 am   
    35   27   18 2    
    36   45   20 1    
    37   46   20 1    
    38   22   21 1    
    39   23   21 1    
    40   26   21 1    
    41   47   21 1    
    42   28   22 1    
    43   48   22 1    
    44   49   22 1    
    45   24   23 ar   
    46   25   23 ar   
    47   50   26 1    
    48   29   28 1    
    49   51   28 1    
    50   52   28 1    
    51   30   29 2    
    52   33   29 1    
    53   31   30 1    
    54   32   31 1    
    55   53   31 1    
    56   33   32 2    
@<TRIPOS>SUBSTRUCTURE
     1 LY3502      1 GROUP   
@<TRIPOS>SET

