#    Name: 4l39_APC_2_INTS_M
#    Modification time : Tue Mar 25 09:48:13 2014

@<TRIPOS>MOLECULE
4l39_APC_2_INTS_M
   53     0    12     0     0
SMALL
NO_CHARGES


@<TRIPOS>ATOM
      1 Zn         29.3675  -13.3695  -21.7260 Zn        3 ZIC7        0.0000 
      2 Zn         29.2840  -12.8200  -20.6610 Zn       11 ZIL7        0.0000 
      3 Zn         29.4510  -13.9190  -22.7910 Zn        7 ZIP7        0.0000 
      4 N          33.0715   -7.2805  -21.3470 N.am      2 SEC2        0.0000 
      5 N          31.7590   -6.4500  -20.9530 N.am     10 SEL2        0.0000 
      6 N          34.3840   -8.1110  -21.7410 N.am      6 SEP2        0.0000 
      7 N          32.0830   -8.3090  -22.9020 N.am      2 SEC2        0.0000 
      8 N          31.1590   -8.8560  -21.5370 N.am     10 SEL2        0.0000 
      9 N          33.0070   -7.7620  -24.2670 N.am      6 SEP2        0.0000 
     10 N          32.7715   -8.4835  -21.6390 N.am      2 SEC2        0.0000 
     11 CA         32.1650   -8.5170  -18.3030 C.3       4 GLC5        0.0000 
     12 CA         30.5480   -7.9150  -18.9830 C.3      12 GLL5        0.0000 
     13 CA         33.7820   -9.1190  -17.6230 C.3       8 GLP5        0.0000 
     14 CA         29.5515   -7.6475  -23.8585 C.3       4 GLC5        0.0000 
     15 CA         28.6370   -7.3020  -22.4000 C.3      12 GLL5        0.0000 
     16 CA         30.4660   -7.9930  -25.3170 C.3       8 GLP5        0.0000 
     17 CA         28.5030   -7.8245  -24.3090 C.3       4 GLC5        0.0000 
     18 CA         26.5400   -7.6560  -23.3010 C.3      12 GLL5        0.0000 
     19 O          24.9595   -9.7400  -23.6250 O.2       1 ALC1        0.0000 
     20 O          26.4090   -9.0900  -23.4110 O.2       9 ALL1        0.0000 
     21 O          23.5100  -10.3900  -23.8390 O.2       5 ALP1        0.0000 
     22 O          25.6650   -9.3850  -24.3825 O.2       1 ALC1        0.0000 
     23 O          24.9210   -9.6800  -25.3540 O.2       5 ALP1        0.0000 
     24 CA         23.5830   -7.2490  -24.0860 C.3       4 GLC5        0.0000 
     25 CA         25.2600   -7.0330  -23.1500 C.3      12 GLL5        0.0000 
     26 CA         21.9060   -7.4650  -25.0220 C.3       8 GLP5        0.0000 
     27 O          23.9935   -9.2310  -23.2025 O.2       1 ALC1        0.0000 
     28 O          24.4770   -8.0720  -22.5660 O.2       9 ALL1        0.0000 
     29 O          24.6990   -8.8760  -23.9600 O.2       1 ALC1        0.0000 
     30 O          24.8080   -0.4595  -26.1545 O.2       1 ALC1        0.0000 
     31 O          24.0410   -1.0380  -25.3560 O.2       9 ALL1        0.0000 
     32 O          25.5750    0.1190  -26.9530 O.2       5 ALP1        0.0000 
     33 O          22.8055   -0.4295  -26.1185 O.2       1 ALC1        0.0000 
     34 O          21.5700    0.1790  -26.8810 O.2       5 ALP1        0.0000 
     35 N          21.3075   -1.7290  -24.6845 N.am      2 SEC2        0.0000 
     36 N          22.3790   -2.4540  -24.5020 N.am     10 SEL2        0.0000 
     37 N          20.2360   -1.0040  -24.8670 N.am      6 SEP2        0.0000 
     38 CA         22.3820   -1.4570  -23.1835 C.3       4 GLC5        0.0000 
     39 CA         21.9370   -3.5300  -23.8140 C.3      12 GLL5        0.0000 
     40 CA         22.8270    0.6160  -22.5530 C.3       8 GLP5        0.0000 
     41 CA         20.3795   -2.2045  -24.2775 C.3       4 GLC5        0.0000 
     42 CA         18.8220   -0.8790  -24.7410 C.3       8 GLP5        0.0000 
     43 CA         20.0685   -3.8375  -22.7600 C.3       4 GLC5        0.0000 
     44 CA         18.2000   -4.1450  -21.7060 C.3       8 GLP5        0.0000 
     45 CA         20.6965   -4.4055  -25.3535 C.3       4 GLC5        0.0000 
     46 CA         19.4560   -5.2810  -26.8930 C.3       8 GLP5        0.0000 
     47 CA         25.4740   -6.8163  -25.1047 C.3       4 GLC5        0.0000 
     48 CA         25.0480   -6.2880  -26.9840 C.3       8 GLP5        0.0000 
     49 CA         23.4965   -0.9752  -23.4545 C.3       4 GLC5        0.0000 
     50 CA         24.6570   -2.9680  -24.0790 C.3      12 GLL5        0.0000 
     51 CA         25.1460   -2.4062  -26.2880 C.3       4 GLC5        0.0000 
     52 CA         23.6750   -2.1650  -24.6330 C.3      12 GLL5        0.0000 
     53 CA         26.1260   -2.2460  -28.2200 C.3       8 GLP5        0.0000 
@<TRIPOS>BOND
@<TRIPOS>SUBSTRUCTURE
     1 ALC1       19 GROUP        1 X    ALC  0     ROOT ALC X 1
     2 SEC2        4 GROUP        1 X    SEC  0     **** SEC X 2
     3 ZIC7        1 GROUP        1 X    ZIC  0     **** ZIC X 5
     4 GLC5       11 GROUP        1 X    GLC  0     **** GLC X 6
     5 ALP1       21 GROUP        1 Y    ALP  0     ROOT ALP Y 8
     6 SEP2        6 GROUP        1 Y    SEP  0     **** SEP Y 9
     7 ZIP7        3 GROUP        1 Y    ZIP  0     **** ZIP Y 12
     8 GLP5       13 GROUP        1 Y    GLP  0     **** GLP Y 13
     9 ALL1       20 GROUP        1 Z    ALL  0     ROOT ALL Z 15
    10 SEL2        5 GROUP        1 Z    SEL  0     **** SEL Z 16
    11 ZIL7        2 GROUP        1 Z    ZIL  0     **** ZIL Z 19
    12 GLL5       12 GROUP        1 Z    GLL  0     **** GLL Z 20
@<TRIPOS>SET

