#    Name: 4l39_APC_2_ligand
#    Modification time : Tue Mar 25 09:48:13 2014

@<TRIPOS>MOLECULE
4l39_APC_2_ligand
   45    47     1     0     0
SMALL
NO_CHARGES


@<TRIPOS>ATOM
      1 PG         29.2260  -12.0880  -19.3290 P.3       1 APC603      0.0000 
      2 O1G        27.8020  -12.1420  -18.7920 O.co2     1 APC603      0.0000 
      3 O2G        29.2840  -12.8200  -20.6610 O.co2     1 APC603      0.0000 
      4 O3G        30.1060  -12.7520  -18.2780 O.co2     1 APC603      0.0000 
      5 PB         29.3470   -9.3090  -18.7550 P.3       1 APC603      0.0000 
      6 O1B        27.9530   -8.9480  -19.2020 O.co2     1 APC603      0.0000 
      7 O2B        29.3130   -9.6190  -17.2650 O.co2     1 APC603      0.0000 
      8 O3B        29.7640  -10.5910  -19.5860 O.3       1 APC603      0.0000 
      9 PA         30.7640   -7.5680  -20.7960 P.3       1 APC603      0.0000 
     10 O1A        31.7590   -6.4500  -20.9530 O.co2     1 APC603      0.0000 
     11 O2A        31.1590   -8.8560  -21.5370 O.co2     1 APC603      0.0000 
     12 C3A        30.5480   -7.9150  -18.9830 C.3       1 APC603      0.0000 
     13 O5'        29.3900   -6.9200  -21.2500 O.3       1 APC603      0.0000 
     14 C5'        28.6370   -7.3020  -22.4000 C.3       1 APC603      0.0000 
     15 C4'        27.2290   -7.3920  -22.0430 C.3       1 APC603      0.0000 
     16 O4'        26.6790   -6.1080  -21.4630 O.3       1 APC603      0.0000 
     17 C3'        26.5400   -7.6560  -23.3010 C.3       1 APC603      0.0000 
     18 O3'        26.4090   -9.0900  -23.4110 O.3       1 APC603      0.0000 
     19 C2'        25.2600   -7.0330  -23.1500 C.3       1 APC603      0.0000 
     20 O2'        24.4770   -8.0720  -22.5660 O.3       1 APC603      0.0000 
     21 C1'        25.3830   -5.9030  -22.2010 C.3       1 APC603      0.0000 
     22 N9         25.3560   -4.7170  -22.9300 N.pl3     1 APC603      0.0000 
     23 C8         26.3990   -3.9840  -23.3520 C.2       1 APC603      0.0000 
     24 N7         25.9730   -2.9450  -24.0290 N.2       1 APC603      0.0000 
     25 C5         24.6570   -2.9680  -24.0790 C.ar      1 APC603      0.0000 
     26 C6         23.6750   -2.1650  -24.6330 C.ar      1 APC603      0.0000 
     27 N6         24.0410   -1.0380  -25.3560 N.pl3     1 APC603      0.0000 
     28 N1         22.3790   -2.4540  -24.5020 N.ar      1 APC603      0.0000 
     29 C2         21.9370   -3.5300  -23.8140 C.ar      1 APC603      0.0000 
     30 N3         22.8640   -4.3570  -23.2620 N.ar      1 APC603      0.0000 
     31 C4         24.2120   -4.1030  -23.3800 C.ar      1 APC603      0.0000 
     32 H          31.4466   -8.2509  -18.6477 H         1 APC603      0.0000 
     33 H          30.1101   -7.0891  -18.5846 H         1 APC603      0.0000 
     34 H          28.9821   -8.2743  -22.7863 H         1 APC603      0.0000 
     35 H          28.7653   -6.5677  -23.2112 H         1 APC603      0.0000 
     36 H          27.0579   -8.1984  -21.3681 H         1 APC603      0.0000 
     37 H          27.0857   -7.2454  -24.1010 H         1 APC603      0.0000 
     38 H          24.8736   -6.7247  -24.0711 H         1 APC603      0.0000 
     39 H          24.5738   -5.9743  -21.4924 H         1 APC603      0.0000 
     40 H          27.3401   -4.2092  -23.1701 H         1 APC603      0.0000 
     41 H          24.9360   -1.0721  -25.8009 H         1 APC603      0.0000 
     42 H          23.3781   -0.2895  -25.3695 H         1 APC603      0.0000 
     43 H          20.9344   -3.7200  -23.7095 H         1 APC603      0.0000 
     44 H          25.4866   -9.2389  -23.7673 H         1 APC603      0.0000 
     45 H          24.3350   -8.7338  -23.3021 H         1 APC603      0.0000 
@<TRIPOS>BOND
     1    2    1 ar   
     2    3    1 ar   
     3    4    1 ar   
     4    8    1 1    
     5    6    5 ar   
     6    7    5 ar   
     7    8    5 1    
     8   12    5 1    
     9   10    9 ar   
    10   11    9 ar   
    11   12    9 1    
    12   13    9 1    
    13   32   12 1    
    14   33   12 1    
    15   14   13 1    
    16   15   14 1    
    17   34   14 1    
    18   35   14 1    
    19   16   15 1    
    20   17   15 1    
    21   36   15 1    
    22   21   16 1    
    23   18   17 1    
    24   19   17 1    
    25   37   17 1    
    26   44   18 1    
    27   20   19 1    
    28   21   19 1    
    29   38   19 1    
    30   45   20 1    
    31   22   21 1    
    32   39   21 1    
    33   23   22 1    
    34   31   22 1    
    35   24   23 2    
    36   40   23 1    
    37   25   24 1    
    38   26   25 ar   
    39   31   25 ar   
    40   27   26 1    
    41   28   26 ar   
    42   41   27 1    
    43   42   27 1    
    44   29   28 ar   
    45   30   29 ar   
    46   43   29 1    
    47   31   30 ar   
@<TRIPOS>SUBSTRUCTURE
     1 APC603      1 GROUP   
@<TRIPOS>SET

