#    Name: 2hzi_JIN_1_INTS_M
#    Modification time : Tue Mar 25 17:14:36 2014

@<TRIPOS>MOLECULE
2hzi_JIN_1_INTS_M
   93     0     9     0     0
SMALL
NO_CHARGES


@<TRIPOS>ATOM
      1 CA         20.2365   13.2335    3.9240 C.3       3 GLC5        0.0000 
      2 CA         18.7180   14.5070    3.5840 C.3       9 GLL5        0.0000 
      3 CA         21.7550   11.9600    4.2640 C.3       6 GLP5        0.0000 
      4 CA         20.5995   14.2315    2.3830 C.3       3 GLC5        0.0000 
      5 CA         22.4810   13.9560    1.1820 C.3       6 GLP5        0.0000 
      6 CA         14.0075   16.7515    6.2510 C.3       3 GLC5        0.0000 
      7 CA         15.1530   16.0020    5.3110 C.3       9 GLL5        0.0000 
      8 CA         12.8620   17.5010    7.1910 C.3       6 GLP5        0.0000 
      9 CA         15.5520   17.1950    3.7350 C.3       3 GLC5        0.0000 
     10 CA         15.9510   18.3880    2.1590 C.3       6 GLP5        0.0000 
     11 CA         15.9945   14.0870    5.9670 C.3       3 GLC5        0.0000 
     12 CA         16.8360   12.1720    6.6230 C.3       6 GLP5        0.0000 
     13 CA         21.7510   17.9465    7.5225 C.3       3 GLC5        0.0000 
     14 CA         22.0520   16.8670    5.8630 C.3       9 GLL5        0.0000 
     15 CA         21.4500   19.0260    9.1820 C.3       6 GLP5        0.0000 
     16 CA         21.4560   19.8165    4.7140 C.3       3 GLC5        0.0000 
     17 CA         22.4560   17.8380    4.9110 C.3       9 GLL5        0.0000 
     18 CA         20.4560   21.7950    4.5170 C.3       6 GLP5        0.0000 
     19 CA         21.3110   14.0525    4.9545 C.3       3 GLC5        0.0000 
     20 CA         20.8670   16.1450    5.6450 C.3       9 GLL5        0.0000 
     21 CA         11.3895   15.3010    3.0335 C.3       3 GLC5        0.0000 
     22 CA         10.9270   13.7090    4.3430 C.3       9 GLL5        0.0000 
     23 CA         11.8520   16.8930    1.7240 C.3       6 GLP5        0.0000 
     24 CA         10.1050   15.6880    4.8020 C.3       3 GLC5        0.0000 
     25 CA          9.2830   17.6670    5.2610 C.3       6 GLP5        0.0000 
     26 CA         11.3700   13.4280    1.3715 C.3       3 GLC5        0.0000 
     27 CA         11.6930   11.7860    2.4860 C.3       9 GLL5        0.0000 
     28 CA         11.0470   15.0700    0.2570 C.3       6 GLP5        0.0000 
     29 CA         13.4055   12.6220    5.6810 C.3       3 GLC5        0.0000 
     30 CA         12.2820   13.4030    4.1210 C.3       9 GLL5        0.0000 
     31 CA         14.5290   11.8410    7.2410 C.3       6 GLP5        0.0000 
     32 O          13.8135   10.6790    2.4085 O.2       1 ALC1        0.0000 
     33 O          13.9880   12.0550    2.8670 O.2       7 ALL1        0.0000 
     34 O          13.6390    9.3030    1.9500 O.2       4 ALP1        0.0000 
     35 CA         14.3330   14.0450    1.8655 C.3       3 GLC5        0.0000 
     36 CA         15.1360   12.7130    3.0870 C.3       9 GLL5        0.0000 
     37 CA         13.5300   15.3770    0.6440 C.3       6 GLP5        0.0000 
     38 CA         15.5815   10.7060    3.3390 C.3       3 GLC5        0.0000 
     39 CA         16.0270    8.6990    3.5910 C.3       6 GLP5        0.0000 
     40 CA         15.9860   12.4425    4.8550 C.3       3 GLC5        0.0000 
     41 N          16.3110   10.7660    1.9220 N.am      2 SEC2        0.0000 
     42 N          16.1630   12.1260    2.5210 N.am      8 SEL2        0.0000 
     43 N          16.4590    9.4060    1.3230 N.am      5 SEP2        0.0000 
     44 CA         17.4685   11.5010    1.0230 C.3       3 GLC5        0.0000 
     45 CA         17.3840   12.6850    2.6400 C.3       9 GLL5        0.0000 
     46 CA         17.5530   10.3170   -0.5940 C.3       6 GLP5        0.0000 
     47 CA         17.4370   10.7105    3.3175 C.3       3 GLC5        0.0000 
     48 CA         17.4900    8.7360    3.9950 C.3       6 GLP5        0.0000 
     49 CA         16.1715   16.3975    3.0725 C.3       3 GLC5        0.0000 
     50 CA         16.3920   14.4070    3.9860 C.3       9 GLL5        0.0000 
     51 CA         17.3710   17.0345    3.2470 C.3       3 GLC5        0.0000 
     52 CA         18.7910   15.6810    4.3350 C.3       9 GLL5        0.0000 
     53 CA         17.8240   17.9845    2.1030 C.3       3 GLC5        0.0000 
     54 CA         19.6970   17.5810    2.0470 C.3       9 GLL5        0.0000 
     55 CA         18.7540   16.2330    1.0495 C.3       3 GLC5        0.0000 
     56 CA         17.8110   14.8850    0.0520 C.3       6 GLP5        0.0000 
     57 CA         19.4725   18.1935    0.1135 C.3       3 GLC5        0.0000 
     58 CA         19.2480   18.8060   -1.8200 C.3       6 GLP5        0.0000 
     59 CA         19.9545   19.4185    2.0980 C.3       3 GLC5        0.0000 
     60 CA         20.2120   21.2560    2.1490 C.3       6 GLP5        0.0000 
     61 CA         21.2855   16.4455    1.8970 C.3       3 GLC5        0.0000 
     62 CA         22.8740   15.3100    1.7470 C.3       6 GLP5        0.0000 
     63 CA         21.1910   13.1760    6.2830 C.3       3 GLC5        0.0000 
     64 CA         20.3770   14.9170    6.8500 C.3       9 GLL5        0.0000 
     65 CA         22.0050   11.4350    5.7160 C.3       6 GLP5        0.0000 
     66 CA         18.6065   13.5445    6.7365 C.3       3 GLC5        0.0000 
     67 CA         19.7185   14.4185    8.4035 C.3       3 GLC5        0.0000 
     68 CA         19.0600   13.9200    9.9570 C.3       6 GLP5        0.0000 
     69 CA         19.8450   16.3365    7.9460 C.3       3 GLC5        0.0000 
     70 CA         19.3130   17.7560    9.0420 C.3       6 GLP5        0.0000 
     71 CA         18.2828   14.9895    2.0057 C.3       3 GLC5        0.0000 
     72 CA         23.8850   16.3028    5.0385 C.3       3 GLC5        0.0000 
     73 CA         25.5160   15.2530    4.6900 C.3       6 GLP5        0.0000 
     74 CA         22.5640   16.3313    3.5670 C.3       3 GLC5        0.0000 
     75 CA         23.4597   18.4558    3.0580 C.3       3 GLC5        0.0000 
     76 CA         21.7110   18.0230    3.7110 C.3       9 GLL5        0.0000 
     77 CA         24.8360   18.9810    1.8050 C.3       6 GLP5        0.0000 
     78 CA         21.6860   15.7713    3.4105 C.3       3 GLC5        0.0000 
     79 CA         20.1290   16.3200    4.5030 C.3       9 GLL5        0.0000 
     80 CA         13.0157   14.1588    2.1418 C.3       3 GLC5        0.0000 
     81 CA         12.7210   12.4780    3.1580 C.3       9 GLL5        0.0000 
     82 CA         10.3641   13.5548    1.4061 C.3       3 GLC5        0.0000 
     83 CA         10.3390   12.1550    2.6880 C.3       9 GLL5        0.0000 
     84 CA         10.2488   10.9860    3.8842 C.3       3 GLC5        0.0000 
     85 CA         10.7170   10.1640    5.4470 C.3       6 GLP5        0.0000 
     86 CA         10.1349   11.7715    4.6910 C.3       3 GLC5        0.0000 
     87 CA          9.9420   13.0810    3.6230 C.3       9 GLL5        0.0000 
     88 CA         11.4808   11.4657    4.4593 C.3       3 GLC5        0.0000 
     89 CA         17.3648   14.3615    1.7793 C.3       3 GLC5        0.0000 
     90 CA         16.9530   13.0459    5.0754 C.3       3 GLC5        0.0000 
     91 CA         20.6683   19.4495    2.8882 C.3       3 GLC5        0.0000 
     92 CA         20.5380   17.2630    3.5440 C.3       9 GLL5        0.0000 
     93 CA         21.9992   16.4765    2.6873 C.3       3 GLC5        0.0000 
@<TRIPOS>BOND
@<TRIPOS>SUBSTRUCTURE
     1 ALC1       32 GROUP        1 X    ALC  0     ROOT ALC X 1
     2 SEC2       41 GROUP        1 X    SEC  0     **** SEC X 2
     3 GLC5        1 GROUP        1 X    GLC  0     **** GLC X 6
     4 ALP1       34 GROUP        1 Y    ALP  0     ROOT ALP Y 8
     5 SEP2       43 GROUP        1 Y    SEP  0     **** SEP Y 9
     6 GLP5        3 GROUP        1 Y    GLP  0     **** GLP Y 13
     7 ALL1       33 GROUP        1 Z    ALL  0     ROOT ALL Z 15
     8 SEL2       42 GROUP        1 Z    SEL  0     **** SEL Z 16
     9 GLL5        2 GROUP        1 Z    GLL  0     **** GLL Z 20
@<TRIPOS>SET

