#    Name: 2hzi_JIN_1_ligand
#    Modification time : Tue Mar 25 17:14:36 2014

@<TRIPOS>MOLECULE
2hzi_JIN_1_ligand
   44    47     1     0     0
SMALL
NO_CHARGES


@<TRIPOS>ATOM
      1 C10        18.7180   14.5070    3.5840 C.2       1 JIN600      0.0000 
      2 C12        17.6050   16.1330    4.9300 C.2       1 JIN600      0.0000 
      3 C13        15.1530   16.0020    5.3110 C.3       1 JIN600      0.0000 
      4 C15        22.0520   16.8670    5.8630 C.ar      1 JIN600      0.0000 
      5 C16        22.4560   17.8380    4.9110 C.ar      1 JIN600      0.0000 
      6 C19        20.1290   16.3200    4.5030 C.ar      1 JIN600      0.0000 
      7 C20        20.8670   16.1450    5.6450 C.ar      1 JIN600      0.0000 
      8 C27        12.7210   12.4780    3.1580 C.ar      1 JIN600      0.0000 
      9 C30         9.9420   13.0810    3.6230 C.ar      1 JIN600      0.0000 
     10 C31        10.9270   13.7090    4.3430 C.ar      1 JIN600      0.0000 
     11 C34         9.2220   11.4610    1.9550 C.3       1 JIN600      0.0000 
     12 F35         8.6710   13.3630    3.8870 F         1 JIN600      0.0000 
     13 C29        10.3390   12.1550    2.6880 C.ar      1 JIN600      0.0000 
     14 C28        11.6930   11.7860    2.4860 C.ar      1 JIN600      0.0000 
     15 C26        12.2820   13.4030    4.1210 C.ar      1 JIN600      0.0000 
     16 N08        13.9880   12.0550    2.8670 N.pl3     1 JIN600      0.0000 
     17 C04        15.1360   12.7130    3.0870 C.ar      1 JIN600      0.0000 
     18 N03        16.1630   12.1260    2.5210 N.ar      1 JIN600      0.0000 
     19 C02        17.3840   12.6850    2.6400 C.ar      1 JIN600      0.0000 
     20 N05        15.1830   13.8300    3.8310 N.ar      1 JIN600      0.0000 
     21 C06        16.3920   14.4070    3.9860 C.ar      1 JIN600      0.0000 
     22 N11        16.4410   15.4940    4.7440 N.am      1 JIN600      0.0000 
     23 O14        17.5860   17.1530    5.6210 O.2       1 JIN600      0.0000 
     24 C09        18.7910   15.6810    4.3350 C.2       1 JIN600      0.0000 
     25 C01        17.5060   13.8530    3.4140 C.ar      1 JIN600      0.0000 
     26 C18        20.5380   17.2630    3.5440 C.ar      1 JIN600      0.0000 
     27 C17        21.7110   18.0230    3.7110 C.ar      1 JIN600      0.0000 
     28 CL4        19.6970   17.5810    2.0470 Cl        1 JIN600      0.0000 
     29 CL5        20.3770   14.9170    6.8500 Cl        1 JIN600      0.0000 
     30 H          19.5741   14.1250    3.1531 H         1 JIN600      0.0000 
     31 H          22.6172   16.7005    6.6903 H         1 JIN600      0.0000 
     32 H          23.2843   18.4083    5.0843 H         1 JIN600      0.0000 
     33 H          10.6870   14.4150    5.0578 H         1 JIN600      0.0000 
     34 H          11.9199   11.0181    1.8527 H         1 JIN600      0.0000 
     35 H          13.0024   13.8912    4.7052 H         1 JIN600      0.0000 
     36 H          14.0638   11.0697    2.4037 H         1 JIN600      0.0000 
     37 H          18.2126   12.2931    2.1922 H         1 JIN600      0.0000 
     38 H          22.0187   18.6753    3.0128 H         1 JIN600      0.0000 
     39 H          15.1851   16.0637    6.3086 H         1 JIN600      0.0000 
     40 H          14.9305   16.9146    4.9679 H         1 JIN600      0.0000 
     41 H          14.3843   15.4060    5.0788 H         1 JIN600      0.0000 
     42 H           9.5689   10.8033    1.2863 H         1 JIN600      0.0000 
     43 H           8.6249   10.9571    2.5792 H         1 JIN600      0.0000 
     44 H           8.6456   12.1089    1.4571 H         1 JIN600      0.0000 
@<TRIPOS>BOND
     1   24    1 2    
     2   25    1 1    
     3   30    1 1    
     4   22    2 am   
     5   23    2 2    
     6   24    2 1    
     7   22    3 1    
     8   39    3 1    
     9   40    3 1    
    10   41    3 1    
    11    5    4 ar   
    12    7    4 ar   
    13   31    4 1    
    14   27    5 ar   
    15   32    5 1    
    16    7    6 ar   
    17   24    6 1    
    18   26    6 ar   
    19   29    7 1    
    20   14    8 ar   
    21   15    8 ar   
    22   16    8 1    
    23   10    9 ar   
    24   12    9 1    
    25   13    9 ar   
    26   15   10 ar   
    27   33   10 1    
    28   13   11 1    
    29   42   11 1    
    30   43   11 1    
    31   44   11 1    
    32   14   13 ar   
    33   34   14 1    
    34   35   15 1    
    35   17   16 1    
    36   36   16 1    
    37   18   17 ar   
    38   20   17 ar   
    39   19   18 ar   
    40   25   19 ar   
    41   37   19 1    
    42   21   20 ar   
    43   22   21 1    
    44   25   21 ar   
    45   27   26 ar   
    46   28   26 1    
    47   38   27 1    
@<TRIPOS>SUBSTRUCTURE
     1 JIN600      1 GROUP   
@<TRIPOS>SET

