#    Name: 4k5o_1OT_1_INTS_M
#    Modification time : Tue Mar 25 06:58:35 2014

@<TRIPOS>MOLECULE
4k5o_1OT_1_INTS_M
   50     0    15     0     0
SMALL
NO_CHARGES


@<TRIPOS>ATOM
      1 Zn         11.8330   10.7845   10.0065 Zn        4 ZIC7        0.0000 
      2 Zn         12.2640   10.5840   10.9180 Zn       14 ZIL7        0.0000 
      3 Zn         11.4020   10.9850    9.0950 Zn        9 ZIP7        0.0000 
      4 N          11.7980    9.6350   11.6510 N.am      2 SEC2        0.0000 
      5 N          12.2640   10.5840   10.9180 N.am     12 SEL2        0.0000 
      6 N          11.3320    8.6860   12.3840 N.am      7 SEP2        0.0000 
      7 Zn         12.3305   11.8155    9.5735 Zn        4 ZIC7        0.0000 
      8 Zn         13.2590   12.6460   10.0520 Zn       14 ZIL7        0.0000 
      9 N          13.4355   13.8060    9.3415 N.am      2 SEC2        0.0000 
     10 N          13.2590   12.6460   10.0520 N.am     12 SEL2        0.0000 
     11 N          13.6120   14.9660    8.6310 N.am      7 SEP2        0.0000 
     12 OD1        10.0605   13.3230   12.9395 O.co2     3 ASC3        0.0000 
     13 OD1        10.7940   12.5890   12.1240 O.co2    13 ASL3        0.0000 
     14 OD1         9.3270   14.0570   13.7550 O.co2     8 ASP3        0.0000 
     15 OD1         9.2720   12.5845   13.1125 O.co2     3 ASC3        0.0000 
     16 OD1         7.7500   12.5800   14.1010 O.co2     8 ASP3        0.0000 
     17 OD1        10.8195   13.9520   11.3760 O.co2     3 ASC3        0.0000 
     18 OD1        10.8450   15.3150   10.6280 O.co2     8 ASP3        0.0000 
     19 OD1         9.7495   13.7430   11.1435 O.co2     3 ASC3        0.0000 
     20 OD1         8.7050   14.8970   10.1630 O.co2     8 ASP3        0.0000 
     21 OD1         9.9015   11.6405   11.4305 O.co2     3 ASC3        0.0000 
     22 OD1         9.0090   10.6920   10.7370 O.co2     8 ASP3        0.0000 
     23 O          10.0605   13.3230   12.9395 O.2       1 ALC1        0.0000 
     24 O          10.7940   12.5890   12.1240 O.2      11 ALL1        0.0000 
     25 O           9.3270   14.0570   13.7550 O.2       6 ALP1        0.0000 
     26 O          10.8195   13.9520   11.3760 O.2       1 ALC1        0.0000 
     27 O          10.8450   15.3150   10.6280 O.2       6 ALP1        0.0000 
     28 O           9.9015   11.6405   11.4305 O.2       1 ALC1        0.0000 
     29 O           9.0090   10.6920   10.7370 O.2       6 ALP1        0.0000 
     30 CA         10.7540    9.4010   21.2945 C.3       5 GLC5        0.0000 
     31 CA         11.4670   10.5970   19.7820 C.3      15 GLL5        0.0000 
     32 CA         10.0410    8.2050   22.8070 C.3      10 GLP5        0.0000 
     33 CA         12.7040   10.7175   21.2215 C.3       5 GLC5        0.0000 
     34 CA         13.9410   10.8380   22.6610 C.3      10 GLP5        0.0000 
     35 CA         11.2980    8.6820   17.4185 C.3       5 GLC5        0.0000 
     36 CA         11.4550   10.6400   18.4010 C.3      15 GLL5        0.0000 
     37 CA         11.1410    6.7240   16.4360 C.3      10 GLP5        0.0000 
     38 CA         11.9450   14.5430   13.4650 C.3       5 GLC5        0.0000 
     39 CA         12.4180   12.6540   13.9250 C.3      15 GLL5        0.0000 
     40 CA         11.5710   16.3260   13.7330 C.3      10 GLP5        0.0000 
     41 CA          9.9642   12.7468   15.5263 C.3       5 GLC5        0.0000 
     42 CA         11.6870   11.6240   14.4540 C.3      15 GLL5        0.0000 
     43 CA          8.2560   14.0010   15.9230 C.3      10 GLP5        0.0000 
     44 CA         12.3453   14.8128   14.6100 C.3       5 GLC5        0.0000 
     45 CA         13.1050   13.1360   16.1670 C.3      15 GLL5        0.0000 
     46 CA         11.0865   14.0535   15.9904 C.3       5 GLC5        0.0000 
     47 CA         13.1340   13.4630   14.8070 C.3      15 GLL5        0.0000 
     48 CA          9.2350   15.0760   16.3510 C.3      10 GLP5        0.0000 
     49 CA         14.7470   12.4500   15.5784 C.3       5 GLC5        0.0000 
     50 CA         16.5560   11.8690   15.5270 C.3      10 GLP5        0.0000 
@<TRIPOS>BOND
@<TRIPOS>SUBSTRUCTURE
     1 ALC1       23 GROUP        1 X    ALC  0     ROOT ALC X 1
     2 SEC2        4 GROUP        1 X    SEC  0     **** SEC X 2
     3 ASC3       12 GROUP        1 X    ASC  0     **** ASC X 3
     4 ZIC7        1 GROUP        1 X    ZIC  0     **** ZIC X 5
     5 GLC5       30 GROUP        1 X    GLC  0     **** GLC X 6
     6 ALP1       25 GROUP        1 Y    ALP  0     ROOT ALP Y 8
     7 SEP2        6 GROUP        1 Y    SEP  0     **** SEP Y 9
     8 ASP3       14 GROUP        1 Y    ASP  0     **** ASP Y 10
     9 ZIP7        3 GROUP        1 Y    ZIP  0     **** ZIP Y 12
    10 GLP5       32 GROUP        1 Y    GLP  0     **** GLP Y 13
    11 ALL1       24 GROUP        1 Z    ALL  0     ROOT ALL Z 15
    12 SEL2        5 GROUP        1 Z    SEL  0     **** SEL Z 16
    13 ASL3       13 GROUP        1 Z    ASL  0     **** ASL Z 17
    14 ZIL7        2 GROUP        1 Z    ZIL  0     **** ZIL Z 19
    15 GLL5       31 GROUP        1 Z    GLL  0     **** GLL Z 20
@<TRIPOS>SET

