#    Name: 4k5o_1OT_1_ligand
#    Modification time : Tue Mar 25 06:58:36 2014

@<TRIPOS>MOLECULE
4k5o_1OT_1_ligand
   28    29     1     0     0
SMALL
NO_CHARGES


@<TRIPOS>ATOM
      1 O1         12.2640   10.5840   10.9180 O.co2     1 1OT1106     0.0000 
      2 P          13.1540   11.7860   11.4150 P.3       1 1OT1106     0.0000 
      3 O2         14.6180   11.6250   12.0770 O.co2     1 1OT1106     0.0000 
      4 O3         13.2590   12.6460   10.0520 O.co2     1 1OT1106     0.0000 
      5 C1         12.2200   12.8660   12.4690 C.3       1 1OT1106     0.0000 
      6 N1         10.7940   12.5890   12.1240 N.4       1 1OT1106     0.0000 
      7 C2         12.4180   12.6540   13.9250 C.ar      1 1OT1106     0.0000 
      8 C10        11.6870   11.6240   14.4540 C.ar      1 1OT1106     0.0000 
      9 C9         11.6580   11.3610   15.8050 C.ar      1 1OT1106     0.0000 
     10 C5         12.3790   12.0620   16.7380 C.ar      1 1OT1106     0.0000 
     11 C4         13.1050   13.1360   16.1670 C.ar      1 1OT1106     0.0000 
     12 C3         13.1340   13.4630   14.8070 C.ar      1 1OT1106     0.0000 
     13 N2         12.2390   11.6750   18.0520 N.pl3     1 1OT1106     0.0000 
     14 N3         12.7130   12.3920   19.1620 N.2       1 1OT1106     0.0000 
     15 C8         12.2350   11.6870   20.2240 C.2       1 1OT1106     0.0000 
     16 C7         11.4670   10.5970   19.7820 C.2       1 1OT1106     0.0000 
     17 C6         11.4550   10.6400   18.4010 C.2       1 1OT1106     0.0000 
     18 H          12.4944   13.8334   12.1333 H         1 1OT1106     0.0000 
     19 H          11.1282   11.0118   13.8095 H         1 1OT1106     0.0000 
     20 H          11.0396   10.5673   16.1432 H         1 1OT1106     0.0000 
     21 H          13.6720   13.7388   16.8319 H         1 1OT1106     0.0000 
     22 H          13.6588   14.2621   14.4757 H         1 1OT1106     0.0000 
     23 H          12.3883   11.8877   21.1561 H         1 1OT1106     0.0000 
     24 H          11.0450    9.9634   20.3342 H         1 1OT1106     0.0000 
     25 H          10.9819   10.0485   17.8341 H         1 1OT1106     0.0000 
     26 H          10.5171   13.0578   11.2853 H         1 1OT1106     0.0000 
     27 H          10.6290   11.6129   11.9824 H         1 1OT1106     0.0000 
     28 H          10.1719   12.8896   12.8469 H         1 1OT1106     0.0000 
@<TRIPOS>BOND
     1    2    1 ar   
     2    3    2 ar   
     3    4    2 ar   
     4    5    2 1    
     5    6    5 1    
     6    7    5 1    
     7   18    5 1    
     8   26    6 1    
     9   27    6 1    
    10   28    6 1    
    11    8    7 ar   
    12   12    7 ar   
    13    9    8 ar   
    14   19    8 1    
    15   10    9 ar   
    16   20    9 1    
    17   11   10 ar   
    18   13   10 1    
    19   12   11 ar   
    20   21   11 1    
    21   22   12 1    
    22   14   13 1    
    23   17   13 1    
    24   15   14 2    
    25   16   15 1    
    26   23   15 1    
    27   17   16 2    
    28   24   16 1    
    29   25   17 1    
@<TRIPOS>SUBSTRUCTURE
     1 1OT1106     1 GROUP   
@<TRIPOS>SET

