#    Name: 3a9e_REA_2_INTS_M
#    Modification time : Tue Mar 25 11:38:45 2014

@<TRIPOS>MOLECULE
3a9e_REA_2_INTS_M
   88     0     6     0     0
SMALL
NO_CHARGES


@<TRIPOS>ATOM
      1 CA         39.5560   48.6435   18.3120 C.3       2 GLC5        0.0000 
      2 CA         37.5830   47.7320   18.3770 C.3       6 GLL5        0.0000 
      3 CA         41.5290   49.5550   18.2470 C.3       4 GLP5        0.0000 
      4 CA         37.1485   45.3335   20.8095 C.3       2 GLC5        0.0000 
      5 CA         37.0420   46.5190   19.1190 C.3       6 GLL5        0.0000 
      6 CA         37.2550   44.1480   22.5000 C.3       4 GLP5        0.0000 
      7 CA         34.5580   44.6795   17.8485 C.3       2 GLC5        0.0000 
      8 CA         35.5470   46.3510   18.8860 C.3       6 GLL5        0.0000 
      9 CA         33.5690   43.0080   16.8110 C.3       4 GLP5        0.0000 
     10 CA         32.5690   49.9285   22.3750 C.3       2 GLC5        0.0000 
     11 CA         31.3420   50.6730   20.6770 C.3       6 GLL5        0.0000 
     12 CA         33.7960   49.1840   24.0730 C.3       4 GLP5        0.0000 
     13 CA         30.5635   50.1130   19.1445 C.3       2 GLC5        0.0000 
     14 CA         29.7850   49.5530   17.6120 C.3       4 GLP5        0.0000 
     15 CA         30.0445   51.7295   19.7130 C.3       2 GLC5        0.0000 
     16 CA         30.4990   51.4160   21.6210 C.3       6 GLL5        0.0000 
     17 CA         29.5900   52.0430   17.8050 C.3       4 GLP5        0.0000 
     18 CA         30.4185   53.4720   22.2680 C.3       2 GLC5        0.0000 
     19 CA         30.3380   55.5280   22.9150 C.3       4 GLP5        0.0000 
     20 CA         29.6095   48.4170   22.3440 C.3       2 GLC5        0.0000 
     21 CA         29.7410   50.6240   22.5960 C.3       6 GLL5        0.0000 
     22 CA         29.4780   46.2100   22.0920 C.3       4 GLP5        0.0000 
     23 CA         27.7770   49.7340   22.0410 C.3       2 GLC5        0.0000 
     24 CA         25.8130   48.8440   21.4860 C.3       4 GLP5        0.0000 
     25 CA         30.5720   50.9800   24.4100 C.3       2 GLC5        0.0000 
     26 CA         31.4030   51.3360   26.2240 C.3       4 GLP5        0.0000 
     27 CA         28.2300   48.4825   25.2810 C.3       2 GLC5        0.0000 
     28 CA         27.7810   50.2450   24.0430 C.3       6 GLL5        0.0000 
     29 CA         28.6790   46.7200   26.5190 C.3       4 GLP5        0.0000 
     30 CA         26.7970   49.5445   22.7645 C.3       2 GLC5        0.0000 
     31 CA         38.5960   51.9000   17.6395 C.3       2 GLC5        0.0000 
     32 CA         37.4020   50.2120   18.1260 C.3       6 GLL5        0.0000 
     33 CA         39.7900   53.5880   17.1530 C.3       4 GLP5        0.0000 
     34 CA         37.9960   51.1265   16.2680 C.3       2 GLC5        0.0000 
     35 CA         38.5900   52.0410   14.4100 C.3       4 GLP5        0.0000 
     36 CA         39.4655   49.8835   18.1865 C.3       2 GLC5        0.0000 
     37 CA         36.4540   48.4230   21.8310 C.3       2 GLC5        0.0000 
     38 CA         37.4560   49.1810   20.4030 C.3       6 GLL5        0.0000 
     39 CA         35.4520   47.6650   23.2590 C.3       4 GLP5        0.0000 
     40 CA         38.7445   50.3495   21.4995 C.3       2 GLC5        0.0000 
     41 CA         40.0330   51.5180   22.5960 C.3       4 GLP5        0.0000 
     42 CA         38.7965   47.5215   20.5385 C.3       2 GLC5        0.0000 
     43 CA         40.1370   45.8620   20.6740 C.3       4 GLP5        0.0000 
     44 CA         32.1395   46.8660   20.0795 C.3       2 GLC5        0.0000 
     45 CA         33.3470   47.6560   18.5250 C.3       6 GLL5        0.0000 
     46 CA         30.9320   46.0760   21.6340 C.3       4 GLP5        0.0000 
     47 CA         33.4090   48.9955   16.8860 C.3       2 GLC5        0.0000 
     48 CA         33.4710   50.3350   15.2470 C.3       4 GLP5        0.0000 
     49 CA         31.5660   48.6045   18.0685 C.3       2 GLC5        0.0000 
     50 CA         33.6055   46.9640   16.5015 C.3       2 GLC5        0.0000 
     51 CA         33.8640   46.2720   14.4780 C.3       4 GLP5        0.0000 
     52 CA         33.0380   54.0055   18.3505 C.3       2 GLC5        0.0000 
     53 CA         32.7860   52.6050   19.7600 C.3       6 GLL5        0.0000 
     54 CA         33.2900   55.4060   16.9410 C.3       4 GLP5        0.0000 
     55 CA         32.0560   54.3045   20.8110 C.3       2 GLC5        0.0000 
     56 CA         31.3260   56.0040   21.8620 C.3       4 GLP5        0.0000 
     57 CA         34.2800   52.9960   21.0360 C.3       2 GLC5        0.0000 
     58 CA         35.7740   53.3870   22.3120 C.3       4 GLP5        0.0000 
     59 CA         26.1345   53.5265   23.0530 C.3       2 GLC5        0.0000 
     60 CA         28.0750   52.5450   22.9860 C.3       6 GLL5        0.0000 
     61 CA         24.1940   54.5080   23.1200 C.3       4 GLP5        0.0000 
     62 CA         29.2065   54.0365   22.9505 C.3       2 GLC5        0.0000 
     63 N          25.9480   50.6665   27.0095 N.am      1 SEC2        0.0000 
     64 N          26.4630   50.0200   25.9770 N.am      5 SEL2        0.0000 
     65 N          25.4330   51.3130   28.0420 N.am      3 SEP2        0.0000 
     66 N          25.7165   51.4975   26.3670 N.am      1 SEC2        0.0000 
     67 N          26.0000   51.6820   24.6920 N.am      5 SEL2        0.0000 
     68 N          24.7585   51.4800   25.2430 N.am      1 SEC2        0.0000 
     69 N          23.5170   51.2780   25.7940 N.am      3 SEP2        0.0000 
     70 CA         38.7248   46.4937   19.7110 C.3       2 GLC5        0.0000 
     71 CA         36.9329   46.6236   16.9520 C.3       2 GLC5        0.0000 
     72 CA         37.4360   46.5090   15.0870 C.3       4 GLP5        0.0000 
     73 CA         34.8975   48.5295   20.9703 C.3       2 GLC5        0.0000 
     74 CA         34.8240   47.6770   18.7970 C.3       6 GLL5        0.0000 
     75 CA         34.6450   48.7690   23.0670 C.3       4 GLP5        0.0000 
     76 CA         34.2762   49.9275   17.1367 C.3       2 GLC5        0.0000 
     77 CA         35.4760   48.9030   18.9500 C.3       6 GLL5        0.0000 
     78 CA         34.1575   51.6672   21.7340 C.3       2 GLC5        0.0000 
     79 CA         33.7930   50.2800   20.2590 C.3       6 GLL5        0.0000 
     80 CA         35.0980   52.6000   23.2230 C.3       4 GLP5        0.0000 
     81 CA         34.0427   49.7339   21.5115 C.3       2 GLC5        0.0000 
     82 CA         32.6410   51.1890   20.2310 C.3       6 GLL5        0.0000 
     83 CA         31.1517   51.9700   18.9002 C.3       2 GLC5        0.0000 
     84 CA         26.8392   51.1887   22.0605 C.3       2 GLC5        0.0000 
     85 CA         28.5160   51.1300   23.2240 C.3       6 GLL5        0.0000 
     86 CA         25.3830   50.5400   21.0160 C.3       4 GLP5        0.0000 
     87 CA         29.1034   51.4051   24.9799 C.3       2 GLC5        0.0000 
     88 CA         30.0950   51.1940   26.6500 C.3       4 GLP5        0.0000 
@<TRIPOS>BOND
@<TRIPOS>SUBSTRUCTURE
     1 SEC2       63 GROUP        1 X    SEC  0     ROOT SEC X 2
     2 GLC5        1 GROUP        1 X    GLC  0     **** GLC X 6
     3 SEP2       65 GROUP        1 Y    SEP  0     ROOT SEP Y 9
     4 GLP5        3 GROUP        1 Y    GLP  0     **** GLP Y 13
     5 SEL2       64 GROUP        1 Z    SEL  0     ROOT SEL Z 16
     6 GLL5        2 GROUP        1 Z    GLL  0     **** GLL Z 20
@<TRIPOS>SET

