#    Name: 3a9e_REA_2_ligand
#    Modification time : Tue Mar 25 11:38:45 2014

@<TRIPOS>MOLECULE
3a9e_REA_2_ligand
   49    49     1     0     0
SMALL
NO_CHARGES


@<TRIPOS>ATOM
      1 C1         36.9920   49.0050   18.9620 C.3       1 REA1        0.0000 
      2 C2         37.5830   47.7320   18.3770 C.3       1 REA1        0.0000 
      3 C3         37.0420   46.5190   19.1190 C.3       1 REA1        0.0000 
      4 C4         35.5470   46.3510   18.8860 C.3       1 REA1        0.0000 
      5 C5         34.8240   47.6770   18.7970 C.2       1 REA1        0.0000 
      6 C6         35.4760   48.9030   18.9500 C.2       1 REA1        0.0000 
      7 C7         34.6870   50.1370   19.1030 C.2       1 REA1        0.0000 
      8 C8         33.7930   50.2800   20.2590 C.2       1 REA1        0.0000 
      9 C9         32.6410   51.1890   20.2310 C.2       1 REA1        0.0000 
     10 C10        31.3420   50.6730   20.6770 C.2       1 REA1        0.0000 
     11 C11        30.4990   51.4160   21.6210 C.2       1 REA1        0.0000 
     12 C12        29.7410   50.6240   22.5960 C.2       1 REA1        0.0000 
     13 C13        28.5160   51.1300   23.2240 C.2       1 REA1        0.0000 
     14 C14        27.7810   50.2450   24.0430 C.2       1 REA1        0.0000 
     15 C15        26.7010   50.6780   24.9420 C.2       1 REA1        0.0000 
     16 C16        37.4020   50.2120   18.1260 C.3       1 REA1        0.0000 
     17 C17        37.4560   49.1810   20.4030 C.3       1 REA1        0.0000 
     18 C18        33.3470   47.6560   18.5250 C.3       1 REA1        0.0000 
     19 C19        32.7860   52.6050   19.7600 C.3       1 REA1        0.0000 
     20 C20        28.0750   52.5450   22.9860 C.3       1 REA1        0.0000 
     21 O1         26.4630   50.0200   25.9770 O.co2     1 REA1        0.0000 
     22 O2         26.0000   51.6820   24.6920 O.co2     1 REA1        0.0000 
     23 H          38.6652   47.7595   18.4715 H         1 REA1        0.0000 
     24 H          37.3170   47.6600   17.3259 H         1 REA1        0.0000 
     25 H          37.2285   46.6376   20.1883 H         1 REA1        0.0000 
     26 H          37.5629   45.6235   18.7742 H         1 REA1        0.0000 
     27 H          35.1219   45.7591   19.7071 H         1 REA1        0.0000 
     28 H          35.3915   45.7886   17.9560 H         1 REA1        0.0000 
     29 H          34.7604   50.8664   18.4279 H         1 REA1        0.0000 
     30 H          33.9760   49.7380   21.0961 H         1 REA1        0.0000 
     31 H          31.0174   49.7781   20.3232 H         1 REA1        0.0000 
     32 H          30.4452   52.3936   21.6009 H         1 REA1        0.0000 
     33 H          30.0755   49.6954   22.8439 H         1 REA1        0.0000 
     34 H          27.9967   49.2303   24.0265 H         1 REA1        0.0000 
     35 H          38.3954   50.3225   18.0955 H         1 REA1        0.0000 
     36 H          37.0867   50.1331   17.1803 H         1 REA1        0.0000 
     37 H          37.0235   51.0625   18.4912 H         1 REA1        0.0000 
     38 H          38.4519   49.2442   20.4674 H         1 REA1        0.0000 
     39 H          37.0823   50.0122   20.8146 H         1 REA1        0.0000 
     40 H          37.1730   48.4152   20.9805 H         1 REA1        0.0000 
     41 H          33.1358   47.2098   17.6553 H         1 REA1        0.0000 
     42 H          32.8453   47.1638   19.2364 H         1 REA1        0.0000 
     43 H          32.9642   48.5788   18.4815 H         1 REA1        0.0000 
     44 H          33.4382   53.1173   20.3187 H         1 REA1        0.0000 
     45 H          33.1102   52.6507   18.8151 H         1 REA1        0.0000 
     46 H          31.9174   53.0992   19.7961 H         1 REA1        0.0000 
     47 H          28.7608   53.2045   23.2937 H         1 REA1        0.0000 
     48 H          27.9102   52.7245   22.0161 H         1 REA1        0.0000 
     49 H          27.2267   52.7563   23.4715 H         1 REA1        0.0000 
@<TRIPOS>BOND
     1    2    1 1    
     2    6    1 1    
     3   16    1 1    
     4   17    1 1    
     5    3    2 1    
     6   23    2 1    
     7   24    2 1    
     8    4    3 1    
     9   25    3 1    
    10   26    3 1    
    11    5    4 1    
    12   27    4 1    
    13   28    4 1    
    14    6    5 2    
    15   18    5 1    
    16    7    6 1    
    17    8    7 2    
    18   29    7 1    
    19    9    8 1    
    20   30    8 1    
    21   10    9 2    
    22   19    9 1    
    23   11   10 1    
    24   31   10 1    
    25   12   11 2    
    26   32   11 1    
    27   13   12 1    
    28   33   12 1    
    29   14   13 2    
    30   20   13 1    
    31   15   14 1    
    32   34   14 1    
    33   21   15 ar   
    34   22   15 ar   
    35   35   16 1    
    36   36   16 1    
    37   37   16 1    
    38   38   17 1    
    39   39   17 1    
    40   40   17 1    
    41   41   18 1    
    42   42   18 1    
    43   43   18 1    
    44   44   19 1    
    45   45   19 1    
    46   46   19 1    
    47   47   20 1    
    48   48   20 1    
    49   49   20 1    
@<TRIPOS>SUBSTRUCTURE
     1 REA1        1 GROUP   
@<TRIPOS>SET

