#    Name: 4jva_1OR_2_INTS_M
#    Modification time : Tue Mar 25 06:33:44 2014

@<TRIPOS>MOLECULE
4jva_1OR_2_INTS_M
   63     0     9     0     0
SMALL
NO_CHARGES


@<TRIPOS>ATOM
      1 NZ          0.7275   23.1605  -12.9245 N.4       2 LYC4        0.0000 
      2 NZ          1.4450   22.7290  -13.9180 N.4       8 LYL4        0.0000 
      3 NZ          0.0020   24.6330  -11.1100 N.4       5 LYP4        0.0000 
      4 N           2.0900   21.3290  -13.7520 N.am      1 SEC2        0.0000 
      5 N           1.4450   22.7290  -13.9180 N.am      7 SEL2        0.0000 
      6 N           2.7350   19.9290  -13.5860 N.am      4 SEP2        0.0000 
      7 N           0.7275   23.1605  -12.9245 N.am      1 SEC2        0.0000 
      8 N           0.0100   23.5920  -11.9310 N.am      4 SEP2        0.0000 
      9 N           3.7945   24.0030  -15.9345 N.am      1 SEC2        0.0000 
     10 N           2.8180   23.0170  -15.8940 N.am      7 SEL2        0.0000 
     11 N           4.7710   24.9890  -15.9750 N.am      4 SEP2        0.0000 
     12 CA          1.3420   25.8905  -18.3650 C.3       3 GLC5        0.0000 
     13 CA          0.4970   24.9280  -16.9740 C.3       9 GLL5        0.0000 
     14 CA          2.1870   26.8530  -19.7560 C.3       6 GLP5        0.0000 
     15 N           0.4030   20.4980  -15.5610 N.am      1 SEC2        0.0000 
     16 N           0.4390   22.0620  -16.2390 N.am      7 SEL2        0.0000 
     17 N           0.3670   18.9340  -14.8830 N.am      4 SEP2        0.0000 
     18 CA         -2.8580   21.8130  -17.5180 C.3       3 GLC5        0.0000 
     19 CA         -0.8360   21.8310  -18.4860 C.3       9 GLL5        0.0000 
     20 CA         -4.8800   21.7950  -16.5500 C.3       6 GLP5        0.0000 
     21 N          -2.4545   21.8065  -16.5950 N.am      1 SEC2        0.0000 
     22 N          -2.0340   21.3300  -17.9320 N.am      7 SEL2        0.0000 
     23 N          -2.8750   22.2830  -15.2580 N.am      4 SEP2        0.0000 
     24 N          -2.4790   20.2460  -17.1685 N.am      1 SEC2        0.0000 
     25 N          -2.9240   19.1620  -16.4050 N.am      4 SEP2        0.0000 
     26 N          -1.8645   20.0265  -19.0860 N.am      1 SEC2        0.0000 
     27 N          -1.6950   18.7230  -20.2400 N.am      4 SEP2        0.0000 
     28 CA         -1.2335   24.7370  -20.3910 C.3       3 GLC5        0.0000 
     29 CA         -1.1660   22.9160  -19.5110 C.3       9 GLL5        0.0000 
     30 CA         -1.3010   26.5580  -21.2710 C.3       6 GLP5        0.0000 
     31 CA         -3.0810   23.0055  -18.4315 C.3       3 GLC5        0.0000 
     32 CA         -4.9960   23.0950  -17.3520 C.3       6 GLP5        0.0000 
     33 CA          2.5350   24.0960  -22.4465 C.3       3 GLC5        0.0000 
     34 CA          3.2230   22.4950  -21.2090 C.3       9 GLL5        0.0000 
     35 CA          1.8470   25.6970  -23.6840 C.3       6 GLP5        0.0000 
     36 CA          3.4020   21.2710  -19.8255 C.3       3 GLC5        0.0000 
     37 CA          3.5810   20.0470  -18.4420 C.3       6 GLP5        0.0000 
     38 CA          4.2705   23.0250  -19.5380 C.3       3 GLC5        0.0000 
     39 CA          5.3180   23.5550  -17.8670 C.3       6 GLP5        0.0000 
     40 CA          2.5640   20.2985  -23.3140 C.3       3 GLC5        0.0000 
     41 CA          2.0640   22.2020  -23.2880 C.3       9 GLL5        0.0000 
     42 CA          3.0640   18.3950  -23.3400 C.3       6 GLP5        0.0000 
     43 CA          2.0265   19.7155  -25.0855 C.3       3 GLC5        0.0000 
     44 CA          1.2020   21.0720  -25.3160 C.3       9 GLL5        0.0000 
     45 CA          2.8510   18.3590  -24.8550 C.3       6 GLP5        0.0000 
     46 CA          4.1005   24.5460  -24.5200 C.3       3 GLC5        0.0000 
     47 CA          3.0390   22.7960  -25.4530 C.3       9 GLL5        0.0000 
     48 CA          5.1620   26.2960  -23.5870 C.3       6 GLP5        0.0000 
     49 CA          2.4430   24.2465  -24.5685 C.3       3 GLC5        0.0000 
     50 CA          5.3980   24.5005  -24.4525 C.3       3 GLC5        0.0000 
     51 CA          5.6340   22.7050  -25.3180 C.3       9 GLL5        0.0000 
     52 CA         -0.7137   25.6378  -15.8700 C.3       3 GLC5        0.0000 
     53 CA         -1.4370   26.8400  -14.4670 C.3       6 GLP5        0.0000 
     54 CA         -1.1532   22.8687  -15.7955 C.3       3 GLC5        0.0000 
     55 CA         -0.4780   23.9430  -17.5720 C.3       9 GLL5        0.0000 
     56 CA         -2.1260   22.4940  -14.0340 C.3       6 GLP5        0.0000 
     57 CA          0.8732   20.7912  -17.2815 C.3       3 GLC5        0.0000 
     58 CA          0.1170   22.5440  -17.5420 C.3       9 GLL5        0.0000 
     59 CA          2.1060   19.3950  -16.5490 C.3       6 GLP5        0.0000 
     60 CA         -0.1685   20.7272  -19.7272 C.3       3 GLC5        0.0000 
     61 CA          0.6640   19.0810  -20.4560 C.3       6 GLP5        0.0000 
     62 CA          1.6433   24.0128  -23.1337 C.3       3 GLC5        0.0000 
     63 CA          3.2708   20.3725  -25.2188 C.3       3 GLC5        0.0000 
@<TRIPOS>BOND
@<TRIPOS>SUBSTRUCTURE
     1 SEC2        4 GROUP        1 X    SEC  0     ROOT SEC X 2
     2 LYC4        1 GROUP        1 X    LYC  0     **** LYC X 4
     3 GLC5       12 GROUP        1 X    GLC  0     **** GLC X 6
     4 SEP2        6 GROUP        1 Y    SEP  0     ROOT SEP Y 9
     5 LYP4        3 GROUP        1 Y    LYP  0     **** LYP Y 11
     6 GLP5       14 GROUP        1 Y    GLP  0     **** GLP Y 13
     7 SEL2        5 GROUP        1 Z    SEL  0     ROOT SEL Z 16
     8 LYL4        2 GROUP        1 Z    LYL  0     **** LYL Z 18
     9 GLL5       13 GROUP        1 Z    GLL  0     **** GLL Z 20
@<TRIPOS>SET

