#    Name: 4jva_1OR_2_ligand
#    Modification time : Tue Mar 25 06:33:44 2014

@<TRIPOS>MOLECULE
4jva_1OR_2_ligand
   51    54     1     0     0
SMALL
NO_CHARGES


@<TRIPOS>ATOM
      1 P           1.4180   22.9980  -15.3830 P.3       1 1OR502      0.0000 
      2 O1P         1.4450   22.7290  -13.9180 O.co2     1 1OR502      0.0000 
      3 O2P         2.8180   23.0170  -15.8940 O.co2     1 1OR502      0.0000 
      4 C5'         0.4970   24.9280  -16.9740 C.3       1 1OR502      0.0000 
      5 O5'         0.6930   24.3860  -15.6750 O.3       1 1OR502      0.0000 
      6 C4'        -0.4780   23.9430  -17.5720 C.3       1 1OR502      0.0000 
      7 O4'        -0.8690   24.2160  -18.9350 O.3       1 1OR502      0.0000 
      8 C3'         0.1170   22.5440  -17.5420 C.3       1 1OR502      0.0000 
      9 O3'         0.4390   22.0620  -16.2390 O.3       1 1OR502      0.0000 
     10 C2'        -0.8360   21.8310  -18.4860 C.3       1 1OR502      0.0000 
     11 O2'        -2.0340   21.3300  -17.9320 O.3       1 1OR502      0.0000 
     12 C1'        -1.1660   22.9160  -19.5110 C.3       1 1OR502      0.0000 
     13 N1          3.2320   22.2870  -22.5510 N.ar      1 1OR502      0.0000 
     14 C2          3.2230   22.4950  -21.2090 C.ar      1 1OR502      0.0000 
     15 N3          2.0670   22.6330  -20.5450 N.ar      1 1OR502      0.0000 
     16 C4          0.8150   22.5680  -21.1670 C.ar      1 1OR502      0.0000 
     17 C5          0.8150   22.3420  -22.5910 C.ar      1 1OR502      0.0000 
     18 C6          2.0640   22.2020  -23.2880 C.ar      1 1OR502      0.0000 
     19 N7         -0.5230   22.3160  -22.9750 N.2       1 1OR502      0.0000 
     20 C8         -1.2790   22.5090  -21.9190 C.2       1 1OR502      0.0000 
     21 N9         -0.5040   22.6710  -20.7930 N.pl3     1 1OR502      0.0000 
     22 N6          2.1030   22.0100  -24.6260 N.3       1 1OR502      0.0000 
     23 C26         1.2020   21.0720  -25.3160 C.3       1 1OR502      0.0000 
     24 C27         0.1360   21.7280  -26.1720 C.3       1 1OR502      0.0000 
     25 C28        -0.6410   20.5770  -26.7570 C.3       1 1OR502      0.0000 
     26 C23         3.0390   22.7960  -25.4530 C.3       1 1OR502      0.0000 
     27 C24         4.3420   21.9760  -25.7120 C.3       1 1OR502      0.0000 
     28 C25         5.6340   22.7050  -25.3180 C.3       1 1OR502      0.0000 
     29 H           1.3914   24.9222  -17.5566 H         1 1OR502      0.0000 
     30 H           0.0387   25.8917  -16.9480 H         1 1OR502      0.0000 
     31 H          -1.3709   23.9070  -16.9302 H         1 1OR502      0.0000 
     32 H           1.0696   22.6793  -18.1666 H         1 1OR502      0.0000 
     33 H          -0.2671   21.0828  -19.0265 H         1 1OR502      0.0000 
     34 H          -2.2699   22.8503  -19.6650 H         1 1OR502      0.0000 
     35 H           4.1335   22.5469  -20.6945 H         1 1OR502      0.0000 
     36 H          -2.2599   22.5395  -21.8983 H         1 1OR502      0.0000 
     37 H           0.6953   20.4164  -24.5723 H         1 1OR502      0.0000 
     38 H           1.7929   20.3852  -25.9631 H         1 1OR502      0.0000 
     39 H           0.5967   22.2933  -26.9507 H         1 1OR502      0.0000 
     40 H          -0.5001   22.3265  -25.5594 H         1 1OR502      0.0000 
     41 H           3.3233   23.7196  -24.9531 H         1 1OR502      0.0000 
     42 H           2.6015   23.0359  -26.4199 H         1 1OR502      0.0000 
     43 H           4.3810   21.7209  -26.7806 H         1 1OR502      0.0000 
     44 H           4.2722   21.0332  -25.1511 H         1 1OR502      0.0000 
     45 H          -0.0599   19.9792  -27.3092 H         1 1OR502      0.0000 
     46 H          -1.0545   20.0084  -26.0458 H         1 1OR502      0.0000 
     47 H          -1.3831   20.8924  -27.3485 H         1 1OR502      0.0000 
     48 H           6.4448   22.1492  -25.5017 H         1 1OR502      0.0000 
     49 H           5.7455   23.5616  -25.8218 H         1 1OR502      0.0000 
     50 H           5.6495   22.9333  -24.3445 H         1 1OR502      0.0000 
     51 H          -2.7590   21.8871  -18.3368 H         1 1OR502      0.0000 
@<TRIPOS>BOND
     1    2    1 ar   
     2    3    1 ar   
     3    5    1 1    
     4    9    1 1    
     5    5    4 1    
     6    6    4 1    
     7   29    4 1    
     8   30    4 1    
     9    7    6 1    
    10    8    6 1    
    11   31    6 1    
    12   12    7 1    
    13    9    8 1    
    14   10    8 1    
    15   32    8 1    
    16   11   10 1    
    17   12   10 1    
    18   33   10 1    
    19   51   11 1    
    20   21   12 1    
    21   34   12 1    
    22   14   13 ar   
    23   18   13 ar   
    24   15   14 ar   
    25   35   14 1    
    26   16   15 ar   
    27   17   16 ar   
    28   21   16 1    
    29   18   17 ar   
    30   19   17 1    
    31   22   18 1    
    32   20   19 2    
    33   21   20 1    
    34   36   20 1    
    35   23   22 1    
    36   26   22 1    
    37   24   23 1    
    38   37   23 1    
    39   38   23 1    
    40   25   24 1    
    41   39   24 1    
    42   40   24 1    
    43   45   25 1    
    44   46   25 1    
    45   47   25 1    
    46   27   26 1    
    47   41   26 1    
    48   42   26 1    
    49   28   27 1    
    50   43   27 1    
    51   44   27 1    
    52   48   28 1    
    53   49   28 1    
    54   50   28 1    
@<TRIPOS>SUBSTRUCTURE
     1 1OR502      1 GROUP   
@<TRIPOS>SET

