#    Name: 3inr_GDU_2_INTS_M
#    Modification time : Tue Mar 25 16:57:03 2014

@<TRIPOS>MOLECULE
3inr_GDU_2_INTS_M
   54     0     9     0     0
SMALL
NO_CHARGES


@<TRIPOS>ATOM
      1 O         -20.6655  -51.4140    6.3465 O.2       1 ALC1        0.0000 
      2 O         -19.6120  -52.1440    5.7360 O.2       7 ALL1        0.0000 
      3 O         -21.7190  -50.6840    6.9570 O.2       4 ALP1        0.0000 
      4 CA        -15.4620  -53.3495    6.4555 C.3       3 GLC5        0.0000 
      5 CA        -17.2240  -53.2950    5.1060 C.3       9 GLL5        0.0000 
      6 CA        -13.7000  -53.4040    7.8050 C.3       6 GLP5        0.0000 
      7 N         -20.7755  -55.3035    7.2505 N.am      2 SEC2        0.0000 
      8 N         -20.0260  -53.8560    7.1060 N.am      8 SEL2        0.0000 
      9 N         -21.5250  -56.7510    7.3950 N.am      5 SEP2        0.0000 
     10 N         -18.5985  -50.1280    2.8005 N.am      2 SEC2        0.0000 
     11 N         -19.2350  -50.4400    4.3230 N.am      8 SEL2        0.0000 
     12 N         -17.9620  -49.8160    1.2780 N.am      5 SEP2        0.0000 
     13 CA        -18.6160  -56.0575    8.4325 C.3       3 GLC5        0.0000 
     14 CA        -17.6810  -55.2180    6.6670 C.3       9 GLL5        0.0000 
     15 CA        -19.5510  -56.8970   10.1980 C.3       6 GLP5        0.0000 
     16 CA        -18.5170  -54.0885    8.3785 C.3       3 GLC5        0.0000 
     17 CA        -19.3530  -52.9590   10.0900 C.3       6 GLP5        0.0000 
     18 CA        -19.2710  -55.1485    4.4180 C.3       3 GLC5        0.0000 
     19 CA        -18.1540  -56.3600    5.7400 C.3       9 GLL5        0.0000 
     20 CA        -20.3880  -53.9370    3.0960 C.3       6 GLP5        0.0000 
     21 N         -18.7985  -58.8345    5.4100 N.am      2 SEC2        0.0000 
     22 N         -18.8530  -57.4460    6.3750 N.am      8 SEL2        0.0000 
     23 N         -18.7440  -60.2230    4.4450 N.am      5 SEP2        0.0000 
     24 O         -20.1890  -57.0985    6.8850 O.2       1 ALC1        0.0000 
     25 O         -18.8530  -57.4460    6.3750 O.2       7 ALL1        0.0000 
     26 O         -21.5250  -56.7510    7.3950 O.2       4 ALP1        0.0000 
     27 N         -17.8650  -59.2345    4.5955 N.am      2 SEC2        0.0000 
     28 N         -16.9860  -58.2460    4.7460 N.am      8 SEL2        0.0000 
     29 CA        -14.9475  -57.5375    6.9055 C.3       3 GLC5        0.0000 
     30 CA        -14.4160  -56.1270    5.3070 C.3       9 GLL5        0.0000 
     31 CA        -15.4790  -58.9480    8.5040 C.3       6 GLP5        0.0000 
     32 N         -13.1690  -52.4045    3.9820 N.am      2 SEC2        0.0000 
     33 N         -13.0110  -53.6540    4.1980 N.am      8 SEL2        0.0000 
     34 N         -13.3270  -51.1550    3.7660 N.am      5 SEP2        0.0000 
     35 O          -5.9990  -57.2470    1.2560 O.2       1 ALC1        0.0000 
     36 O          -6.6340  -56.8150    2.5720 O.2       7 ALL1        0.0000 
     37 O          -5.3640  -57.6790   -0.0600 O.2       4 ALP1        0.0000 
     38 O          -5.2900  -57.2475    2.0780 O.2       1 ALC1        0.0000 
     39 O          -3.9460  -57.6800    1.5840 O.2       4 ALP1        0.0000 
     40 N         -10.7455  -58.6820    5.1305 N.am      2 SEC2        0.0000 
     41 N         -10.3660  -58.2380    3.9010 N.am      8 SEL2        0.0000 
     42 N         -11.1250  -59.1260    6.3600 N.am      5 SEP2        0.0000 
     43 CA        -18.3885  -53.3337    3.4620 C.3       3 GLC5        0.0000 
     44 CA        -19.3720  -53.9820    2.1230 C.3       6 GLP5        0.0000 
     45 CA        -15.9052  -57.8090    7.0092 C.3       3 GLC5        0.0000 
     46 CA        -16.9030  -56.8580    5.0390 C.3       9 GLL5        0.0000 
     47 CA        -14.3940  -54.8543    6.7268 C.3       3 GLC5        0.0000 
     48 CA        -15.7600  -56.4820    5.9900 C.3       9 GLL5        0.0000 
     49 CA         -8.0370  -58.9592    1.2970 C.3       3 GLC5        0.0000 
     50 CA         -7.9890  -57.2820    2.4910 C.3       9 GLL5        0.0000 
     51 CA         -8.0480  -59.9210   -0.1920 C.3       6 GLP5        0.0000 
     52 CA         -8.8827  -60.5125    1.9665 C.3       3 GLC5        0.0000 
     53 CA         -9.5310  -59.2020    3.2370 C.3       9 GLL5        0.0000 
     54 CA         -8.1430  -61.1240    0.3970 C.3       6 GLP5        0.0000 
@<TRIPOS>BOND
@<TRIPOS>SUBSTRUCTURE
     1 ALC1        1 GROUP        1 X    ALC  0     ROOT ALC X 1
     2 SEC2        7 GROUP        1 X    SEC  0     **** SEC X 2
     3 GLC5        4 GROUP        1 X    GLC  0     **** GLC X 6
     4 ALP1        3 GROUP        1 Y    ALP  0     ROOT ALP Y 8
     5 SEP2        9 GROUP        1 Y    SEP  0     **** SEP Y 9
     6 GLP5        6 GROUP        1 Y    GLP  0     **** GLP Y 13
     7 ALL1        2 GROUP        1 Z    ALL  0     ROOT ALL Z 15
     8 SEL2        8 GROUP        1 Z    SEL  0     **** SEL Z 16
     9 GLL5        5 GROUP        1 Z    GLL  0     **** GLL Z 20
@<TRIPOS>SET

