#    Name: 3inr_GDU_2_ligand
#    Modification time : Tue Mar 25 16:57:03 2014

@<TRIPOS>MOLECULE
3inr_GDU_2_ligand
   58    60     1     0     0
SMALL
NO_CHARGES


@<TRIPOS>ATOM
      1 N1        -18.0160  -53.9130    6.0230 N.am      1 GDU392      0.0000 
      2 C2        -19.2530  -53.3040    6.3170 C.2       1 GDU392      0.0000 
      3 N3        -19.6120  -52.1440    5.7360 N.am      1 GDU392      0.0000 
      4 C4        -18.8270  -51.5120    4.8370 C.2       1 GDU392      0.0000 
      5 C5        -17.5860  -52.0760    4.4960 C.2       1 GDU392      0.0000 
      6 C6        -17.2240  -53.2950    5.1060 C.2       1 GDU392      0.0000 
      7 O2        -20.0260  -53.8560    7.1060 O.2       1 GDU392      0.0000 
      8 O4        -19.2350  -50.4400    4.3230 O.2       1 GDU392      0.0000 
      9 C1D       -17.6810  -55.2180    6.6670 C.3       1 GDU392      0.0000 
     10 C2D       -18.1540  -56.3600    5.7400 C.3       1 GDU392      0.0000 
     11 O2D       -18.8530  -57.4460    6.3750 O.3       1 GDU392      0.0000 
     12 C3D       -16.9030  -56.8580    5.0390 C.3       1 GDU392      0.0000 
     13 C4D       -15.7600  -56.4820    5.9900 C.3       1 GDU392      0.0000 
     14 O4D       -16.2690  -55.3740    6.7750 O.3       1 GDU392      0.0000 
     15 O3D       -16.9860  -58.2460    4.7460 O.3       1 GDU392      0.0000 
     16 C5D       -14.4160  -56.1270    5.3070 C.3       1 GDU392      0.0000 
     17 O5D       -14.6600  -55.6020    3.9960 O.3       1 GDU392      0.0000 
     18 PA        -13.6440  -54.6110    3.2280 P.3       1 GDU392      0.0000 
     19 O1A       -14.3890  -54.0220    2.0240 O.co2     1 GDU392      0.0000 
     20 O2A       -13.0110  -53.6540    4.1980 O.co2     1 GDU392      0.0000 
     21 O3A       -12.4430  -55.5010    2.6500 O.3       1 GDU392      0.0000 
     22 PB        -12.5710  -56.7940    1.6690 P.3       1 GDU392      0.0000 
     23 O1B       -12.8610  -56.4360    0.2230 O.co2     1 GDU392      0.0000 
     24 O2B       -13.5640  -57.7930    2.2800 O.co2     1 GDU392      0.0000 
     25 O3B       -11.0210  -57.2030    1.8460 O.3       1 GDU392      0.0000 
     26 C1'       -10.4330  -57.0030    3.1690 C.3       1 GDU392      0.0000 
     27 C2'        -9.0420  -56.3210    3.1140 C.3       1 GDU392      0.0000 
     28 C3'        -7.9890  -57.2820    2.4910 C.3       1 GDU392      0.0000 
     29 C4'        -8.0630  -58.7130    3.0810 C.3       1 GDU392      0.0000 
     30 C5'        -9.5310  -59.2020    3.2370 C.3       1 GDU392      0.0000 
     31 C6'        -9.7140  -60.6000    3.8350 C.3       1 GDU392      0.0000 
     32 O2'        -9.1650  -55.0660    2.4100 O.3       1 GDU392      0.0000 
     33 O3'        -6.6340  -56.8150    2.5720 O.3       1 GDU392      0.0000 
     34 O4'        -7.2700  -58.8620    4.2670 O.3       1 GDU392      0.0000 
     35 O5'       -10.3660  -58.2380    3.9010 O.3       1 GDU392      0.0000 
     36 O6'       -10.8900  -61.1120    3.1960 O.3       1 GDU392      0.0000 
     37 H         -20.5430  -51.7099    5.9918 H         1 GDU392      0.0000 
     38 H         -16.9717  -51.6252    3.8360 H         1 GDU392      0.0000 
     39 H         -16.3095  -53.7221    4.8290 H         1 GDU392      0.0000 
     40 H         -18.1730  -55.3228    7.5925 H         1 GDU392      0.0000 
     41 H         -18.7709  -55.8909    4.9584 H         1 GDU392      0.0000 
     42 H         -16.7831  -56.2492    4.1457 H         1 GDU392      0.0000 
     43 H         -15.5967  -57.3358    6.6537 H         1 GDU392      0.0000 
     44 H         -13.8147  -57.0404    5.2768 H         1 GDU392      0.0000 
     45 H         -13.9054  -55.4034    5.9492 H         1 GDU392      0.0000 
     46 H         -11.0872  -56.2959    3.7358 H         1 GDU392      0.0000 
     47 H          -8.7457  -56.1449    4.1554 H         1 GDU392      0.0000 
     48 H          -8.2677  -57.3968    1.4122 H         1 GDU392      0.0000 
     49 H          -7.6216  -59.3786    2.2711 H         1 GDU392      0.0000 
     50 H          -9.9227  -59.2876    2.1615 H         1 GDU392      0.0000 
     51 H          -9.8406  -60.4966    4.8967 H         1 GDU392      0.0000 
     52 H          -8.8403  -61.1806    3.6038 H         1 GDU392      0.0000 
     53 H         -19.7146  -57.0492    6.6916 H         1 GDU392      0.0000 
     54 H         -16.0674  -58.6020    4.9178 H         1 GDU392      0.0000 
     55 H         -10.1494  -54.9188    2.3137 H         1 GDU392      0.0000 
     56 H          -6.1989  -57.1362    1.7309 H         1 GDU392      0.0000 
     57 H          -6.5527  -58.1698    4.1872 H         1 GDU392      0.0000 
     58 H         -10.5704  -61.4804    2.3230 H         1 GDU392      0.0000 
@<TRIPOS>BOND
     1    2    1 1    
     2    6    1 1    
     3    9    1 1    
     4    3    2 1    
     5    7    2 2    
     6    4    3 1    
     7   37    3 1    
     8    5    4 1    
     9    8    4 2    
    10    6    5 2    
    11   38    5 1    
    12   39    6 1    
    13   10    9 1    
    14   14    9 1    
    15   40    9 1    
    16   11   10 1    
    17   12   10 1    
    18   41   10 1    
    19   53   11 1    
    20   13   12 1    
    21   15   12 1    
    22   42   12 1    
    23   14   13 1    
    24   16   13 1    
    25   43   13 1    
    26   54   15 1    
    27   17   16 1    
    28   44   16 1    
    29   45   16 1    
    30   18   17 1    
    31   19   18 ar   
    32   20   18 ar   
    33   21   18 1    
    34   22   21 1    
    35   23   22 ar   
    36   24   22 ar   
    37   25   22 1    
    38   26   25 1    
    39   27   26 1    
    40   35   26 1    
    41   46   26 1    
    42   28   27 1    
    43   32   27 1    
    44   47   27 1    
    45   29   28 1    
    46   33   28 1    
    47   48   28 1    
    48   30   29 1    
    49   34   29 1    
    50   49   29 1    
    51   31   30 1    
    52   35   30 1    
    53   50   30 1    
    54   36   31 1    
    55   51   31 1    
    56   52   31 1    
    57   55   32 1    
    58   56   33 1    
    59   57   34 1    
    60   58   36 1    
@<TRIPOS>SUBSTRUCTURE
     1 GDU392      1 GROUP   
@<TRIPOS>SET

