#    Name: 2cle_F6F_1_INTS_M
#    Modification time : Tue Mar 25 00:58:58 2014

@<TRIPOS>MOLECULE
2cle_F6F_1_INTS_M
   52     0     6     0     0
SMALL
NO_CHARGES


@<TRIPOS>ATOM
      1 CA         53.8485   23.3750   14.1180 C.3       2 GLC5        0.0000 
      2 CA         51.7200   23.8780   14.4210 C.3       6 GLL5        0.0000 
      3 CA         55.9770   22.8720   13.8150 C.3       4 GLP5        0.0000 
      4 CA         52.9115   22.9865   16.0775 C.3       2 GLC5        0.0000 
      5 CA         54.1030   22.0950   17.7340 C.3       4 GLP5        0.0000 
      6 CA         49.7910   21.9115   15.0015 C.3       2 GLC5        0.0000 
      7 CA         50.4650   23.6580   15.0880 C.3       6 GLL5        0.0000 
      8 CA         49.1170   20.1650   14.9150 C.3       4 GLP5        0.0000 
      9 CA         48.4885   23.5115   16.7530 C.3       2 GLC5        0.0000 
     10 CA         49.4940   24.7100   15.1640 C.3       6 GLL5        0.0000 
     11 CA         47.4830   22.3130   18.3420 C.3       4 GLP5        0.0000 
     12 CA         51.6785   28.2925   13.3975 C.3       2 GLC5        0.0000 
     13 CA         51.0070   26.2460   13.8880 C.3       6 GLL5        0.0000 
     14 CA         52.3500   30.3390   12.9070 C.3       4 GLP5        0.0000 
     15 CA         47.1420   30.0100   14.8460 C.3       2 GLC5        0.0000 
     16 CA         47.2740   28.4610   13.3530 C.3       6 GLL5        0.0000 
     17 CA         47.0100   31.5590   16.3390 C.3       4 GLP5        0.0000 
     18 CA         46.4020   26.4345   13.7370 C.3       2 GLC5        0.0000 
     19 CA         45.5300   24.4080   14.1210 C.3       4 GLP5        0.0000 
     20 CA         46.4625   27.5995   10.2930 C.3       2 GLC5        0.0000 
     21 CA         46.9120   28.9840   11.9940 C.3       6 GLL5        0.0000 
     22 CA         46.0130   26.2150    8.5920 C.3       4 GLP5        0.0000 
     23 CA         45.2100   30.3815   11.9625 C.3       2 GLC5        0.0000 
     24 CA         43.5080   31.7790   11.9310 C.3       4 GLP5        0.0000 
     25 N          47.0695   28.4470    7.7260 N.am      1 SEC2        0.0000 
     26 N          48.2130   28.9380    8.5470 N.am      5 SEL2        0.0000 
     27 N          45.9260   27.9560    6.9050 N.am      3 SEP2        0.0000 
     28 N          48.8345   31.6660   10.6330 N.am      1 SEC2        0.0000 
     29 N          49.1300   30.2750   10.4310 N.am      5 SEL2        0.0000 
     30 N          48.5390   33.0570   10.8350 N.am      3 SEP2        0.0000 
     31 N          49.8840   31.0940    9.7565 N.am      1 SEC2        0.0000 
     32 N          50.6380   31.9130    9.0820 N.am      3 SEP2        0.0000 
     33 N          46.2510   31.2585   10.9415 N.am      1 SEC2        0.0000 
     34 N          46.6000   30.3370    9.7450 N.am      5 SEL2        0.0000 
     35 N          45.9020   32.1800   12.1380 N.am      3 SEP2        0.0000 
     36 CA         50.6046   24.5470   16.7866 C.3       2 GLC5        0.0000 
     37 CA         50.9160   24.8550   18.6140 C.3       4 GLP5        0.0000 
     38 CA         51.1916   26.3784   15.7911 C.3       2 GLC5        0.0000 
     39 CA         49.7460   26.0110   14.5690 C.3       6 GLL5        0.0000 
     40 CA         51.1980   27.1060   17.5610 C.3       4 GLP5        0.0000 
     41 CA         50.5472   20.8933   14.1430 C.3       2 GLC5        0.0000 
     42 CA         52.5400   21.9660   13.2950 C.3       6 GLL5        0.0000 
     43 CA         53.7925   19.7718   13.3463 C.3       2 GLC5        0.0000 
     44 CA         54.5440   18.0100   13.3930 C.3       4 GLP5        0.0000 
     45 CA         54.3753   22.4539   13.2576 C.3       2 GLC5        0.0000 
     46 CA         50.8669   22.7369   11.9280 C.3       2 GLC5        0.0000 
     47 CA         52.5060   22.5380   12.1010 C.3       6 GLL5        0.0000 
     48 CA         49.4920   23.3940   11.1200 C.3       4 GLP5        0.0000 
     49 CA         45.4360   28.6743   13.7387 C.3       2 GLC5        0.0000 
     50 CA         43.7790   28.6260   14.8040 C.3       4 GLP5        0.0000 
     51 CA         47.0945   30.7278   12.7163 C.3       2 GLC5        0.0000 
     52 CA         47.0960   32.7330   12.7590 C.3       4 GLP5        0.0000 
@<TRIPOS>BOND
@<TRIPOS>SUBSTRUCTURE
     1 SEC2       25 GROUP        1 X    SEC  0     ROOT SEC X 2
     2 GLC5        1 GROUP        1 X    GLC  0     **** GLC X 6
     3 SEP2       27 GROUP        1 Y    SEP  0     ROOT SEP Y 9
     4 GLP5        3 GROUP        1 Y    GLP  0     **** GLP Y 13
     5 SEL2       26 GROUP        1 Z    SEL  0     ROOT SEL Z 16
     6 GLL5        2 GROUP        1 Z    GLL  0     **** GLL Z 20
@<TRIPOS>SET

