#    Name: 2cle_F6F_1_ligand
#    Modification time : Tue Mar 25 00:58:59 2014

@<TRIPOS>MOLECULE
2cle_F6F_1_ligand
   30    30     1     0     0
SMALL
NO_CHARGES


@<TRIPOS>ATOM
      1 C1         51.7200   23.8780   14.4210 C.ar      1 F6F1268     0.0000 
      2 C2         50.4650   23.6580   15.0880 C.ar      1 F6F1268     0.0000 
      3 C3         49.4940   24.7100   15.1640 C.ar      1 F6F1268     0.0000 
      4 C4         49.7460   26.0110   14.5690 C.ar      1 F6F1268     0.0000 
      5 C5         51.0070   26.2460   13.8880 C.ar      1 F6F1268     0.0000 
      6 C6         51.9940   25.1730   13.8140 C.ar      1 F6F1268     0.0000 
      7 O7         52.7120   22.9250   14.3270 O.3       1 F6F1268     0.0000 
      8 C8         52.5400   21.9660   13.2950 C.3       1 F6F1268     0.0000 
      9 F9         51.4150   21.2770   13.4470 F         1 F6F1268     0.0000 
     10 F10        53.5420   21.1010   13.3040 F         1 F6F1268     0.0000 
     11 F11        52.5060   22.5380   12.1010 F         1 F6F1268     0.0000 
     12 C12        48.6630   27.0920   14.7260 C.2       1 F6F1268     0.0000 
     13 N13        48.4310   27.5240   13.4460 N.am      1 F6F1268     0.0000 
     14 O14        47.6640   26.7460   15.3430 O.2       1 F6F1268     0.0000 
     15 C15        47.2740   28.4610   13.3530 C.3       1 F6F1268     0.0000 
     16 C16        46.9120   28.9840   11.9940 C.3       1 F6F1268     0.0000 
     17 O17        47.6020   28.4260   10.9790 O.3       1 F6F1268     0.0000 
     18 P18        47.9130   29.5930    9.8780 P.3       1 F6F1268     0.0000 
     19 O19        48.2130   28.9380    8.5470 O.co2     1 F6F1268     0.0000 
     20 O20        49.1300   30.2750   10.4310 O.co2     1 F6F1268     0.0000 
     21 O21        46.6000   30.3370    9.7450 O.co2     1 F6F1268     0.0000 
     22 H          50.2680   22.7544   15.5056 H         1 F6F1268     0.0000 
     23 H          48.6081   24.5502   15.6425 H         1 F6F1268     0.0000 
     24 H          51.2013   27.1368   13.4710 H         1 F6F1268     0.0000 
     25 H          52.8697   25.3310   13.3397 H         1 F6F1268     0.0000 
     26 H          48.9248   27.2855   12.6515 H         1 F6F1268     0.0000 
     27 H          47.4610   29.3372   14.0340 H         1 F6F1268     0.0000 
     28 H          46.3674   27.9633   13.7966 H         1 F6F1268     0.0000 
     29 H          47.0369   30.1053   12.0377 H         1 F6F1268     0.0000 
     30 H          45.7963   28.8493   11.8848 H         1 F6F1268     0.0000 
@<TRIPOS>BOND
     1    2    1 ar   
     2    6    1 ar   
     3    7    1 1    
     4    3    2 ar   
     5   22    2 1    
     6    4    3 ar   
     7   23    3 1    
     8    5    4 ar   
     9   12    4 1    
    10    6    5 ar   
    11   24    5 1    
    12   25    6 1    
    13    8    7 1    
    14    9    8 1    
    15   10    8 1    
    16   11    8 1    
    17   13   12 am   
    18   14   12 2    
    19   15   13 1    
    20   26   13 1    
    21   16   15 1    
    22   27   15 1    
    23   28   15 1    
    24   17   16 1    
    25   29   16 1    
    26   30   16 1    
    27   18   17 1    
    28   19   18 ar   
    29   20   18 ar   
    30   21   18 ar   
@<TRIPOS>SUBSTRUCTURE
     1 F6F1268     1 GROUP   
@<TRIPOS>SET

