#    Name: 1bxr_ANP_3_INTS_M
#    Modification time : Mon Mar 24 19:57:23 2014

@<TRIPOS>MOLECULE
1bxr_ANP_3_INTS_M
   96     0    18     0     0
SMALL
NO_CHARGES


@<TRIPOS>ATOM
      1 NZ         12.2255   40.0890  -46.4275 N.4       4 LYC4        0.0000 
      2 NZ         10.8510   40.2470  -46.4950 N.4      16 LYL4        0.0000 
      3 NZ         14.0230   38.7740  -46.8420 N.4      10 LYP4        0.0000 
      4 N          10.7605   40.9260  -45.3250 N.am      2 SEC2        0.0000 
      5 N          10.8510   40.2470  -46.4950 N.am     14 SEL2        0.0000 
      6 N          10.6700   41.6050  -44.1550 N.am      8 SEP2        0.0000 
      7 N          11.9935   39.0760  -46.9180 N.am      2 SEC2        0.0000 
      8 N          13.1360   37.9050  -47.3410 N.am      8 SEP2        0.0000 
      9 N          12.2255   40.0890  -46.4275 N.am      2 SEC2        0.0000 
     10 N          13.6000   39.9310  -46.3600 N.am      8 SEP2        0.0000 
     11 NZ         11.6985   38.1565  -47.6775 N.4       4 LYC4        0.0000 
     12 NZ         10.2610   38.4080  -48.0140 N.4      16 LYL4        0.0000 
     13 N          11.6985   38.1565  -47.6775 N.am      2 SEC2        0.0000 
     14 N          10.2610   38.4080  -48.0140 N.am     14 SEL2        0.0000 
     15 Zn          7.9670   40.6875  -48.3645 Zn        5 ZIC7        0.0000 
     16 Zn          8.8960   40.5800  -48.1270 Zn       17 ZIL7        0.0000 
     17 Zn          7.0380   40.7950  -48.6020 Zn       11 ZIP7        0.0000 
     18 N           8.5150   40.5175  -43.2780 N.am      2 SEC2        0.0000 
     19 N           7.6630   40.4920  -44.4050 N.am     14 SEL2        0.0000 
     20 N           9.3670   40.5430  -42.1510 N.am      8 SEP2        0.0000 
     21 N           6.5870   41.4980  -43.8965 N.am      2 SEC2        0.0000 
     22 N           5.5110   42.5040  -43.3880 N.am      8 SEP2        0.0000 
     23 Zn          6.8315   40.6555  -47.6245 Zn        5 ZIC7        0.0000 
     24 Zn          6.6250   40.5160  -46.6470 Zn       17 ZIL7        0.0000 
     25 N           5.2890   41.0035  -46.2845 N.am      2 SEC2        0.0000 
     26 N           6.6250   40.5160  -46.6470 N.am     14 SEL2        0.0000 
     27 N           3.9530   41.4910  -45.9220 N.am      8 SEP2        0.0000 
     28 OD1         7.6605   38.7190  -47.7355 O.co2     3 ASC3        0.0000 
     29 OD1         8.6510   38.9810  -46.1920 O.co2    15 ASL3        0.0000 
     30 OD1         6.6700   38.4570  -49.2790 O.co2     9 ASP3        0.0000 
     31 NZ          3.4955   39.4665  -46.3385 N.4       4 LYC4        0.0000 
     32 NZ          4.2870   37.6730  -46.3630 N.4      16 LYL4        0.0000 
     33 NZ          2.7040   41.2600  -46.3140 N.4      10 LYP4        0.0000 
     34 NZ          2.9820   37.4740  -46.3770 N.4       4 LYC4        0.0000 
     35 NZ          0.6450   37.1510  -45.5690 N.4      10 LYP4        0.0000 
     36 N           2.9820   37.4740  -46.3770 N.am      2 SEC2        0.0000 
     37 N           4.2870   37.6730  -46.3630 N.am     14 SEL2        0.0000 
     38 N           1.6770   37.2750  -46.3910 N.am      8 SEP2        0.0000 
     39 N           6.9375   36.3595  -47.9785 N.am      2 SEC2        0.0000 
     40 N           6.4950   36.7050  -46.7530 N.am     14 SEL2        0.0000 
     41 N           7.3800   36.0140  -49.2040 N.am      8 SEP2        0.0000 
     42 CA          8.0415   36.3730  -43.2340 C.3       6 GLC5        0.0000 
     43 CA          6.3050   35.9180  -43.6060 C.3      18 GLL5        0.0000 
     44 CA          9.7780   36.8280  -42.8620 C.3      12 GLP5        0.0000 
     45 CA          6.2115   35.5980  -41.4110 C.3       6 GLC5        0.0000 
     46 CA          6.1180   35.2780  -39.2160 C.3      12 GLP5        0.0000 
     47 CA          5.8475   34.1740  -41.2960 C.3       6 GLC5        0.0000 
     48 CA          6.2210   34.4520  -43.1970 C.3      18 GLL5        0.0000 
     49 CA          5.4740   33.8960  -39.3950 C.3      12 GLP5        0.0000 
     50 O           7.0990   32.3115  -45.6875 O.2       1 ALC1        0.0000 
     51 O           7.4030   33.3060  -44.9500 O.2      13 ALL1        0.0000 
     52 O           6.7950   31.3170  -46.4250 O.2       7 ALP1        0.0000 
     53 CA          4.6290   30.8000  -44.6105 C.3       6 GLC5        0.0000 
     54 CA          5.4860   32.2730  -43.6700 C.3      18 GLL5        0.0000 
     55 CA          3.7720   29.3270  -45.5510 C.3      12 GLP5        0.0000 
     56 N           5.9965   30.3010  -42.2190 N.am      2 SEC2        0.0000 
     57 N           6.4620   31.3770  -43.1250 N.am     14 SEL2        0.0000 
     58 N           5.5310   29.2250  -41.3130 N.am      8 SEP2        0.0000 
     59 O           7.0070   30.4975  -44.1765 O.2       1 ALC1        0.0000 
     60 O           6.4620   31.3770  -43.1250 O.2      13 ALL1        0.0000 
     61 O           7.5520   29.6180  -45.2280 O.2       7 ALP1        0.0000 
     62 O           6.6285   31.3470  -44.7750 O.2       1 ALC1        0.0000 
     63 CA          5.1030   31.2365  -41.2460 C.3       6 GLC5        0.0000 
     64 CA          4.6420   32.8710  -42.5670 C.3      18 GLL5        0.0000 
     65 CA          5.5640   29.6020  -39.9250 C.3      12 GLP5        0.0000 
     66 CA          5.0580   33.3835  -40.9810 C.3       6 GLC5        0.0000 
     67 CA          1.0555   33.8570  -41.5815 C.3       6 GLC5        0.0000 
     68 CA          1.0790   32.3540  -42.8460 C.3      18 GLL5        0.0000 
     69 CA          1.0320   35.3600  -40.3170 C.3      12 GLP5        0.0000 
     70 CA          0.4465   32.4795  -40.6980 C.3       6 GLC5        0.0000 
     71 CA         -0.0780   31.6550  -42.4230 C.3      18 GLL5        0.0000 
     72 CA          0.9710   33.3040  -38.9730 C.3      12 GLP5        0.0000 
     73 CA         -0.5285   29.8525  -42.9535 C.3       6 GLC5        0.0000 
     74 CA         -0.9790   28.0500  -43.4840 C.3      12 GLP5        0.0000 
     75 O          -2.3685   31.6930  -41.8795 O.2       1 ALC1        0.0000 
     76 O          -1.2640   31.8460  -42.7960 O.2      13 ALL1        0.0000 
     77 O          -3.4730   31.5400  -40.9630 O.2       7 ALP1        0.0000 
     78 N          -0.5890   29.6055  -41.2935 N.am      2 SEC2        0.0000 
     79 N           0.2260   30.6650  -41.5230 N.am     14 SEL2        0.0000 
     80 N          -1.4040   28.5460  -41.0640 N.am      8 SEP2        0.0000 
     81 CA          0.8030   31.3010  -39.6780 C.3       6 GLC5        0.0000 
     82 CA          1.4760   30.3760  -41.0300 C.3      18 GLL5        0.0000 
     83 CA          0.1300   32.2260  -38.3260 C.3      12 GLP5        0.0000 
     84 CA          0.1970   28.9565  -41.5445 C.3       6 GLC5        0.0000 
     85 CA         -1.0820   27.5370  -42.0590 C.3      12 GLP5        0.0000 
     86 CA          1.5655   29.3085  -39.4740 C.3       6 GLC5        0.0000 
     87 CA          1.6550   28.2410  -37.9180 C.3      12 GLP5        0.0000 
     88 CA          1.8150   30.1845  -43.0765 C.3       6 GLC5        0.0000 
     89 CA          2.1540   29.9930  -45.1230 C.3      12 GLP5        0.0000 
     90 CA          3.5200   29.9890  -40.4775 C.3       6 GLC5        0.0000 
     91 CA          1.6395   32.6370  -40.6535 C.3       6 GLC5        0.0000 
     92 CA          2.3080   31.9700  -42.3340 C.3      18 GLL5        0.0000 
     93 CA          8.1640   33.6397  -43.0673 C.3       6 GLC5        0.0000 
     94 CA          6.1230   33.4890  -44.3440 C.3      18 GLL5        0.0000 
     95 CA         10.1560   33.3090  -42.3640 C.3      12 GLP5        0.0000 
     96 CA          1.7791   30.9901  -43.8036 C.3       6 GLC5        0.0000 
@<TRIPOS>BOND
@<TRIPOS>SUBSTRUCTURE
     1 ALC1       50 GROUP        1 X    ALC  0     ROOT ALC X 1
     2 SEC2        4 GROUP        1 X    SEC  0     **** SEC X 2
     3 ASC3       28 GROUP        1 X    ASC  0     **** ASC X 3
     4 LYC4        1 GROUP        1 X    LYC  0     **** LYC X 4
     5 ZIC7       15 GROUP        1 X    ZIC  0     **** ZIC X 5
     6 GLC5       42 GROUP        1 X    GLC  0     **** GLC X 6
     7 ALP1       52 GROUP        1 Y    ALP  0     ROOT ALP Y 8
     8 SEP2        6 GROUP        1 Y    SEP  0     **** SEP Y 9
     9 ASP3       30 GROUP        1 Y    ASP  0     **** ASP Y 10
    10 LYP4        3 GROUP        1 Y    LYP  0     **** LYP Y 11
    11 ZIP7       17 GROUP        1 Y    ZIP  0     **** ZIP Y 12
    12 GLP5       44 GROUP        1 Y    GLP  0     **** GLP Y 13
    13 ALL1       51 GROUP        1 Z    ALL  0     ROOT ALL Z 15
    14 SEL2        5 GROUP        1 Z    SEL  0     **** SEL Z 16
    15 ASL3       29 GROUP        1 Z    ASL  0     **** ASL Z 17
    16 LYL4        2 GROUP        1 Z    LYL  0     **** LYL Z 18
    17 ZIL7       16 GROUP        1 Z    ZIL  0     **** ZIL Z 19
    18 GLL5       43 GROUP        1 Z    GLL  0     **** GLL Z 20
@<TRIPOS>SET

