#    Name: 1bxr_ANP_3_ligand
#    Modification time : Mon Mar 24 19:57:23 2014

@<TRIPOS>MOLECULE
1bxr_ANP_3_ligand
   42    44     1     0     0
SMALL
NO_CHARGES


@<TRIPOS>ATOM
      1 PG          9.7260   39.5570  -47.2160 P.3       1 ANP1900     0.0000 
      2 O1G        10.8510   40.2470  -46.4950 O.co2     1 ANP1900     0.0000 
      3 O2G        10.2610   38.4080  -48.0140 O.co2     1 ANP1900     0.0000 
      4 O3G         8.8960   40.5800  -48.1270 O.co2     1 ANP1900     0.0000 
      5 PB          7.3120   39.6650  -45.6060 P.3       1 ANP1900     0.0000 
      6 O1B         7.6630   40.4920  -44.4050 O.co2     1 ANP1900     0.0000 
      7 O2B         6.6250   40.5160  -46.6470 O.co2     1 ANP1900     0.0000 
      8 N3B         8.6510   38.9810  -46.1920 N.4       1 ANP1900     0.0000 
      9 PA          5.5710   37.2860  -45.7160 P.3       1 ANP1900     0.0000 
     10 O1A         4.2870   37.6730  -46.3630 O.co2     1 ANP1900     0.0000 
     11 O2A         6.4950   36.7050  -46.7530 O.co2     1 ANP1900     0.0000 
     12 O3A         6.2610   38.5740  -45.0690 O.3       1 ANP1900     0.0000 
     13 O5'         5.2510   36.2370  -44.5600 O.3       1 ANP1900     0.0000 
     14 C5'         6.3050   35.9180  -43.6060 C.3       1 ANP1900     0.0000 
     15 C4'         6.2210   34.4520  -43.1970 C.3       1 ANP1900     0.0000 
     16 O4'         4.9820   34.2000  -42.4910 O.3       1 ANP1900     0.0000 
     17 C3'         6.1230   33.4890  -44.3440 C.3       1 ANP1900     0.0000 
     18 O3'         7.4030   33.3060  -44.9500 O.3       1 ANP1900     0.0000 
     19 C2'         5.4860   32.2730  -43.6700 C.3       1 ANP1900     0.0000 
     20 O2'         6.4620   31.3770  -43.1250 O.3       1 ANP1900     0.0000 
     21 C1'         4.6420   32.8710  -42.5670 C.3       1 ANP1900     0.0000 
     22 N9          3.2320   32.8120  -42.9160 N.pl3     1 ANP1900     0.0000 
     23 C8          2.5450   33.5780  -43.8170 C.2       1 ANP1900     0.0000 
     24 N7          1.2300   33.3740  -43.7760 N.2       1 ANP1900     0.0000 
     25 C5          1.0790   32.3540  -42.8460 C.ar      1 ANP1900     0.0000 
     26 C6         -0.0780   31.6550  -42.4230 C.ar      1 ANP1900     0.0000 
     27 N6         -1.2640   31.8460  -42.7960 N.pl3     1 ANP1900     0.0000 
     28 N1          0.2260   30.6650  -41.5230 N.ar      1 ANP1900     0.0000 
     29 C2          1.4760   30.3760  -41.0300 C.ar      1 ANP1900     0.0000 
     30 N3          2.5620   31.0000  -41.4140 N.ar      1 ANP1900     0.0000 
     31 C4          2.3080   31.9700  -42.3340 C.ar      1 ANP1900     0.0000 
     32 H           6.2155   36.5316  -42.7035 H         1 ANP1900     0.0000 
     33 H           7.2941   36.0968  -44.0405 H         1 ANP1900     0.0000 
     34 H           7.0467   34.1829  -42.5820 H         1 ANP1900     0.0000 
     35 H           5.3854   33.9004  -45.0249 H         1 ANP1900     0.0000 
     36 H           4.8330   31.8087  -44.3732 H         1 ANP1900     0.0000 
     37 H           4.8332   32.3474  -41.6651 H         1 ANP1900     0.0000 
     38 H           2.9987   34.2160  -44.4312 H         1 ANP1900     0.0000 
     39 H           1.5366   29.6006  -40.2994 H         1 ANP1900     0.0000 
     40 H           7.4545   32.3288  -45.1557 H         1 ANP1900     0.0000 
     41 H           6.7787   30.8349  -43.9034 H         1 ANP1900     0.0000 
     42 H          -1.8241   31.6378  -41.9941 H         1 ANP1900     0.0000 
@<TRIPOS>BOND
     1    2    1 ar   
     2    3    1 ar   
     3    4    1 ar   
     4    8    1 1    
     5    6    5 ar   
     6    7    5 ar   
     7    8    5 1    
     8   12    5 1    
     9   10    9 ar   
    10   11    9 ar   
    11   12    9 1    
    12   13    9 1    
    13   14   13 1    
    14   15   14 1    
    15   32   14 1    
    16   33   14 1    
    17   16   15 1    
    18   17   15 1    
    19   34   15 1    
    20   21   16 1    
    21   18   17 1    
    22   19   17 1    
    23   35   17 1    
    24   40   18 1    
    25   20   19 1    
    26   21   19 1    
    27   36   19 1    
    28   41   20 1    
    29   22   21 1    
    30   37   21 1    
    31   23   22 1    
    32   31   22 1    
    33   24   23 2    
    34   38   23 1    
    35   25   24 1    
    36   26   25 ar   
    37   31   25 ar   
    38   27   26 1    
    39   28   26 ar   
    40   42   27 1    
    41   29   28 ar   
    42   30   29 ar   
    43   39   29 1    
    44   31   30 ar   
@<TRIPOS>SUBSTRUCTURE
     1 ANP1900     1 GROUP   
@<TRIPOS>SET

