#    Name: 2ag8_NAP_1_INTS_M
#    Modification time : Mon Mar 24 19:18:35 2014

@<TRIPOS>MOLECULE
2ag8_NAP_1_INTS_M
   75     0     9     0     0
SMALL
NO_CHARGES


@<TRIPOS>ATOM
      1 N          20.3030   22.7760   17.5540 N.am      1 SEC2        0.0000 
      2 N          19.2650   22.1340   16.3120 N.am      7 SEL2        0.0000 
      3 N          21.3410   23.4180   18.7960 N.am      4 SEP2        0.0000 
      4 CA         15.9615   26.8895   15.7685 C.3       3 GLC5        0.0000 
      5 CA         16.5540   24.9180   16.1180 C.3       9 GLL5        0.0000 
      6 CA         15.3690   28.8610   15.4190 C.3       6 GLP5        0.0000 
      7 CA         15.0405   25.9660   18.5185 C.3       3 GLC5        0.0000 
      8 CA         15.4330   24.5940   17.1090 C.3       9 GLL5        0.0000 
      9 CA         14.6480   27.3380   19.9280 C.3       6 GLP5        0.0000 
     10 CA         13.9385   26.0990   18.7900 C.3       3 GLC5        0.0000 
     11 CA         13.2290   24.8600   17.6520 C.3       9 GLL5        0.0000 
     12 CA         13.2420   26.7515   17.2080 C.3       3 GLC5        0.0000 
     13 CA         13.2550   28.6430   16.7640 C.3       6 GLP5        0.0000 
     14 CA          9.1850   29.0185   16.9310 C.3       3 GLC5        0.0000 
     15 CA          8.9590   27.2090   18.2480 C.3       9 GLL5        0.0000 
     16 CA          9.4110   30.8280   15.6140 C.3       6 GLP5        0.0000 
     17 CA         10.2870   28.5305   20.1125 C.3       3 GLC5        0.0000 
     18 CA         10.0500   26.6810   20.3200 C.3       9 GLL5        0.0000 
     19 CA         10.5240   30.3800   19.9050 C.3       6 GLP5        0.0000 
     20 CA         10.1615   27.5565   22.2695 C.3       3 GLC5        0.0000 
     21 CA         10.2730   28.4320   24.2190 C.3       6 GLP5        0.0000 
     22 CA         10.6860   25.4735   21.3650 C.3       3 GLC5        0.0000 
     23 CA         11.3220   24.2660   22.4100 C.3       6 GLP5        0.0000 
     24 CA         12.8600   26.6885   19.1000 C.3       3 GLC5        0.0000 
     25 CA         11.0720   26.0390   18.2720 C.3       9 GLL5        0.0000 
     26 N          22.0620   25.4260   17.8260 N.am      1 SEC2        0.0000 
     27 N          21.1100   25.0850   16.6680 N.am      7 SEL2        0.0000 
     28 N          23.0140   25.7670   18.9840 N.am      4 SEP2        0.0000 
     29 CA         18.0225   28.4695   12.4990 C.3       3 GLC5        0.0000 
     30 CA         19.7060   28.8880   13.1700 C.3       9 GLL5        0.0000 
     31 CA         16.3390   28.0510   11.8280 C.3       6 GLP5        0.0000 
     32 N          21.0295   31.5960   11.1940 N.am      1 SEC2        0.0000 
     33 N          20.9690   30.1980   11.5180 N.am      7 SEL2        0.0000 
     34 N          21.0900   32.9940   10.8700 N.am      4 SEP2        0.0000 
     35 CA         23.0480   28.7330   15.3435 C.3       3 GLC5        0.0000 
     36 CA         21.8520   29.5730   13.7430 C.3       9 GLL5        0.0000 
     37 CA         24.2440   27.8930   16.9440 C.3       6 GLP5        0.0000 
     38 CA         21.5740   30.6900   15.6520 C.3       3 GLC5        0.0000 
     39 CA         21.2960   31.8070   17.5610 C.3       6 GLP5        0.0000 
     40 CA         22.9955   31.9920   15.4005 C.3       3 GLC5        0.0000 
     41 CA         23.6640   31.0510   13.5940 C.3       9 GLL5        0.0000 
     42 CA         22.3270   32.9330   17.2070 C.3       6 GLP5        0.0000 
     43 CA         21.7850   32.0675   13.2850 C.3       3 GLC5        0.0000 
     44 CA         19.9060   33.0840   12.9760 C.3       6 GLP5        0.0000 
     45 NZ         14.4650   19.9060   18.1500 N.4       2 LYC4        0.0000 
     46 NZ         12.5690   20.0690   17.7750 N.4       8 LYL4        0.0000 
     47 NZ         16.3610   19.7430   18.5250 N.4       5 LYP4        0.0000 
     48 N          10.1665   20.8205   19.8930 N.am      1 SEC2        0.0000 
     49 N          10.8880   21.2900   19.1340 N.am      7 SEL2        0.0000 
     50 N           9.4450   20.3510   20.6520 N.am      4 SEP2        0.0000 
     51 CA         17.4657   24.0675   17.9458 C.3       3 GLC5        0.0000 
     52 CA         18.9380   23.3790   19.2780 C.3       6 GLP5        0.0000 
     53 CA         14.8852   24.8180   15.1947 C.3       3 GLC5        0.0000 
     54 CA         13.7770   24.8800   13.7760 C.3       6 GLP5        0.0000 
     55 CA         14.8003   21.9290   18.2567 C.3       3 GLC5        0.0000 
     56 CA         14.7910   23.2330   16.8600 C.3       9 GLL5        0.0000 
     57 CA         15.5500   20.5310   19.4960 C.3       6 GLP5        0.0000 
     58 CA         13.7084   24.4868   15.5554 C.3       3 GLC5        0.0000 
     59 CA         10.0032   28.6393   18.9068 C.3       3 GLC5        0.0000 
     60 CA         10.0060   26.5880   17.5690 C.3       9 GLL5        0.0000 
     61 CA         11.8970   27.4783   17.3422 C.3       3 GLC5        0.0000 
     62 CA         19.0442   29.3070   11.3215 C.3       3 GLC5        0.0000 
     63 CA         17.7120   29.5780    9.8080 C.3       6 GLP5        0.0000 
     64 CA         20.5101   31.1943   13.1325 C.3       3 GLC5        0.0000 
     65 CA         24.6040   28.4108   15.2487 C.3       3 GLC5        0.0000 
     66 CA         24.2820   28.7410   13.5990 C.3       9 GLL5        0.0000 
     67 CA         26.1007   31.0087   12.5935 C.3       3 GLC5        0.0000 
     68 CA         25.6460   29.1160   13.5080 C.3       9 GLL5        0.0000 
     69 CA         26.4040   32.2240   11.6860 C.3       6 GLP5        0.0000 
     70 CA         25.8492   31.3882   14.6090 C.3       3 GLC5        0.0000 
     71 CA         25.9490   30.4710   13.4940 C.3       9 GLL5        0.0000 
     72 CA         25.9010   32.9830   15.7170 C.3       6 GLP5        0.0000 
     73 CA         25.3605   31.7360   12.6205 C.3       3 GLC5        0.0000 
     74 CA         24.9700   31.4450   13.5160 C.3       9 GLL5        0.0000 
     75 CA         25.1090   32.1155   14.6360 C.3       3 GLC5        0.0000 
@<TRIPOS>BOND
@<TRIPOS>SUBSTRUCTURE
     1 SEC2        1 GROUP        1 X    SEC  0     ROOT SEC X 2
     2 LYC4       45 GROUP        1 X    LYC  0     **** LYC X 4
     3 GLC5        4 GROUP        1 X    GLC  0     **** GLC X 6
     4 SEP2        3 GROUP        1 Y    SEP  0     ROOT SEP Y 9
     5 LYP4       47 GROUP        1 Y    LYP  0     **** LYP Y 11
     6 GLP5        6 GROUP        1 Y    GLP  0     **** GLP Y 13
     7 SEL2        2 GROUP        1 Z    SEL  0     ROOT SEL Z 16
     8 LYL4       46 GROUP        1 Z    LYL  0     **** LYL Z 18
     9 GLL5        5 GROUP        1 Z    GLL  0     **** GLL Z 20
@<TRIPOS>SET

