#    Name: 2ag8_NAP_1_ligand
#    Modification time : Mon Mar 24 19:18:35 2014

@<TRIPOS>MOLECULE
2ag8_NAP_1_ligand
   73    77     1     0     0
SMALL
NO_CHARGES


@<TRIPOS>ATOM
      1 PA         18.5440   23.2050   15.5490 P.3       1 NAP311      0.0000 
      2 O1A        17.5240   22.5970   14.6450 O.co2     1 NAP311      0.0000 
      3 O2A        19.2650   22.1340   16.3120 O.co2     1 NAP311      0.0000 
      4 O5B        17.7530   24.2660   16.5080 O.3       1 NAP311      0.0000 
      5 C5B        16.5540   24.9180   16.1180 C.3       1 NAP311      0.0000 
      6 C4B        15.4330   24.5940   17.1090 C.3       1 NAP311      0.0000 
      7 O4B        14.3520   25.5130   17.0720 O.3       1 NAP311      0.0000 
      8 C3B        14.7910   23.2330   16.8600 C.3       1 NAP311      0.0000 
      9 O3B        15.4060   22.2590   17.6750 O.3       1 NAP311      0.0000 
     10 C2B        13.3100   23.4210   17.1750 C.3       1 NAP311      0.0000 
     11 O2B        12.8700   22.5680   18.2030 O.3       1 NAP311      0.0000 
     12 C1B        13.2290   24.8600   17.6520 C.3       1 NAP311      0.0000 
     13 N9A        11.9450   25.5280   17.3450 N.pl3     1 NAP311      0.0000 
     14 C8A        11.4130   25.7730   16.1070 C.2       1 NAP311      0.0000 
     15 N7A        10.2370   26.4170   16.2500 N.2       1 NAP311      0.0000 
     16 C5A        10.0060   26.5880   17.5690 C.ar      1 NAP311      0.0000 
     17 C6A         8.9590   27.2090   18.2480 C.ar      1 NAP311      0.0000 
     18 N6A         8.4560   28.2860   17.6380 N.pl3     1 NAP311      0.0000 
     19 N1A         8.9790   27.2250   19.6390 N.ar      1 NAP311      0.0000 
     20 C2A        10.0500   26.6810   20.3200 C.ar      1 NAP311      0.0000 
     21 N3A        11.0930   26.0880   19.6270 N.ar      1 NAP311      0.0000 
     22 C4A        11.0720   26.0390   18.2720 C.ar      1 NAP311      0.0000 
     23 O3         19.6160   24.1190   14.7130 O.3       1 NAP311      0.0000 
     24 PN         21.0250   24.8110   15.2080 P.3       1 NAP311      0.0000 
     25 O1N        22.1540   24.1000   14.5560 O.co2     1 NAP311      0.0000 
     26 O2N        21.1100   25.0850   16.6680 O.co2     1 NAP311      0.0000 
     27 O5D        20.8520   26.2770   14.5820 O.3       1 NAP311      0.0000 
     28 C5D        19.7190   27.0580   14.9190 C.3       1 NAP311      0.0000 
     29 C4D        20.0400   28.5170   14.6250 C.3       1 NAP311      0.0000 
     30 O4D        21.4310   28.7470   14.8190 O.3       1 NAP311      0.0000 
     31 C3D        19.7060   28.8880   13.1700 C.3       1 NAP311      0.0000 
     32 O3D        18.8430   30.0010   13.1560 O.3       1 NAP311      0.0000 
     33 C2D        21.0470   29.1840   12.5000 C.3       1 NAP311      0.0000 
     34 O2D        20.9690   30.1980   11.5180 O.3       1 NAP311      0.0000 
     35 C1D        21.8520   29.5730   13.7430 C.3       1 NAP311      0.0000 
     36 N1N        23.3200   29.7410   13.6330 N.pl3     1 NAP311      0.0000 
     37 C2N        24.2820   28.7410   13.5990 C.ar      1 NAP311      0.0000 
     38 C3N        25.6460   29.1160   13.5080 C.ar      1 NAP311      0.0000 
     39 C7N        26.6840   28.3500   12.7120 C.2       1 NAP311      0.0000 
     40 O7N        27.7050   29.1270   12.0780 O.2       1 NAP311      0.0000 
     41 N7N        26.6530   27.0080   12.6240 N.am      1 NAP311      0.0000 
     42 C4N        25.9490   30.4710   13.4940 C.ar      1 NAP311      0.0000 
     43 C5N        24.9700   31.4450   13.5160 C.ar      1 NAP311      0.0000 
     44 C6N        23.6640   31.0510   13.5940 C.ar      1 NAP311      0.0000 
     45 P2B        11.8110   21.3790   17.9390 P.3       1 NAP311      0.0000 
     46 O1X        12.5690   20.0690   17.7750 O.co2     1 NAP311      0.0000 
     47 O2X        11.0060   21.7600   16.7180 O.co2     1 NAP311      0.0000 
     48 O3X        10.8880   21.2900   19.1340 O.co2     1 NAP311      0.0000 
     49 H          16.2173   24.5988   15.1224 H         1 NAP311      0.0000 
     50 H          16.6686   26.0101   16.0943 H         1 NAP311      0.0000 
     51 H          15.8564   24.5580   18.1174 H         1 NAP311      0.0000 
     52 H          14.8835   23.0245   15.8098 H         1 NAP311      0.0000 
     53 H          12.7601   23.3424   16.2740 H         1 NAP311      0.0000 
     54 H          13.3684   24.8266   18.7486 H         1 NAP311      0.0000 
     55 H          11.8250   25.5194   15.2699 H         1 NAP311      0.0000 
     56 H           7.7034   28.7468   18.1084 H         1 NAP311      0.0000 
     57 H           8.8773   28.5346   16.7658 H         1 NAP311      0.0000 
     58 H          10.0757   26.7153   21.3525 H         1 NAP311      0.0000 
     59 H          19.4645   26.9782   15.9781 H         1 NAP311      0.0000 
     60 H          18.8404   26.7837   14.3311 H         1 NAP311      0.0000 
     61 H          19.4502   29.1424   15.2709 H         1 NAP311      0.0000 
     62 H          19.2855   28.0176   12.7095 H         1 NAP311      0.0000 
     63 H          21.4345   28.2483   12.1588 H         1 NAP311      0.0000 
     64 H          21.4308   30.6343   14.0047 H         1 NAP311      0.0000 
     65 H          24.0285   27.7599   13.6377 H         1 NAP311      0.0000 
     66 H          27.3983   26.5834   12.1099 H         1 NAP311      0.0000 
     67 H          25.8874   26.5547   13.0805 H         1 NAP311      0.0000 
     68 H          26.9535   30.7607   13.4658 H         1 NAP311      0.0000 
     69 H          25.2234   32.4349   13.4746 H         1 NAP311      0.0000 
     70 H          22.9139   31.7835   13.6241 H         1 NAP311      0.0000 
     71 H          16.3236   22.6137   17.8543 H         1 NAP311      0.0000 
     72 H          19.2102   30.6041   12.4479 H         1 NAP311      0.0000 
     73 H          21.6102   29.9165   10.8041 H         1 NAP311      0.0000 
@<TRIPOS>BOND
     1    2    1 ar   
     2    3    1 ar   
     3    4    1 1    
     4   23    1 1    
     5    5    4 1    
     6    6    5 1    
     7   49    5 1    
     8   50    5 1    
     9    7    6 1    
    10    8    6 1    
    11   51    6 1    
    12   12    7 1    
    13    9    8 1    
    14   10    8 1    
    15   52    8 1    
    16   71    9 1    
    17   11   10 1    
    18   12   10 1    
    19   53   10 1    
    20   45   11 1    
    21   13   12 1    
    22   54   12 1    
    23   14   13 1    
    24   22   13 1    
    25   15   14 2    
    26   55   14 1    
    27   16   15 1    
    28   17   16 ar   
    29   22   16 ar   
    30   18   17 1    
    31   19   17 ar   
    32   56   18 1    
    33   57   18 1    
    34   20   19 ar   
    35   21   20 ar   
    36   58   20 1    
    37   22   21 ar   
    38   24   23 1    
    39   25   24 ar   
    40   26   24 ar   
    41   27   24 1    
    42   28   27 1    
    43   29   28 1    
    44   59   28 1    
    45   60   28 1    
    46   30   29 1    
    47   31   29 1    
    48   61   29 1    
    49   35   30 1    
    50   32   31 1    
    51   33   31 1    
    52   62   31 1    
    53   72   32 1    
    54   34   33 1    
    55   35   33 1    
    56   63   33 1    
    57   73   34 1    
    58   36   35 1    
    59   64   35 1    
    60   37   36 ar   
    61   44   36 ar   
    62   38   37 ar   
    63   65   37 1    
    64   39   38 1    
    65   42   38 ar   
    66   40   39 2    
    67   41   39 am   
    68   66   41 1    
    69   67   41 1    
    70   43   42 ar   
    71   68   42 1    
    72   44   43 ar   
    73   69   43 1    
    74   70   44 1    
    75   46   45 ar   
    76   47   45 ar   
    77   48   45 ar   
@<TRIPOS>SUBSTRUCTURE
     1 NAP311      1 GROUP   
@<TRIPOS>SET

