#    Name: 2xnv_VU3_10_INTS_M
#    Modification time : Tue Mar 25 06:25:36 2014

@<TRIPOS>MOLECULE
2xnv_VU3_10_INTS_M
   33     0     3     0     0
SMALL
NO_CHARGES


@<TRIPOS>ATOM
      1 CA          9.3500   89.9595  174.6165 C.3       1 GLC5        0.0000 
      2 CA         10.9680   89.7880  173.1550 C.3       3 GLL5        0.0000 
      3 CA          7.7320   90.1310  176.0780 C.3       2 GLP5        0.0000 
      4 CA         13.3455   85.6700  175.2145 C.3       1 GLC5        0.0000 
      5 CA         14.7670   87.2480  175.1850 C.3       3 GLL5        0.0000 
      6 CA         11.9240   84.0920  175.2440 C.3       2 GLP5        0.0000 
      7 CA          9.3785   90.9360  175.2945 C.3       1 GLC5        0.0000 
      8 CA         10.1570   90.8330  173.9130 C.3       3 GLL5        0.0000 
      9 CA          8.6000   91.0390  176.6760 C.3       2 GLP5        0.0000 
     10 CA         18.2200   92.3410  171.7310 C.3       1 GLC5        0.0000 
     11 CA         16.8100   91.7490  173.1910 C.3       3 GLL5        0.0000 
     12 CA         19.6300   92.9330  170.2710 C.3       2 GLP5        0.0000 
     13 CA          9.6160   92.1340  175.5050 C.3       1 GLC5        0.0000 
     14 CA         10.6320   93.2290  174.3340 C.3       3 GLL5        0.0000 
     15 CA         12.3565   86.1035  174.5455 C.3       1 GLC5        0.0000 
     16 CA         12.7890   88.1150  173.8470 C.3       3 GLL5        0.0000 
     17 CA          9.2762   89.3413  173.1070 C.3       1 GLC5        0.0000 
     18 CA          7.9900   88.3720  172.6800 C.3       2 GLP5        0.0000 
     19 CA         16.4396   88.8565  178.1854 C.3       1 GLC5        0.0000 
     20 CA         14.5050   89.5930  176.6980 C.3       3 GLL5        0.0000 
     21 CA         17.5550   89.4000  179.8230 C.3       2 GLP5        0.0000 
     22 CA         16.8686   89.6290  176.4629 C.3       1 GLC5        0.0000 
     23 CA         15.5000   88.6610  177.0070 C.3       3 GLL5        0.0000 
     24 CA         18.4130   90.9450  176.3780 C.3       2 GLP5        0.0000 
     25 CA         13.0830   86.2953  176.0905 C.3       1 GLC5        0.0000 
     26 CA         11.8950   84.8760  177.1500 C.3       2 GLP5        0.0000 
     27 CA         18.0018   92.0889  173.5546 C.3       1 GLC5        0.0000 
     28 CA         19.7470   92.5860  174.0600 C.3       2 GLP5        0.0000 
     29 CA         10.0753   94.1570  171.6800 C.3       1 GLC5        0.0000 
     30 CA         12.0670   92.7610  171.8160 C.3       3 GLL5        0.0000 
     31 CA          8.8160   95.7540  171.4810 C.3       2 GLP5        0.0000 
     32 CA         10.4010   94.9062  173.3955 C.3       1 GLC5        0.0000 
     33 CA          9.4350   96.3900  172.5380 C.3       2 GLP5        0.0000 
@<TRIPOS>BOND
@<TRIPOS>SUBSTRUCTURE
     1 GLC5        1 GROUP        1 X    GLC  0     ROOT GLC X 6
     2 GLP5        3 GROUP        1 Y    GLP  0     ROOT GLP Y 13
     3 GLL5        2 GROUP        1 Z    GLL  0     ROOT GLL Z 20
@<TRIPOS>SET

