#    Name: 2xnv_VU3_10_ligand
#    Modification time : Tue Mar 25 06:25:36 2014

@<TRIPOS>MOLECULE
2xnv_VU3_10_ligand
   48    51     1     0     0
SMALL
NO_CHARGES


@<TRIPOS>ATOM
      1 CAW        10.9680   89.7880  173.1550 C.3       1 VU3301      0.0000 
      2 CAO        12.1040   89.3120  174.0220 C.2       1 VU3301      0.0000 
      3 NAQ        12.6270   90.0010  175.0680 N.pl3     1 VU3301      0.0000 
      4 CAX        13.6530   89.3370  175.6240 C.ar      1 VU3301      0.0000 
      5 CAN        14.5050   89.5930  176.6980 C.ar      1 VU3301      0.0000 
      6 CAJ        15.5000   88.6610  177.0070 C.ar      1 VU3301      0.0000 
      7 CAF        15.6460   87.4990  176.2430 C.ar      1 VU3301      0.0000 
      8 CAI        14.7670   87.2480  175.1850 C.ar      1 VU3301      0.0000 
      9 CAM        13.7750   88.1810  174.8770 C.ar      1 VU3301      0.0000 
     10 CAP        10.1570   90.8330  173.9130 C.3       1 VU3301      0.0000 
     11 CAV        15.0080   93.2620  173.7900 C.ar      1 VU3301      0.0000 
     12 CAD        16.3600   92.9420  173.7700 C.ar      1 VU3301      0.0000 
     13 CAC        16.8100   91.7490  173.1910 C.ar      1 VU3301      0.0000 
     14 CAR        15.9280   90.8380  172.6180 C.ar      1 VU3301      0.0000 
     15 CAE        14.5730   91.1570  172.6340 C.ar      1 VU3301      0.0000 
     16 CAU        14.1270   92.3560  173.2040 C.ar      1 VU3301      0.0000 
     17 CAS        12.6830   92.6100  173.1920 C.3       1 VU3301      0.0000 
     18 CAT        12.0670   92.7610  171.8160 C.3       1 VU3301      0.0000 
     19 CAK        12.1020   93.6160  174.1720 C.3       1 VU3301      0.0000 
     20 CAG        10.6320   93.2290  174.3340 C.3       1 VU3301      0.0000 
     21 CAL        10.6020   92.3590  171.9420 C.3       1 VU3301      0.0000 
     22 C17        12.7890   88.1150  173.8470 C.2       1 VU3301      0.0000 
     23 N1         10.1600   92.2050  173.3550 N.4       1 VU3301      0.0000 
     24 H          10.3230   88.9529  172.9006 H         1 VU3301      0.0000 
     25 H          11.3592   90.2324  172.2453 H         1 VU3301      0.0000 
     26 H          12.2917   90.8740  175.3732 H         1 VU3301      0.0000 
     27 H          14.4053   90.4439  177.2487 H         1 VU3301      0.0000 
     28 H          16.1301   88.8312  177.8029 H         1 VU3301      0.0000 
     29 H          16.3946   86.8337  176.4578 H         1 VU3301      0.0000 
     30 H          14.8509   86.3859  174.6405 H         1 VU3301      0.0000 
     31 H          10.5274   90.8564  174.9690 H         1 VU3301      0.0000 
     32 H           9.1039   90.4615  173.9904 H         1 VU3301      0.0000 
     33 H          14.6757   94.1169  174.2121 H         1 VU3301      0.0000 
     34 H          17.0477   93.5912  174.1875 H         1 VU3301      0.0000 
     35 H          17.8273   91.5427  173.1912 H         1 VU3301      0.0000 
     36 H          16.2585   89.9766  172.2054 H         1 VU3301      0.0000 
     37 H          13.8872   90.5057  172.2225 H         1 VU3301      0.0000 
     38 H          12.1939   91.5821  173.5619 H         1 VU3301      0.0000 
     39 H          12.5598   92.1066  171.1215 H         1 VU3301      0.0000 
     40 H          12.1317   93.7846  171.4973 H         1 VU3301      0.0000 
     41 H          12.1696   94.6011  173.7651 H         1 VU3301      0.0000 
     42 H          12.5989   93.5351  175.1139 H         1 VU3301      0.0000 
     43 H          10.0187   94.1454  174.2407 H         1 VU3301      0.0000 
     44 H          10.4819   92.8567  175.3653 H         1 VU3301      0.0000 
     45 H          10.4512   91.4124  171.3963 H         1 VU3301      0.0000 
     46 H           9.9857   93.1217  171.4370 H         1 VU3301      0.0000 
     47 H          12.6623   87.4540  173.2471 H         1 VU3301      0.0000 
     48 H           8.9750   92.4525  173.2928 H         1 VU3301      0.0000 
@<TRIPOS>BOND
     1    2    1 1    
     2   10    1 1    
     3   24    1 1    
     4   25    1 1    
     5    3    2 1    
     6   22    2 2    
     7    4    3 1    
     8   26    3 1    
     9    5    4 ar   
    10    9    4 ar   
    11    6    5 ar   
    12   27    5 1    
    13    7    6 ar   
    14   28    6 1    
    15    8    7 ar   
    16   29    7 1    
    17    9    8 ar   
    18   30    8 1    
    19   22    9 1    
    20   23   10 1    
    21   31   10 1    
    22   32   10 1    
    23   12   11 ar   
    24   16   11 ar   
    25   33   11 1    
    26   13   12 ar   
    27   34   12 1    
    28   14   13 ar   
    29   35   13 1    
    30   15   14 ar   
    31   36   14 1    
    32   16   15 ar   
    33   37   15 1    
    34   17   16 1    
    35   18   17 1    
    36   19   17 1    
    37   38   17 1    
    38   21   18 1    
    39   39   18 1    
    40   40   18 1    
    41   20   19 1    
    42   41   19 1    
    43   42   19 1    
    44   23   20 1    
    45   43   20 1    
    46   44   20 1    
    47   23   21 1    
    48   45   21 1    
    49   46   21 1    
    50   47   22 1    
    51   48   23 1    
@<TRIPOS>SUBSTRUCTURE
     1 VU3301      1 GROUP   
@<TRIPOS>SET

