#    Name: 2fai_459_1_INTS_M
#    Modification time : Tue Mar 25 12:25:41 2014

@<TRIPOS>MOLECULE
2fai_459_1_INTS_M
   61     0     9     0     0
SMALL
NO_CHARGES


@<TRIPOS>ATOM
      1 CA          5.1045    0.7325   -1.6105 C.3       3 GLC5        0.0000 
      2 CA          3.6660    0.2770   -3.0930 C.3       9 GLL5        0.0000 
      3 CA          6.5430    1.1880   -0.1280 C.3       6 GLP5        0.0000 
      4 CA          3.4205    1.9985   -1.7305 C.3       3 GLC5        0.0000 
      5 CA          3.1750    3.7200   -0.3680 C.3       6 GLP5        0.0000 
      6 CA          3.2690   -0.2820   -1.1615 C.3       3 GLC5        0.0000 
      7 CA          2.8720   -0.8410    0.7700 C.3       6 GLP5        0.0000 
      8 CA          6.6855   -1.2575   -3.3485 C.3       3 GLC5        0.0000 
      9 CA          5.4600   -0.4160   -4.7500 C.3       9 GLL5        0.0000 
     10 CA          7.9110   -2.0990   -1.9470 C.3       6 GLP5        0.0000 
     11 CA          7.6470   -4.0470   -4.9080 C.3       3 GLC5        0.0000 
     12 CA          6.7550   -2.4130   -5.8780 C.3       9 GLL5        0.0000 
     13 CA          8.5390   -5.6810   -3.9380 C.3       6 GLP5        0.0000 
     14 CA          7.3330   -2.2560   -3.9125 C.3       3 GLC5        0.0000 
     15 CA          8.7360   -2.7210   -5.6140 C.3       3 GLC5        0.0000 
     16 CA         10.7170   -3.0290   -5.3500 C.3       6 GLP5        0.0000 
     17 CA          0.9955    2.0225   -5.8610 C.3       3 GLC5        0.0000 
     18 CA          1.7120    0.3400   -5.2700 C.3       9 GLL5        0.0000 
     19 CA          0.2790    3.7050   -6.4520 C.3       6 GLP5        0.0000 
     20 N           0.0885   -0.2660   -3.8110 N.am      2 SEC2        0.0000 
     21 N           1.3190   -0.6960   -4.3670 N.am      8 SEL2        0.0000 
     22 N          -1.1420    0.1640   -3.2550 N.am      5 SEP2        0.0000 
     23 CA          3.3775    2.4655   -7.4180 C.3       3 GLC5        0.0000 
     24 CA          3.7370    1.6170   -5.7650 C.3       9 GLL5        0.0000 
     25 CA          3.0180    3.3140   -9.0710 C.3       6 GLP5        0.0000 
     26 CA          2.0080    2.6610   -6.1085 C.3       3 GLC5        0.0000 
     27 CA          6.4435    2.8195   -6.2105 C.3       3 GLC5        0.0000 
     28 CA          5.9280    0.9750   -5.2420 C.3       9 GLL5        0.0000 
     29 CA          6.9590    4.6640   -7.1790 C.3       6 GLP5        0.0000 
     30 N          12.1960    2.9095   -7.5720 N.am      2 SEC2        0.0000 
     31 N          11.3500    1.5310   -6.9570 N.am      8 SEL2        0.0000 
     32 N          13.0420    4.2880   -8.1870 N.am      5 SEP2        0.0000 
     33 O          11.7320    0.7145   -7.8720 O.2       1 ALC1        0.0000 
     34 O          11.3500    1.5310   -6.9570 O.2       7 ALL1        0.0000 
     35 O          12.1140   -0.1020   -8.7870 O.2       4 ALP1        0.0000 
     36 CA         10.6055    1.9540   -3.3110 C.3       3 GLC5        0.0000 
     37 CA          9.6670    1.6780   -5.3040 C.3       9 GLL5        0.0000 
     38 CA         11.5440    2.2300   -1.3180 C.3       6 GLP5        0.0000 
     39 CA          8.7775    1.5575   -2.7390 C.3       3 GLC5        0.0000 
     40 CA          8.3500    1.5390   -4.9020 C.3       9 GLL5        0.0000 
     41 CA          9.2050    1.5760   -0.5760 C.3       6 GLP5        0.0000 
     42 CA          7.3717   -2.4863   -7.2610 C.3       3 GLC5        0.0000 
     43 CA          5.5760   -1.4260   -5.8560 C.3       9 GLL5        0.0000 
     44 CA          8.5780   -3.0530   -8.6550 C.3       6 GLP5        0.0000 
     45 CA          4.0975    0.1565   -8.4633 C.3       3 GLC5        0.0000 
     46 CA          4.5540   -1.4350   -6.8140 C.3       9 GLL5        0.0000 
     47 CA          4.2040    1.3250  -10.0850 C.3       6 GLP5        0.0000 
     48 CA          3.4450   -2.2285   -8.2142 C.3       3 GLC5        0.0000 
     49 CA          3.4280   -0.5890   -6.8690 C.3       9 GLL5        0.0000 
     50 CA          2.8990   -3.4450   -9.5870 C.3       6 GLP5        0.0000 
     51 CA          2.9215   -2.8070   -6.3033 C.3       3 GLC5        0.0000 
     52 CA          1.8520   -4.6020   -5.7650 C.3       6 GLP5        0.0000 
     53 CA          1.0401   -0.6285   -6.3771 C.3       3 GLC5        0.0000 
     54 CA         -0.4330   -1.3340   -7.0090 C.3       6 GLP5        0.0000 
     55 CA          8.4930   -1.0985   -7.9798 C.3       3 GLC5        0.0000 
     56 CA          7.7380    0.7920   -7.1010 C.3       9 GLL5        0.0000 
     57 CA         10.8645    0.1392   -4.9915 C.3       3 GLC5        0.0000 
     58 CA         10.0410    1.3690   -6.6040 C.3       9 GLL5        0.0000 
     59 CA         11.8750   -1.2450   -4.0290 C.3       6 GLP5        0.0000 
     60 CA          9.1082    3.5017   -4.7905 C.3       3 GLC5        0.0000 
     61 CA          9.2080    5.3950   -4.4780 C.3       6 GLP5        0.0000 
@<TRIPOS>BOND
@<TRIPOS>SUBSTRUCTURE
     1 ALC1       33 GROUP        1 X    ALC  0     ROOT ALC X 1
     2 SEC2       20 GROUP        1 X    SEC  0     **** SEC X 2
     3 GLC5        1 GROUP        1 X    GLC  0     **** GLC X 6
     4 ALP1       35 GROUP        1 Y    ALP  0     ROOT ALP Y 8
     5 SEP2       22 GROUP        1 Y    SEP  0     **** SEP Y 9
     6 GLP5        3 GROUP        1 Y    GLP  0     **** GLP Y 13
     7 ALL1       34 GROUP        1 Z    ALL  0     ROOT ALL Z 15
     8 SEL2       21 GROUP        1 Z    SEL  0     **** SEL Z 16
     9 GLL5        2 GROUP        1 Z    GLL  0     **** GLL Z 20
@<TRIPOS>SET

