#    Name: 2fai_459_1_ligand
#    Modification time : Tue Mar 25 12:25:41 2014

@<TRIPOS>MOLECULE
2fai_459_1_ligand
   44    46     1     0     0
SMALL
NO_CHARGES


@<TRIPOS>ATOM
      1 CAT         3.6660    0.2770   -3.0930 C.3       1 459101      0.0000 
      2 CAK         3.9640   -0.4210   -4.4090 C.3       1 459101      0.0000 
      3 CAJ         5.4600   -0.4160   -4.7500 C.3       1 459101      0.0000 
      4 CAN         5.5760   -1.4260   -5.8560 C.3       1 459101      0.0000 
      5 CAQ         6.7550   -2.4130   -5.8780 C.3       1 459101      0.0000 
      6 CAP         4.5540   -1.4350   -6.8140 C.3       1 459101      0.0000 
      7 CAO         3.4280   -0.5890   -6.8690 C.3       1 459101      0.0000 
      8 CAL         3.2010    0.2170   -5.5720 C.3       1 459101      0.0000 
      9 CAR         1.7120    0.3400   -5.2700 C.3       1 459101      0.0000 
     10 OAS         1.3190   -0.6960   -4.3670 O.3       1 459101      0.0000 
     11 CAM         3.7370    1.6170   -5.7650 C.3       1 459101      0.0000 
     12 OAH         5.0690    1.4540   -6.2780 O.3       1 459101      0.0000 
     13 CAI         5.9280    0.9750   -5.2420 C.3       1 459101      0.0000 
     14 CAD         7.3800    1.0900   -5.7800 C.ar      1 459101      0.0000 
     15 CAC         7.7380    0.7920   -7.1010 C.ar      1 459101      0.0000 
     16 CAB         9.0780    0.9200   -7.5080 C.ar      1 459101      0.0000 
     17 CAA        10.0410    1.3690   -6.6040 C.ar      1 459101      0.0000 
     18 OAG        11.3500    1.5310   -6.9570 O.3       1 459101      0.0000 
     19 CAF         9.6670    1.6780   -5.3040 C.ar      1 459101      0.0000 
     20 CAE         8.3500    1.5390   -4.9020 C.ar      1 459101      0.0000 
     21 H           3.6448   -1.4624   -4.3387 H         1 459101      0.0000 
     22 H           6.0121   -0.7263   -3.9153 H         1 459101      0.0000 
     23 H           6.3397   -0.4839   -6.6267 H         1 459101      0.0000 
     24 H           4.1557   -2.5535   -6.8994 H         1 459101      0.0000 
     25 H           5.0704   -1.4002   -7.8860 H         1 459101      0.0000 
     26 H           2.4898   -1.1558   -7.0608 H         1 459101      0.0000 
     27 H           3.5032    0.1517   -7.6960 H         1 459101      0.0000 
     28 H           1.1698    0.2768   -6.2200 H         1 459101      0.0000 
     29 H           1.5357    1.3350   -4.8466 H         1 459101      0.0000 
     30 H           3.7351    2.1226   -4.8105 H         1 459101      0.0000 
     31 H           3.0999    2.1378   -6.4647 H         1 459101      0.0000 
     32 H           5.8566    1.6739   -4.3834 H         1 459101      0.0000 
     33 H           7.0288    0.4821   -7.7694 H         1 459101      0.0000 
     34 H           9.3419    0.6823   -8.4692 H         1 459101      0.0000 
     35 H          10.3770    2.0137   -4.6334 H         1 459101      0.0000 
     36 H           8.0864    1.7754   -3.9265 H         1 459101      0.0000 
     37 H           4.1369   -0.1593   -2.3262 H         1 459101      0.0000 
     38 H           3.9537    1.2346   -3.1070 H         1 459101      0.0000 
     39 H           2.6889    0.2676   -2.8806 H         1 459101      0.0000 
     40 H           7.6347   -1.9397   -5.9239 H         1 459101      0.0000 
     41 H           6.7736   -2.9876   -5.0598 H         1 459101      0.0000 
     42 H           6.7109   -3.0268   -6.6663 H         1 459101      0.0000 
     43 H           0.8584   -0.9654   -5.2129 H         1 459101      0.0000 
     44 H          11.6432    0.6322   -7.2829 H         1 459101      0.0000 
@<TRIPOS>BOND
     1    2    1 1    
     2   37    1 1    
     3   38    1 1    
     4   39    1 1    
     5    3    2 1    
     6    8    2 1    
     7   21    2 1    
     8    4    3 1    
     9   13    3 1    
    10   22    3 1    
    11    5    4 1    
    12    6    4 1    
    13   23    4 1    
    14   40    5 1    
    15   41    5 1    
    16   42    5 1    
    17    7    6 1    
    18   24    6 1    
    19   25    6 1    
    20    8    7 1    
    21   26    7 1    
    22   27    7 1    
    23    9    8 1    
    24   11    8 1    
    25   10    9 1    
    26   28    9 1    
    27   29    9 1    
    28   43   10 1    
    29   12   11 1    
    30   30   11 1    
    31   31   11 1    
    32   13   12 1    
    33   14   13 1    
    34   32   13 1    
    35   15   14 ar   
    36   20   14 ar   
    37   16   15 ar   
    38   33   15 1    
    39   17   16 ar   
    40   34   16 1    
    41   18   17 1    
    42   19   17 ar   
    43   44   18 1    
    44   20   19 ar   
    45   35   19 1    
    46   36   20 1    
@<TRIPOS>SUBSTRUCTURE
     1 459101      1 GROUP   
@<TRIPOS>SET

