#    Name: 4dfu_QUE_3_INTS_M
#    Modification time : Tue Mar 25 09:41:02 2014

@<TRIPOS>MOLECULE
4dfu_QUE_3_INTS_M
   41     0     9     0     0
SMALL
NO_CHARGES


@<TRIPOS>ATOM
      1 CA        -10.2710  -12.4355   -5.0805 C.3       3 GLC5        0.0000 
      2 CA        -11.1200  -13.0500   -6.8080 C.3       9 GLL5        0.0000 
      3 CA         -9.4220  -11.8210   -3.3530 C.3       6 GLP5        0.0000 
      4 CA        -13.2795  -13.1015    0.6330 C.3       3 GLC5        0.0000 
      5 CA        -14.0440  -13.1200   -1.3880 C.3       9 GLL5        0.0000 
      6 CA        -12.5150  -13.0830    2.6540 C.3       6 GLP5        0.0000 
      7 CA        -13.0730  -14.4705    0.6725 C.3       3 GLC5        0.0000 
      8 CA        -13.4630  -14.3820   -1.4990 C.3       9 GLL5        0.0000 
      9 CA        -12.6830  -14.5590    2.8440 C.3       6 GLP5        0.0000 
     10 N          -9.8070  -17.4660   -6.7985 N.am      2 SEC2        0.0000 
     11 N          -9.9970  -16.3830   -6.6730 N.am      8 SEL2        0.0000 
     12 N          -9.6170  -18.5490   -6.9240 N.am      5 SEP2        0.0000 
     13 O          -8.7065  -10.6170   -8.9845 O.2       1 ALC1        0.0000 
     14 O          -9.8340  -10.8410   -9.3990 O.2       7 ALL1        0.0000 
     15 O          -7.5790  -10.3930   -8.5700 O.2       4 ALP1        0.0000 
     16 CA         -8.6225  -13.8425   -6.2147 C.3       3 GLC5        0.0000 
     17 CA        -10.4720  -14.2290   -7.1370 C.3       9 GLL5        0.0000 
     18 CA         -7.2530  -13.4680   -4.7950 C.3       6 GLP5        0.0000 
     19 CA        -12.0300  -14.7203   -7.7211 C.3       3 GLC5        0.0000 
     20 CA         -9.5120  -14.2050   -8.1320 C.3       9 GLL5        0.0000 
     21 CA        -13.5040  -15.8070   -8.2210 C.3       6 GLP5        0.0000 
     22 CA        -12.1730  -12.2387   -8.9648 C.3       3 GLC5        0.0000 
     23 CA        -10.9950  -11.9020   -7.5830 C.3       9 GLL5        0.0000 
     24 CA        -13.8150  -12.5650   -9.8260 C.3       6 GLP5        0.0000 
     25 CA        -10.9850  -10.1623   -8.7583 C.3       3 GLC5        0.0000 
     26 CA        -11.4390   -8.4120   -9.4130 C.3       6 GLP5        0.0000 
     27 CA         -7.9076  -13.0279   -8.4696 C.3       3 GLC5        0.0000 
     28 CA        -10.0670  -11.9230   -8.6240 C.3       9 GLL5        0.0000 
     29 CA         -6.0690  -13.2780   -8.3720 C.3       6 GLP5        0.0000 
     30 CA         -9.4111  -13.3204  -10.5126 C.3       3 GLC5        0.0000 
     31 CA         -9.3390  -13.0600   -8.8890 C.3       9 GLL5        0.0000 
     32 CA         -9.0760  -13.8630  -12.4580 C.3       6 GLP5        0.0000 
     33 CA        -12.5690  -15.2757   -6.6108 C.3       3 GLC5        0.0000 
     34 CA        -11.3360  -15.3470   -5.1660 C.3       9 GLL5        0.0000 
     35 CA        -10.2225  -15.3938   -3.6928 C.3       3 GLC5        0.0000 
     36 CA         -8.8110  -16.0430   -2.3850 C.3       6 GLP5        0.0000 
     37 CA        -10.5280  -13.2828   -4.1768 C.3       3 GLC5        0.0000 
     38 CA        -11.3117  -14.7200   -1.1635 C.3       3 GLC5        0.0000 
     39 CA        -12.7580  -14.7260   -2.6470 C.3       9 GLL5        0.0000 
     40 CA         -9.5130  -14.8860   -0.2540 C.3       6 GLP5        0.0000 
     41 CA        -11.1333  -12.8872   -3.2481 C.3       3 GLC5        0.0000 
@<TRIPOS>BOND
@<TRIPOS>SUBSTRUCTURE
     1 ALC1       13 GROUP        1 X    ALC  0     ROOT ALC X 1
     2 SEC2       10 GROUP        1 X    SEC  0     **** SEC X 2
     3 GLC5        1 GROUP        1 X    GLC  0     **** GLC X 6
     4 ALP1       15 GROUP        1 Y    ALP  0     ROOT ALP Y 8
     5 SEP2       12 GROUP        1 Y    SEP  0     **** SEP Y 9
     6 GLP5        3 GROUP        1 Y    GLP  0     **** GLP Y 13
     7 ALL1       14 GROUP        1 Z    ALL  0     ROOT ALL Z 15
     8 SEL2       11 GROUP        1 Z    SEL  0     **** SEL Z 16
     9 GLL5        2 GROUP        1 Z    GLL  0     **** GLL Z 20
@<TRIPOS>SET

