#    Name: 4dfu_QUE_3_ligand
#    Modification time : Tue Mar 25 09:41:02 2014

@<TRIPOS>MOLECULE
4dfu_QUE_3_ligand
   32    34     1     0     0
SMALL
NO_CHARGES


@<TRIPOS>ATOM
      1 C1         -9.3390  -13.0600   -8.8890 C.ar      1 QUE403      0.0000 
      2 C2         -9.5120  -14.2050   -8.1320 C.ar      1 QUE403      0.0000 
      3 C3        -10.4720  -14.2290   -7.1370 C.ar      1 QUE403      0.0000 
      4 C4        -11.1200  -13.0500   -6.8080 C.ar      1 QUE403      0.0000 
      5 C5        -10.9950  -11.9020   -7.5830 C.ar      1 QUE403      0.0000 
      6 C6        -10.0670  -11.9230   -8.6240 C.ar      1 QUE403      0.0000 
      7 C9        -10.5720  -15.3580   -6.3290 C.2       1 QUE403      0.0000 
      8 C10       -11.3360  -15.3470   -5.1660 C.2       1 QUE403      0.0000 
      9 C11       -11.9320  -14.1420   -4.8350 C.2       1 QUE403      0.0000 
     10 C14       -12.6490  -13.8140   -3.6950 C.ar      1 QUE403      0.0000 
     11 C15       -13.2130  -12.5480   -3.5840 C.ar      1 QUE403      0.0000 
     12 C16       -13.9200  -12.2060   -2.4350 C.ar      1 QUE403      0.0000 
     13 C17       -14.0440  -13.1200   -1.3880 C.ar      1 QUE403      0.0000 
     14 C18       -13.4630  -14.3820   -1.4990 C.ar      1 QUE403      0.0000 
     15 C19       -12.7580  -14.7260   -2.6470 C.ar      1 QUE403      0.0000 
     16 O12       -12.0030  -13.2460   -5.8360 O.3       1 QUE403      0.0000 
     17 O13        -9.9970  -16.3830   -6.6730 O.2       1 QUE403      0.0000 
     18 O23       -13.5880  -15.2860   -0.4880 O.3       1 QUE403      0.0000 
     19 O24       -14.7440  -12.7860   -0.2650 O.3       1 QUE403      0.0000 
     20 O27       -11.3670  -16.4710   -4.4060 O.3       1 QUE403      0.0000 
     21 O29        -9.8340  -10.8410   -9.3990 O.3       1 QUE403      0.0000 
     22 O30        -8.7800  -15.3080   -8.4120 O.3       1 QUE403      0.0000 
     23 H          -8.6508  -13.0621   -9.6656 H         1 QUE403      0.0000 
     24 H         -11.5556  -11.0810   -7.4000 H         1 QUE403      0.0000 
     25 H         -13.1088  -11.8683   -4.3456 H         1 QUE403      0.0000 
     26 H         -14.3534  -11.2761   -2.3558 H         1 QUE403      0.0000 
     27 H         -12.3176  -15.6508   -2.7238 H         1 QUE403      0.0000 
     28 H         -13.0686  -16.0854   -0.7901 H         1 QUE403      0.0000 
     29 H         -14.0777  -12.8343    0.4791 H         1 QUE403      0.0000 
     30 H         -10.6962  -17.0841   -4.8234 H         1 QUE403      0.0000 
     31 H          -9.1938  -10.2799   -8.8743 H         1 QUE403      0.0000 
     32 H          -9.3573  -16.0777   -8.1394 H         1 QUE403      0.0000 
@<TRIPOS>BOND
     1    2    1 ar   
     2    6    1 ar   
     3   23    1 1    
     4    3    2 ar   
     5   22    2 1    
     6    4    3 ar   
     7    7    3 1    
     8    5    4 ar   
     9   16    4 1    
    10    6    5 ar   
    11   24    5 1    
    12   21    6 1    
    13    8    7 1    
    14   17    7 2    
    15    9    8 2    
    16   20    8 1    
    17   10    9 1    
    18   16    9 1    
    19   11   10 ar   
    20   15   10 ar   
    21   12   11 ar   
    22   25   11 1    
    23   13   12 ar   
    24   26   12 1    
    25   14   13 ar   
    26   19   13 1    
    27   15   14 ar   
    28   18   14 1    
    29   27   15 1    
    30   28   18 1    
    31   29   19 1    
    32   30   20 1    
    33   31   21 1    
    34   32   22 1    
@<TRIPOS>SUBSTRUCTURE
     1 QUE403      1 GROUP   
@<TRIPOS>SET

