#    Name: 3fw3_ETS_1_INTS_M
#    Modification time : Tue Mar 25 06:38:55 2014

@<TRIPOS>MOLECULE
3fw3_ETS_1_INTS_M
   27     0    12     0     0
SMALL
NO_CHARGES


@<TRIPOS>ATOM
      1 CA          4.2525    6.2065   22.2100 C.3       4 GLC5        0.0000 
      2 CA          3.5390    7.3870   21.0440 C.3      12 GLL5        0.0000 
      3 CA          4.9660    5.0260   23.3760 C.3       8 GLP5        0.0000 
      4 CA          1.2450    7.1535   17.0460 C.3       4 GLC5        0.0000 
      5 CA          2.1230    7.5230   18.9740 C.3      12 GLL5        0.0000 
      6 CA          0.3670    6.7840   15.1180 C.3       8 GLP5        0.0000 
      7 CA          1.2000   11.0780   20.1065 C.3       4 GLC5        0.0000 
      8 CA         -0.3310    9.7780   20.8950 C.3      12 GLL5        0.0000 
      9 CA          2.7310   12.3780   19.3180 C.3       8 GLP5        0.0000 
     10 N           5.1465    8.2760   16.6405 N.am      2 SEC2        0.0000 
     11 N           5.3820    7.5460   17.8690 N.am     10 SEL2        0.0000 
     12 N           4.9110    9.0060   15.4120 N.am      6 SEP2        0.0000 
     13 O           4.3925    5.7905   16.0255 O.2       1 ALC1        0.0000 
     14 O           4.1370    5.4950   17.2910 O.2       9 ALL1        0.0000 
     15 O           4.6480    6.0860   14.7600 O.2       5 ALP1        0.0000 
     16 Zn          4.2970    4.5145   17.4975 Zn        3 ZIC7        0.0000 
     17 Zn          4.1370    5.4950   17.2910 Zn       11 ZIL7        0.0000 
     18 Zn          4.4570    3.5340   17.7040 Zn        7 ZIP7        0.0000 
     19 CA         -0.4585    6.9555   16.8030 C.3       4 GLC5        0.0000 
     20 CA         -1.2840    7.1270   18.4880 C.3      12 GLL5        0.0000 
     21 CA         -3.1310    6.7450   16.5405 C.3       4 GLC5        0.0000 
     22 CA         -2.5530    6.2770   18.5180 C.3      12 GLL5        0.0000 
     23 CA         -3.7090    7.2130   14.5630 C.3       8 GLP5        0.0000 
     24 CA         -3.9400    5.6775   17.5415 C.3       4 GLC5        0.0000 
     25 CA         -5.3270    5.0780   16.5650 C.3       8 GLP5        0.0000 
     26 CA          3.5968    9.2032   20.1128 C.3       4 GLC5        0.0000 
     27 CA          4.5400   10.7980   19.9610 C.3       8 GLP5        0.0000 
@<TRIPOS>BOND
@<TRIPOS>SUBSTRUCTURE
     1 ALC1       13 GROUP        1 X    ALC  0     ROOT ALC X 1
     2 SEC2       10 GROUP        1 X    SEC  0     **** SEC X 2
     3 ZIC7       16 GROUP        1 X    ZIC  0     **** ZIC X 5
     4 GLC5        1 GROUP        1 X    GLC  0     **** GLC X 6
     5 ALP1       15 GROUP        1 Y    ALP  0     ROOT ALP Y 8
     6 SEP2       12 GROUP        1 Y    SEP  0     **** SEP Y 9
     7 ZIP7       18 GROUP        1 Y    ZIP  0     **** ZIP Y 12
     8 GLP5        3 GROUP        1 Y    GLP  0     **** GLP Y 13
     9 ALL1       14 GROUP        1 Z    ALL  0     ROOT ALL Z 15
    10 SEL2       11 GROUP        1 Z    SEL  0     **** SEL Z 16
    11 ZIL7       17 GROUP        1 Z    ZIL  0     **** ZIL Z 19
    12 GLL5        2 GROUP        1 Z    GLL  0     **** GLL Z 20
@<TRIPOS>SET

