#    Name: 3fw3_ETS_1_ligand
#    Modification time : Tue Mar 25 06:38:55 2014

@<TRIPOS>MOLECULE
3fw3_ETS_1_ligand
   33    34     1     0     0
SMALL
NO_CHARGES


@<TRIPOS>ATOM
      1 S1          3.5390    7.3870   21.0440 S.3       1 ETS302      0.0000 
      2 C2          3.3660    7.0790   19.3060 C.2       1 ETS302      0.0000 
      3 C3          2.1230    7.5230   18.9740 C.2       1 ETS302      0.0000 
      4 C4          1.3540    8.0980   20.0050 C.2       1 ETS302      0.0000 
      5 C5         -0.0230    8.7530   19.8020 C.3       1 ETS302      0.0000 
      6 C6         -0.3310    9.7780   20.8950 C.3       1 ETS302      0.0000 
      7 C7         -0.2740    9.2020   22.3320 C.3       1 ETS302      0.0000 
      8 S8          1.4540    8.8690   22.7280 S.o2      1 ETS302      0.0000 
      9 C9          1.9710    8.1570   21.2190 C.2       1 ETS302      0.0000 
     10 S10         4.7520    6.4260   18.5050 S.o2      1 ETS302      0.0000 
     11 O11         5.4310    5.6620   19.5070 O.2       1 ETS302      0.0000 
     12 O12         5.3820    7.5460   17.8690 O.2       1 ETS302      0.0000 
     13 N13         4.1370    5.4950   17.2910 N.pl3     1 ETS302      0.0000 
     14 N14        -1.0620    7.7060   19.8070 N.4       1 ETS302      0.0000 
     15 C15        -0.7580   10.2000   23.3920 C.3       1 ETS302      0.0000 
     16 O16         2.1600   10.0790   22.7470 O.2       1 ETS302      0.0000 
     17 O17         1.6480    7.8690   23.7090 O.2       1 ETS302      0.0000 
     18 C18        -1.2840    7.1270   18.4880 C.3       1 ETS302      0.0000 
     19 C19        -2.5530    6.2770   18.5180 C.3       1 ETS302      0.0000 
     20 H           1.7485    7.4540   18.0394 H         1 ETS302      0.0000 
     21 H          -0.0212    9.2571   18.8471 H         1 ETS302      0.0000 
     22 H          -1.3344   10.1960   20.7270 H         1 ETS302      0.0000 
     23 H           0.3860   10.6091   20.8244 H         1 ETS302      0.0000 
     24 H          -0.7185    8.2729   22.4184 H         1 ETS302      0.0000 
     25 H          -0.4509    6.4877   18.1943 H         1 ETS302      0.0000 
     26 H          -1.4107    7.9044   17.7339 H         1 ETS302      0.0000 
     27 H          -0.7174    9.8124   24.3130 H         1 ETS302      0.0000 
     28 H          -0.2033   11.0320   23.3994 H         1 ETS302      0.0000 
     29 H          -1.7047   10.4803   23.2334 H         1 ETS302      0.0000 
     30 H          -2.7437    5.8627   17.6280 H         1 ETS302      0.0000 
     31 H          -2.4845    5.5307   19.1801 H         1 ETS302      0.0000 
     32 H          -3.3563    6.8176   18.7678 H         1 ETS302      0.0000 
     33 H           4.4702    5.9165   16.4476 H         1 ETS302      0.0000 
@<TRIPOS>BOND
     1    2    1 1    
     2    9    1 1    
     3    3    2 2    
     4   10    2 1    
     5    4    3 1    
     6   20    3 1    
     7    5    4 1    
     8    9    4 2    
     9    6    5 1    
    10   14    5 1    
    11   21    5 1    
    12    7    6 1    
    13   22    6 1    
    14   23    6 1    
    15    8    7 1    
    16   15    7 1    
    17   24    7 1    
    18    9    8 1    
    19   16    8 2    
    20   17    8 2    
    21   11   10 2    
    22   12   10 2    
    23   13   10 1    
    24   33   13 1    
    25   18   14 1    
    26   27   15 1    
    27   28   15 1    
    28   29   15 1    
    29   19   18 1    
    30   25   18 1    
    31   26   18 1    
    32   30   19 1    
    33   31   19 1    
    34   32   19 1    
@<TRIPOS>SUBSTRUCTURE
     1 ETS302      1 GROUP   
@<TRIPOS>SET

