#    Name: 3kp0_Z98_4_INTS_M
#    Modification time : Mon Mar 24 20:00:59 2014

@<TRIPOS>MOLECULE
3kp0_Z98_4_INTS_M
   79     0    15     0     0
SMALL
NO_CHARGES


@<TRIPOS>ATOM
      1 OD1       -20.6330   96.9430   67.7750 O.co2     3 ASC3        0.0000 
      2 OD1       -19.4720   95.5900   68.0300 O.co2    13 ASL3        0.0000 
      3 OD1       -21.7940   98.2960   67.5200 O.co2     8 ASP3        0.0000 
      4 OD1       -20.7170   96.0165   67.1790 O.co2     3 ASC3        0.0000 
      5 OD1       -21.9620   96.4430   66.3280 O.co2     8 ASP3        0.0000 
      6 O         -20.7170   96.0165   67.1790 O.2       1 ALC1        0.0000 
      7 O         -19.4720   95.5900   68.0300 O.2      11 ALL1        0.0000 
      8 O         -21.9620   96.4430   66.3280 O.2       6 ALP1        0.0000 
      9 N         -22.7790   95.3165   70.1855 N.am      2 SEC2        0.0000 
     10 N         -21.9330   94.5750   69.3000 N.am     12 SEL2        0.0000 
     11 N         -23.6250   96.0580   71.0710 N.am      7 SEP2        0.0000 
     12 N         -22.5305   93.3770   70.3180 N.am      2 SEC2        0.0000 
     13 N         -23.1280   92.1790   71.3360 N.am      7 SEP2        0.0000 
     14 N         -18.0330   92.6875   73.4865 N.am      2 SEC2        0.0000 
     15 N         -19.6290   92.6000   74.0630 N.am     12 SEL2        0.0000 
     16 N         -16.4370   92.7750   72.9100 N.am      7 SEP2        0.0000 
     17 O         -18.1615   93.0175   74.5520 O.2       1 ALC1        0.0000 
     18 O         -19.6290   92.6000   74.0630 O.2      11 ALL1        0.0000 
     19 O         -16.6940   93.4350   75.0410 O.2       6 ALP1        0.0000 
     20 CA        -23.9945   95.0270   76.7570 C.3       5 GLC5        0.0000 
     21 CA        -21.9570   94.3200   77.3130 C.3      15 GLL5        0.0000 
     22 CA        -26.0320   95.7340   76.2010 C.3      10 GLP5        0.0000 
     23 CA        -22.8450   94.4610   78.8650 C.3       5 GLC5        0.0000 
     24 CA        -23.7330   94.6020   80.4170 C.3      10 GLP5        0.0000 
     25 CA        -20.3360   93.0585   78.2245 C.3       5 GLC5        0.0000 
     26 CA        -18.7150   91.7970   79.1360 C.3      10 GLP5        0.0000 
     27 CA        -18.4060   93.0605   69.3040 C.3       5 GLC5        0.0000 
     28 CA        -19.6780   94.9160   69.3150 C.3      15 GLL5        0.0000 
     29 CA        -17.1340   91.2050   69.2930 C.3      10 GLP5        0.0000 
     30 CA        -21.5755   95.1270   72.6205 C.3       5 GLC5        0.0000 
     31 CA        -19.5200   95.0910   71.9420 C.3      15 GLL5        0.0000 
     32 CA        -23.6310   95.1630   73.2990 C.3      10 GLP5        0.0000 
     33 CA        -21.0375   89.0250   76.7765 C.3       5 GLC5        0.0000 
     34 CA        -21.2140   90.7720   75.5920 C.3      15 GLL5        0.0000 
     35 CA        -20.8610   87.2780   77.9610 C.3      10 GLP5        0.0000 
     36 CA        -21.3630   88.7725   74.8900 C.3       5 GLC5        0.0000 
     37 CA        -21.5120   86.7730   74.1880 C.3      10 GLP5        0.0000 
     38 CA        -22.6825   95.9000   75.6730 C.3       5 GLC5        0.0000 
     39 CA        -21.1420   96.7100   76.8030 C.3      15 GLL5        0.0000 
     40 CA        -24.2230   95.0900   74.5430 C.3      10 GLP5        0.0000 
     41 CA        -19.7895   96.3220   77.3975 C.3       5 GLC5        0.0000 
     42 CA        -18.4370   95.9340   77.9920 C.3      10 GLP5        0.0000 
     43 NZ        -24.4160   98.4615   79.5305 N.4       4 LYC4        0.0000 
     44 NZ        -23.6690   99.0790   78.4340 N.4      14 LYL4        0.0000 
     45 NZ        -26.2360   98.0640   79.8740 N.4       9 LYP4        0.0000 
     46 N         -24.8905   98.8130   78.5355 N.am      2 SEC2        0.0000 
     47 N         -23.6690   99.0790   78.4340 N.am     12 SEL2        0.0000 
     48 N         -26.1120   98.5470   78.6370 N.am      7 SEP2        0.0000 
     49 N         -24.4160   98.4615   79.5305 N.am      2 SEC2        0.0000 
     50 N         -25.1630   97.8440   80.6270 N.am      7 SEP2        0.0000 
     51 NZ        -20.1760  100.3220   79.1775 N.4       4 LYC4        0.0000 
     52 NZ        -21.1010   99.2490   78.4570 N.4      14 LYL4        0.0000 
     53 NZ        -18.4370  100.8440   80.7920 N.4       9 LYP4        0.0000 
     54 N         -20.1760  100.3220   79.1775 N.am      2 SEC2        0.0000 
     55 N         -21.1010   99.2490   78.4570 N.am     12 SEL2        0.0000 
     56 N         -19.2510  101.3950   79.8980 N.am      7 SEP2        0.0000 
     57 NZ        -23.7400   97.6715   80.2490 N.4       4 LYC4        0.0000 
     58 NZ        -22.3170   97.4990   79.8710 N.4      14 LYL4        0.0000 
     59 N         -23.7400   97.6715   80.2490 N.am      2 SEC2        0.0000 
     60 N         -22.3170   97.4990   79.8710 N.am     12 SEL2        0.0000 
     61 N         -21.9320   97.8090   81.0300 N.am      2 SEC2        0.0000 
     62 N         -21.5470   98.1190   82.1890 N.am      7 SEP2        0.0000 
     63 NZ        -21.3615   91.6785   69.1785 N.4       4 LYC4        0.0000 
     64 NZ        -20.7390   92.7150   69.7580 N.4      14 LYL4        0.0000 
     65 NZ        -22.2100   90.6800   67.2990 N.4       9 LYP4        0.0000 
     66 N         -21.9335   92.4470   70.5470 N.am      2 SEC2        0.0000 
     67 N         -20.7390   92.7150   69.7580 N.am     12 SEL2        0.0000 
     68 N         -19.5225   92.0980   69.8570 N.am      2 SEC2        0.0000 
     69 N         -18.3060   91.4810   69.9560 N.am      7 SEP2        0.0000 
     70 N         -21.3615   91.6785   69.1785 N.am      2 SEC2        0.0000 
     71 N         -21.9840   90.6420   68.5990 N.am      7 SEP2        0.0000 
     72 N         -21.4090   92.2730   68.2080 N.am      2 SEC2        0.0000 
     73 N         -22.0790   91.8310   66.6580 N.am      7 SEP2        0.0000 
     74 CA        -19.9608   91.6570   77.4465 C.3       5 GLC5        0.0000 
     75 CA        -21.1990   92.2620   75.9220 C.3      15 GLL5        0.0000 
     76 CA        -19.8807   90.2765   75.2320 C.3       5 GLC5        0.0000 
     77 CA        -18.5550   89.0360   74.7070 C.3      10 GLP5        0.0000 
     78 CA        -21.9915   91.7679   74.0981 C.3       5 GLC5        0.0000 
     79 CA        -22.9820   91.7970   72.6480 C.3      10 GLP5        0.0000 
@<TRIPOS>BOND
@<TRIPOS>SUBSTRUCTURE
     1 ALC1        6 GROUP        1 X    ALC  0     ROOT ALC X 1
     2 SEC2        9 GROUP        1 X    SEC  0     **** SEC X 2
     3 ASC3        1 GROUP        1 X    ASC  0     **** ASC X 3
     4 LYC4       43 GROUP        1 X    LYC  0     **** LYC X 4
     5 GLC5       20 GROUP        1 X    GLC  0     **** GLC X 6
     6 ALP1        8 GROUP        1 Y    ALP  0     ROOT ALP Y 8
     7 SEP2       11 GROUP        1 Y    SEP  0     **** SEP Y 9
     8 ASP3        3 GROUP        1 Y    ASP  0     **** ASP Y 10
     9 LYP4       45 GROUP        1 Y    LYP  0     **** LYP Y 11
    10 GLP5       22 GROUP        1 Y    GLP  0     **** GLP Y 13
    11 ALL1        7 GROUP        1 Z    ALL  0     ROOT ALL Z 15
    12 SEL2       10 GROUP        1 Z    SEL  0     **** SEL Z 16
    13 ASL3        2 GROUP        1 Z    ASL  0     **** ASL Z 17
    14 LYL4       44 GROUP        1 Z    LYL  0     **** LYL Z 18
    15 GLL5       21 GROUP        1 Z    GLL  0     **** GLL Z 20
@<TRIPOS>SET

