#    Name: 3kp0_Z98_4_ligand
#    Modification time : Mon Mar 24 20:00:59 2014

@<TRIPOS>MOLECULE
3kp0_Z98_4_ligand
   39    39     1     0     0
SMALL
NO_CHARGES


@<TRIPOS>ATOM
      1 C         -20.8540   94.0150   69.2950 C.2       1 Z98767      0.0000 
      2 N         -19.4720   95.5900   68.0300 N.4       1 Z98767      0.0000 
      3 O         -21.9330   94.5750   69.3000 O.co2     1 Z98767      0.0000 
      4 P         -22.3160   98.2630   78.5450 P.3       1 Z98767      0.0000 
      5 N1        -21.9890   92.8430   77.0380 N.ar      1 Z98767      0.0000 
      6 C2        -21.1990   92.2620   75.9220 C.ar      1 Z98767      0.0000 
      7 C3        -20.3770   93.1490   75.0870 C.ar      1 Z98767      0.0000 
      8 O3        -19.6290   92.6000   74.0630 O.3       1 Z98767      0.0000 
      9 C4        -20.3270   94.6110   75.3450 C.ar      1 Z98767      0.0000 
     10 C5        -21.1380   95.2000   76.4900 C.ar      1 Z98767      0.0000 
     11 C6        -21.9570   94.3200   77.3130 C.ar      1 Z98767      0.0000 
     12 CA        -19.6780   94.9160   69.3150 C.3       1 Z98767      0.0000 
     13 CB        -19.6520   95.7970   70.5990 C.3       1 Z98767      0.0000 
     14 ND        -20.0070   95.8480   73.1350 N.2       1 Z98767      0.0000 
     15 CG        -19.5200   95.0910   71.9420 C.3       1 Z98767      0.0000 
     16 C2A       -21.2140   90.7720   75.5920 C.3       1 Z98767      0.0000 
     17 C4A       -19.4480   95.4080   74.4280 C.2       1 Z98767      0.0000 
     18 C5A       -21.1420   96.7100   76.8030 C.3       1 Z98767      0.0000 
     19 OP1       -23.6690   99.0790   78.4340 O.co2     1 Z98767      0.0000 
     20 OP2       -21.1010   99.2490   78.4570 O.co2     1 Z98767      0.0000 
     21 OP3       -22.3170   97.4990   79.8710 O.co2     1 Z98767      0.0000 
     22 OP4       -22.3210   97.2220   77.3850 O.3       1 Z98767      0.0000 
     23 OXT       -20.7390   92.7150   69.7580 O.co2     1 Z98767      0.0000 
     24 H         -22.5060   94.6802   78.0670 H         1 Z98767      0.0000 
     25 H         -18.7726   94.2031   69.4555 H         1 Z98767      0.0000 
     26 H         -20.5813   96.4172   70.6038 H         1 Z98767      0.0000 
     27 H         -18.8166   96.5308   70.4901 H         1 Z98767      0.0000 
     28 H         -18.4472   94.8197   72.0895 H         1 Z98767      0.0000 
     29 H         -20.0596   94.1158   71.8779 H         1 Z98767      0.0000 
     30 H         -18.5268   95.6257   74.6907 H         1 Z98767      0.0000 
     31 H         -20.8963   97.2346   75.8390 H         1 Z98767      0.0000 
     32 H         -20.2443   96.9018   77.4527 H         1 Z98767      0.0000 
     33 H         -20.3338   95.7331   67.5433 H         1 Z98767      0.0000 
     34 H         -19.0480   96.4883   68.1455 H         1 Z98767      0.0000 
     35 H         -18.8776   95.0611   67.4243 H         1 Z98767      0.0000 
     36 H         -20.6267   90.5586   74.8113 H         1 Z98767      0.0000 
     37 H         -20.8930   90.2182   76.3603 H         1 Z98767      0.0000 
     38 H         -22.1333   90.4515   75.3635 H         1 Z98767      0.0000 
     39 H         -18.6788   92.8039   74.2987 H         1 Z98767      0.0000 
@<TRIPOS>BOND
     1    3    1 ar   
     2   12    1 1    
     3   23    1 ar   
     4   12    2 1    
     5   33    2 1    
     6   34    2 1    
     7   35    2 1    
     8   19    4 ar   
     9   20    4 ar   
    10   21    4 ar   
    11   22    4 1    
    12    6    5 ar   
    13   11    5 ar   
    14    7    6 ar   
    15   16    6 1    
    16    8    7 1    
    17    9    7 ar   
    18   39    8 1    
    19   10    9 ar   
    20   17    9 1    
    21   11   10 ar   
    22   18   10 1    
    23   24   11 1    
    24   13   12 1    
    25   25   12 1    
    26   15   13 1    
    27   26   13 1    
    28   27   13 1    
    29   15   14 1    
    30   17   14 2    
    31   28   15 1    
    32   29   15 1    
    33   36   16 1    
    34   37   16 1    
    35   38   16 1    
    36   30   17 1    
    37   22   18 1    
    38   31   18 1    
    39   32   18 1    
@<TRIPOS>SUBSTRUCTURE
     1 Z98767      1 GROUP   
@<TRIPOS>SET

