#    Name: 4ce3_L4V_1_INTS_M
#    Modification time : Tue Mar 25 09:14:55 2014

@<TRIPOS>MOLECULE
4ce3_L4V_1_INTS_M
   50     0     6     0     0
SMALL
NO_CHARGES


@<TRIPOS>ATOM
      1 CA         21.3545   -3.9875   -3.3395 C.3       2 GLC5        0.0000 
      2 CA         19.9290   -5.4450   -3.8030 C.3       6 GLL5        0.0000 
      3 CA         22.7800   -2.5300   -2.8760 C.3       4 GLP5        0.0000 
      4 CA         15.4450   -0.7725   -1.5535 C.3       2 GLC5        0.0000 
      5 CA         14.6450   -1.7130   -3.1990 C.3       6 GLL5        0.0000 
      6 CA         16.2450    0.1680    0.0920 C.3       4 GLP5        0.0000 
      7 CA         15.7735    0.6915   -3.8920 C.3       2 GLC5        0.0000 
      8 CA         14.0610   -0.6730   -4.1430 C.3       6 GLL5        0.0000 
      9 CA         17.4860    2.0560   -3.6410 C.3       4 GLP5        0.0000 
     10 CA         14.0350    1.0535   -3.7665 C.3       2 GLC5        0.0000 
     11 CA         14.0090    2.7800   -3.3900 C.3       4 GLP5        0.0000 
     12 CA         13.5170    1.2545   -4.8845 C.3       2 GLC5        0.0000 
     13 CA         13.0250   -0.2710   -6.3790 C.3       6 GLL5        0.0000 
     14 CA         14.4290   -2.1905   -9.3955 C.3       2 GLC5        0.0000 
     15 CA         14.9880   -0.9980   -7.8520 C.3       6 GLL5        0.0000 
     16 CA         13.8700   -3.3830  -10.9390 C.3       4 GLP5        0.0000 
     17 CA         18.3515   -4.5680   -7.9095 C.3       2 GLC5        0.0000 
     18 CA         17.0560   -3.8130   -7.0700 C.3       6 GLL5        0.0000 
     19 CA         19.6470   -5.3230   -8.7490 C.3       4 GLP5        0.0000 
     20 N          21.3075   -1.8025   -5.7185 N.am      1 SEC2        0.0000 
     21 N          19.9050   -1.8310   -6.3250 N.am      5 SEL2        0.0000 
     22 N          22.7100   -1.7740   -5.1120 N.am      3 SEP2        0.0000 
     23 CA         16.7840   -1.8720   -0.6010 C.3       2 GLC5        0.0000 
     24 CA         17.3230   -3.9120   -1.2940 C.3       6 GLL5        0.0000 
     25 CA         17.0675   -3.8515    0.2585 C.3       2 GLC5        0.0000 
     26 CA         16.8120   -3.7910    1.8110 C.3       4 GLP5        0.0000 
     27 CA         18.2650   -1.5025   -9.3380 C.3       2 GLC5        0.0000 
     28 CA         17.4710   -1.4530   -7.7300 C.3       6 GLL5        0.0000 
     29 CA         19.0590   -1.5520  -10.9460 C.3       4 GLP5        0.0000 
     30 CA         19.5502   -4.6715   -6.8190 C.3       2 GLC5        0.0000 
     31 CA         19.0140   -3.4650   -4.9000 C.3       6 GLL5        0.0000 
     32 CA         21.3607   -3.4030   -4.5895 C.3       2 GLC5        0.0000 
     33 CA         19.8930   -4.5750   -4.8780 C.3       6 GLL5        0.0000 
     34 CA         23.2680   -2.7860   -4.2900 C.3       4 GLP5        0.0000 
     35 CA         19.8865   -6.9630   -5.1922 C.3       2 GLC5        0.0000 
     36 CA         19.8620   -8.9160   -6.0440 C.3       4 GLP5        0.0000 
     37 CA         17.9855   -6.4760   -3.3763 C.3       2 GLC5        0.0000 
     38 CA         16.4510   -7.6160   -3.4950 C.3       4 GLP5        0.0000 
     39 CA         20.4575   -4.8825   -1.6252 C.3       2 GLC5        0.0000 
     40 CA         19.1110   -5.2270   -2.7120 C.3       6 GLL5        0.0000 
     41 CA         21.3950   -4.4290    0.0070 C.3       4 GLP5        0.0000 
     42 CA         17.1245   -5.8195   -2.7480 C.3       2 GLC5        0.0000 
     43 CA         18.2730   -4.1340   -2.7080 C.3       6 GLL5        0.0000 
     44 CA         19.5965   -4.2260   -0.9970 C.3       2 GLC5        0.0000 
     45 CA         18.1778   -0.8128   -3.9367 C.3       2 GLC5        0.0000 
     46 CA         18.1830   -3.2420   -3.7740 C.3       6 GLL5        0.0000 
     47 CA         18.6780    1.0530   -4.1390 C.3       4 GLP5        0.0000 
     48 CA         17.9765    0.3680   -6.5922 C.3       2 GLC5        0.0000 
     49 CA         16.3090   -0.6530   -7.1490 C.3       6 GLL5        0.0000 
     50 CA         19.0630    1.7890   -5.7450 C.3       4 GLP5        0.0000 
@<TRIPOS>BOND
@<TRIPOS>SUBSTRUCTURE
     1 SEC2       20 GROUP        1 X    SEC  0     ROOT SEC X 2
     2 GLC5        1 GROUP        1 X    GLC  0     **** GLC X 6
     3 SEP2       22 GROUP        1 Y    SEP  0     ROOT SEP Y 9
     4 GLP5        3 GROUP        1 Y    GLP  0     **** GLP Y 13
     5 SEL2       21 GROUP        1 Z    SEL  0     ROOT SEL Z 16
     6 GLL5        2 GROUP        1 Z    GLL  0     **** GLL Z 20
@<TRIPOS>SET

