#    Name: 4ce3_L4V_1_ligand
#    Modification time : Tue Mar 25 09:14:55 2014

@<TRIPOS>MOLECULE
4ce3_L4V_1_ligand
   45    46     1     0     0
SMALL
NO_CHARGES


@<TRIPOS>ATOM
      1 C1         18.9440   -2.5540   -6.1100 C.2       1 L4V1215     0.0000 
      2 C2         19.0140   -3.4650   -4.9000 C.ar      1 L4V1215     0.0000 
      3 C3         19.8930   -4.5750   -4.8780 C.ar      1 L4V1215     0.0000 
      4 C4         19.9290   -5.4450   -3.8030 C.ar      1 L4V1215     0.0000 
      5 C5         19.1110   -5.2270   -2.7120 C.ar      1 L4V1215     0.0000 
      6 C6         18.2730   -4.1340   -2.7080 C.ar      1 L4V1215     0.0000 
      7 C7         18.1830   -3.2420   -3.7740 C.ar      1 L4V1215     0.0000 
      8 C8         17.1720   -2.1150   -3.6950 C.3       1 L4V1215     0.0000 
      9 C9         15.7290   -2.5730   -3.7930 C.2       1 L4V1215     0.0000 
     10 C10        14.6450   -1.7130   -3.1990 C.3       1 L4V1215     0.0000 
     11 C11        14.0610   -0.6730   -4.1430 C.3       1 L4V1215     0.0000 
     12 C12        13.1670   -1.2460   -5.2390 C.3       1 L4V1215     0.0000 
     13 C13        13.0250   -0.2710   -6.3790 C.2       1 L4V1215     0.0000 
     14 C14        13.7950   -0.1580   -7.4610 C.2       1 L4V1215     0.0000 
     15 C15        14.9880   -0.9980   -7.8520 C.3       1 L4V1215     0.0000 
     16 C16        16.3090   -0.6530   -7.1490 C.3       1 L4V1215     0.0000 
     17 C18        17.0560   -3.8130   -7.0700 C.3       1 L4V1215     0.0000 
     18 O2         19.9050   -1.8310   -6.3250 O.2       1 L4V1215     0.0000 
     19 O3         20.7650   -4.7840   -5.8860 O.co2     1 L4V1215     0.0000 
     20 O4         19.0890   -6.1000   -1.6750 O.3       1 L4V1215     0.0000 
     21 CL1        17.3230   -3.9120   -1.2940 Cl        1 L4V1215     0.0000 
     22 C17        17.4710   -1.4530   -7.7300 C.3       1 L4V1215     0.0000 
     23 O5         15.4560   -3.6280   -4.3220 O.2       1 L4V1215     0.0000 
     24 N          17.8710   -2.6070   -6.9230 N.am      1 L4V1215     0.0000 
     25 H          20.5663   -6.2550   -3.8174 H         1 L4V1215     0.0000 
     26 H          17.3751   -1.3917   -4.5052 H         1 L4V1215     0.0000 
     27 H          17.3125   -1.5714   -2.7434 H         1 L4V1215     0.0000 
     28 H          15.0418   -1.1935   -2.3020 H         1 L4V1215     0.0000 
     29 H          13.8218   -2.3628   -2.8354 H         1 L4V1215     0.0000 
     30 H          14.8878   -0.1114   -4.6152 H         1 L4V1215     0.0000 
     31 H          13.4783    0.0596   -3.5549 H         1 L4V1215     0.0000 
     32 H          12.1847   -1.4652   -4.8171 H         1 L4V1215     0.0000 
     33 H          13.6044   -2.1772   -5.6028 H         1 L4V1215     0.0000 
     34 H          12.1807    0.3869   -6.2443 H         1 L4V1215     0.0000 
     35 H          13.5925    0.6133   -8.1907 H         1 L4V1215     0.0000 
     36 H          15.1472   -0.9187   -8.9495 H         1 L4V1215     0.0000 
     37 H          14.7605   -2.0690   -7.6583 H         1 L4V1215     0.0000 
     38 H          16.2134   -0.8738   -6.0858 H         1 L4V1215     0.0000 
     39 H          16.5071    0.4122   -7.2690 H         1 L4V1215     0.0000 
     40 H          18.3292   -0.7598   -7.8642 H         1 L4V1215     0.0000 
     41 H          17.1835   -1.7784   -8.7530 H         1 L4V1215     0.0000 
     42 H          17.5941   -4.5863   -7.4054 H         1 L4V1215     0.0000 
     43 H          16.6488   -4.0943   -6.2010 H         1 L4V1215     0.0000 
     44 H          16.3044   -3.6769   -7.7155 H         1 L4V1215     0.0000 
     45 H          19.7776   -6.7887   -1.9020 H         1 L4V1215     0.0000 
@<TRIPOS>BOND
     1    2    1 1    
     2   18    1 2    
     3   24    1 am   
     4    3    2 ar   
     5    7    2 ar   
     6    4    3 ar   
     7   19    3 1    
     8    5    4 ar   
     9   25    4 1    
    10    6    5 ar   
    11   20    5 1    
    12    7    6 ar   
    13   21    6 1    
    14    8    7 1    
    15    9    8 1    
    16   26    8 1    
    17   27    8 1    
    18   10    9 1    
    19   23    9 2    
    20   11   10 1    
    21   28   10 1    
    22   29   10 1    
    23   12   11 1    
    24   30   11 1    
    25   31   11 1    
    26   13   12 1    
    27   32   12 1    
    28   33   12 1    
    29   14   13 2    
    30   34   13 1    
    31   15   14 1    
    32   35   14 1    
    33   16   15 1    
    34   36   15 1    
    35   37   15 1    
    36   22   16 1    
    37   38   16 1    
    38   39   16 1    
    39   24   17 1    
    40   42   17 1    
    41   43   17 1    
    42   44   17 1    
    43   45   20 1    
    44   24   22 1    
    45   40   22 1    
    46   41   22 1    
@<TRIPOS>SUBSTRUCTURE
     1 L4V1215     1 GROUP   
@<TRIPOS>SET

