#    Name: 3qtu_X44_1_INTS_M
#    Modification time : Tue Mar 25 10:07:56 2014

@<TRIPOS>MOLECULE
3qtu_X44_1_INTS_M
   59     0     9     0     0
SMALL
NO_CHARGES


@<TRIPOS>ATOM
      1 N         118.1255   10.8415  -52.0345 N.am      2 SEC2        0.0000 
      2 N         119.0990   10.0720  -50.8930 N.am      8 SEL2        0.0000 
      3 N         117.1520   11.6110  -53.1760 N.am      5 SEP2        0.0000 
      4 O         120.5295    9.9805  -53.6565 O.2       1 ALC1        0.0000 
      5 O         120.5090    9.1440  -52.4730 O.2       7 ALL1        0.0000 
      6 O         120.5500   10.8170  -54.8400 O.2       4 ALP1        0.0000 
      7 O         122.8935    2.2960  -46.8135 O.2       1 ALC1        0.0000 
      8 O         124.0330    2.7550  -46.2640 O.2       7 ALL1        0.0000 
      9 O         121.7540    1.8370  -47.3630 O.2       4 ALP1        0.0000 
     10 O         125.0455    2.9420  -47.1260 O.2       1 ALC1        0.0000 
     11 O         126.0580    3.1290  -47.9880 O.2       4 ALP1        0.0000 
     12 CA        114.7560   11.9480  -49.1520 C.3       3 GLC5        0.0000 
     13 CA        116.2110   11.4830  -47.7490 C.3       9 GLL5        0.0000 
     14 CA        113.3010   12.4130  -50.5550 C.3       6 GLP5        0.0000 
     15 CA        126.2850    6.2615  -47.8745 C.3       3 GLC5        0.0000 
     16 CA        124.1200    6.0500  -47.9410 C.3       9 GLL5        0.0000 
     17 CA        128.4500    6.4730  -47.8080 C.3       6 GLP5        0.0000 
     18 N         113.3050    8.2075  -46.2375 N.am      2 SEC2        0.0000 
     19 N         113.2990    9.1170  -44.9710 N.am      8 SEL2        0.0000 
     20 N         113.3110    7.2980  -47.5040 N.am      5 SEP2        0.0000 
     21 CA        120.1315   10.7510  -47.8535 C.3       3 GLC5        0.0000 
     22 CA        119.9550    8.9300  -48.7470 C.3       9 GLL5        0.0000 
     23 CA        120.3080   12.5720  -46.9600 C.3       6 GLP5        0.0000 
     24 CA        121.8935    9.5485  -47.9075 C.3       3 GLC5        0.0000 
     25 CA        123.8320   10.1670  -47.0680 C.3       6 GLP5        0.0000 
     26 CA        121.1550   10.3455  -49.8185 C.3       3 GLC5        0.0000 
     27 CA        122.3550   11.7610  -50.8900 C.3       6 GLP5        0.0000 
     28 CA        118.4770    7.8095  -49.2905 C.3       3 GLC5        0.0000 
     29 CA        116.9990    6.6890  -49.8340 C.3       6 GLP5        0.0000 
     30 CA        121.3950   10.3217  -50.8160 C.3       3 GLC5        0.0000 
     31 CA        120.7350    8.5230  -50.2260 C.3       9 GLL5        0.0000 
     32 CA        119.4220    7.7918  -51.3200 C.3       3 GLC5        0.0000 
     33 CA        120.1350    9.2420  -51.2580 C.3       9 GLL5        0.0000 
     34 CA        118.4090    6.7010  -51.8980 C.3       6 GLP5        0.0000 
     35 CA        118.5118   11.7855  -47.4295 C.3       3 GLC5        0.0000 
     36 CA        117.2200   10.5150  -48.0490 C.3       9 GLL5        0.0000 
     37 CA        117.1415    8.3135  -48.7320 C.3       3 GLC5        0.0000 
     38 CA        123.3897    8.5038  -48.1183 C.3       3 GLC5        0.0000 
     39 CA        122.2480    6.8630  -49.3100 C.3       9 GLL5        0.0000 
     40 CA        121.2252    5.2807  -50.4555 C.3       3 GLC5        0.0000 
     41 CA        120.6570    4.0690  -52.0130 C.3       6 GLP5        0.0000 
     42 CA        117.3990   10.7203  -45.5063 C.3       3 GLC5        0.0000 
     43 CA        115.3520   11.2960  -46.6460 C.3       9 GLL5        0.0000 
     44 CA        119.3730   10.7240  -44.7730 C.3       6 GLP5        0.0000 
     45 CA        114.0704   10.0916  -47.4601 C.3       3 GLC5        0.0000 
     46 CA        115.4980   10.1370  -45.8330 C.3       9 GLL5        0.0000 
     47 CA        112.5010    9.4200  -48.4050 C.3       6 GLP5        0.0000 
     48 CA        118.1463    9.9973  -45.7185 C.3       3 GLC5        0.0000 
     49 CA        116.4910    9.1800  -46.1170 C.3       9 GLL5        0.0000 
     50 CA        115.9617    7.4233  -46.7580 C.3       3 GLC5        0.0000 
     51 CA        117.3480    9.3610  -47.2110 C.3       9 GLL5        0.0000 
     52 CA        115.0040    5.5760  -46.8520 C.3       6 GLP5        0.0000 
     53 CA        124.2687    4.6980  -49.1950 C.3       3 GLC5        0.0000 
     54 CA        123.6470    6.8180  -49.0270 C.3       9 GLL5        0.0000 
     55 CA        124.6540    2.9620  -49.9060 C.3       6 GLP5        0.0000 
     56 CA        124.1895    7.0498  -46.5145 C.3       3 GLC5        0.0000 
     57 CA        124.7140    8.4130  -45.4950 C.3       6 GLP5        0.0000 
     58 CA        123.5847    4.1505  -48.5832 C.3       3 GLC5        0.0000 
     59 CA        123.2100    5.3230  -47.1270 C.3       9 GLL5        0.0000 
@<TRIPOS>BOND
@<TRIPOS>SUBSTRUCTURE
     1 ALC1        4 GROUP        1 X    ALC  0     ROOT ALC X 1
     2 SEC2        1 GROUP        1 X    SEC  0     **** SEC X 2
     3 GLC5       12 GROUP        1 X    GLC  0     **** GLC X 6
     4 ALP1        6 GROUP        1 Y    ALP  0     ROOT ALP Y 8
     5 SEP2        3 GROUP        1 Y    SEP  0     **** SEP Y 9
     6 GLP5       14 GROUP        1 Y    GLP  0     **** GLP Y 13
     7 ALL1        5 GROUP        1 Z    ALL  0     ROOT ALL Z 15
     8 SEL2        2 GROUP        1 Z    SEL  0     **** SEL Z 16
     9 GLL5       13 GROUP        1 Z    GLL  0     **** GLL Z 20
@<TRIPOS>SET

