#    Name: 3qtu_X44_1_ligand
#    Modification time : Tue Mar 25 10:07:56 2014

@<TRIPOS>MOLECULE
3qtu_X44_1_ligand
   44    46     1     0     0
SMALL
NO_CHARGES


@<TRIPOS>ATOM
      1 N01       119.0990   10.0720  -50.8930 N.2       1 X44451      0.0000 
      2 N02       117.9680   10.7430  -49.0780 N.pl3     1 X44451      0.0000 
      3 N03       120.5090    9.1440  -52.4730 N.pl3     1 X44451      0.0000 
      4 N04       115.1730    8.9970  -43.2680 N.pl3     1 X44451      0.0000 
      5 N05       124.0330    2.7550  -46.2640 N.pl3     1 X44451      0.0000 
      6 C06       120.7350    8.5230  -50.2260 C.2       1 X44451      0.0000 
      7 C07       120.1350    9.2420  -51.2580 C.2       1 X44451      0.0000 
      8 C08       118.8990   10.0100  -49.6080 C.2       1 X44451      0.0000 
      9 C09       117.2200   10.5150  -48.0490 C.ar      1 X44451      0.0000 
     10 C10       121.7910    7.6170  -50.3730 C.2       1 X44451      0.0000 
     11 C11       122.2480    6.8630  -49.3100 C.ar      1 X44451      0.0000 
     12 C12       116.2110   11.4830  -47.7490 C.ar      1 X44451      0.0000 
     13 C13       115.3520   11.2960  -46.6460 C.ar      1 X44451      0.0000 
     14 C14       115.4980   10.1370  -45.8330 C.ar      1 X44451      0.0000 
     15 C15       116.4910    9.1800  -46.1170 C.ar      1 X44451      0.0000 
     16 C16       117.3480    9.3610  -47.2110 C.ar      1 X44451      0.0000 
     17 C17       123.6470    6.8180  -49.0270 C.ar      1 X44451      0.0000 
     18 C18       124.1200    6.0500  -47.9410 C.ar      1 X44451      0.0000 
     19 C19       123.2100    5.3230  -47.1270 C.ar      1 X44451      0.0000 
     20 C20       121.8210    5.3550  -47.3940 C.ar      1 X44451      0.0000 
     21 C21       121.3390    6.1220  -48.4860 C.ar      1 X44451      0.0000 
     22 O22       122.3110    7.4670  -51.4650 O.2       1 X44451      0.0000 
     23 O23       113.2990    9.1170  -44.9710 O.2       1 X44451      0.0000 
     24 O24       113.9530   11.1630  -43.9800 O.2       1 X44451      0.0000 
     25 O25       125.1160    4.9040  -45.3710 O.2       1 X44451      0.0000 
     26 O26       122.8970    4.4110  -44.6600 O.2       1 X44451      0.0000 
     27 S27       119.9550    8.9300  -48.7470 S.3       1 X44451      0.0000 
     28 S28       114.4140    9.8830  -44.4770 S.o2      1 X44451      0.0000 
     29 S29       123.8310    4.3560  -45.7570 S.o2      1 X44451      0.0000 
     30 H         117.7859   11.7265  -49.5947 H         1 X44451      0.0000 
     31 H         120.0324    9.7296  -53.1287 H         1 X44451      0.0000 
     32 H         121.2438    8.4908  -52.6559 H         1 X44451      0.0000 
     33 H         115.9707    9.4253  -42.8435 H         1 X44451      0.0000 
     34 H         114.7729    8.1046  -43.0593 H         1 X44451      0.0000 
     35 H         123.2295    2.1646  -46.1877 H         1 X44451      0.0000 
     36 H         124.9415    2.5124  -46.6040 H         1 X44451      0.0000 
     37 H         116.1191   12.3093  -48.3404 H         1 X44451      0.0000 
     38 H         114.6329   11.9799  -46.4288 H         1 X44451      0.0000 
     39 H         116.5847    8.3520  -45.5219 H         1 X44451      0.0000 
     40 H         118.0735    8.6723  -47.4233 H         1 X44451      0.0000 
     41 H         124.2956    7.3409  -49.6111 H         1 X44451      0.0000 
     42 H         125.1204    6.0141  -47.7360 H         1 X44451      0.0000 
     43 H         121.1734    4.8344  -46.8105 H         1 X44451      0.0000 
     44 H         120.3407    6.1503  -48.6911 H         1 X44451      0.0000 
@<TRIPOS>BOND
     1    7    1 1    
     2    8    1 2    
     3    8    2 1    
     4    9    2 1    
     5   30    2 1    
     6    7    3 1    
     7   31    3 1    
     8   32    3 1    
     9   28    4 1    
    10   33    4 1    
    11   34    4 1    
    12   29    5 1    
    13   35    5 1    
    14   36    5 1    
    15    7    6 2    
    16   10    6 1    
    17   27    6 1    
    18   27    8 1    
    19   12    9 ar   
    20   16    9 ar   
    21   11   10 1    
    22   22   10 2    
    23   17   11 ar   
    24   21   11 ar   
    25   13   12 ar   
    26   37   12 1    
    27   14   13 ar   
    28   38   13 1    
    29   15   14 ar   
    30   28   14 1    
    31   16   15 ar   
    32   39   15 1    
    33   40   16 1    
    34   18   17 ar   
    35   41   17 1    
    36   19   18 ar   
    37   42   18 1    
    38   20   19 ar   
    39   29   19 1    
    40   21   20 ar   
    41   43   20 1    
    42   44   21 1    
    43   28   23 2    
    44   28   24 2    
    45   29   25 2    
    46   29   26 2    
@<TRIPOS>SUBSTRUCTURE
     1 X44451      1 GROUP   
@<TRIPOS>SET

