#    Name: 2vcj_2EQ_1_INTS_M
#    Modification time : Tue Mar 25 01:28:40 2014

@<TRIPOS>MOLECULE
2vcj_2EQ_1_INTS_M
   60     0     6     0     0
SMALL
NO_CHARGES


@<TRIPOS>ATOM
      1 CA         37.8655    4.1215   20.2340 C.3       2 GLC5        0.0000 
      2 CA         36.4110    3.3290   21.5060 C.3       6 GLL5        0.0000 
      3 CA         39.3200    4.9140   18.9620 C.3       4 GLP5        0.0000 
      4 CA         37.2305    7.5785   22.9205 C.3       2 GLC5        0.0000 
      5 CA         35.5330    6.7900   22.5390 C.3       6 GLL5        0.0000 
      6 CA         38.9280    8.3670   23.3020 C.3       4 GLP5        0.0000 
      7 CA         36.9690    8.1810   23.9835 C.3       2 GLC5        0.0000 
      8 CA         35.0100    7.9950   24.6650 C.3       6 GLL5        0.0000 
      9 CA         30.2425    7.7000   25.0690 C.3       2 GLC5        0.0000 
     10 CA         32.3300    7.5250   24.3630 C.3       6 GLL5        0.0000 
     11 CA         28.1550    7.8750   25.7750 C.3       4 GLP5        0.0000 
     12 O          31.2675    8.0385   30.4375 O.2       1 ALC1        0.0000 
     13 O          32.0040    7.0180   29.6070 O.2       5 ALL1        0.0000 
     14 O          30.5310    9.0590   31.2680 O.2       3 ALP1        0.0000 
     15 CA         31.5080    4.4070   29.2790 C.3       2 GLC5        0.0000 
     16 CA         32.5270    5.9630   30.4700 C.3       6 GLL5        0.0000 
     17 CA         30.4890    2.8510   28.0880 C.3       4 GLP5        0.0000 
     18 CA         30.7535    6.2365   30.2950 C.3       2 GLC5        0.0000 
     19 CA         28.9800    6.5100   30.1200 C.3       4 GLP5        0.0000 
     20 CA         32.2450   11.7650   26.5475 C.3       2 GLC5        0.0000 
     21 CA         31.1350   10.6160   25.0320 C.3       6 GLL5        0.0000 
     22 CA         33.3550   12.9140   28.0630 C.3       4 GLP5        0.0000 
     23 CA         30.4925   12.5505   25.5590 C.3       2 GLC5        0.0000 
     24 CA         29.8500   14.4850   26.0860 C.3       4 GLP5        0.0000 
     25 CA         33.2255   11.1425   26.3685 C.3       2 GLC5        0.0000 
     26 CA         32.3420   11.0120   24.4870 C.3       6 GLL5        0.0000 
     27 CA         34.1090   11.2730   28.2500 C.3       4 GLP5        0.0000 
     28 CA         32.7270   10.8520   21.6640 C.3       2 GLC5        0.0000 
     29 CA         33.8320   12.3300   22.6330 C.3       6 GLL5        0.0000 
     30 CA         31.6220    9.3740   20.6950 C.3       4 GLP5        0.0000 
     31 CA         35.1490   13.4375   23.8695 C.3       2 GLC5        0.0000 
     32 CA         36.4660   14.5450   25.1060 C.3       4 GLP5        0.0000 
     33 CA         34.8635   13.5270   21.7035 C.3       2 GLC5        0.0000 
     34 CA         35.8950   14.7240   20.7740 C.3       4 GLP5        0.0000 
     35 CA         30.9465   14.2645   22.5525 C.3       2 GLC5        0.0000 
     36 CA         31.1910   12.2230   22.7830 C.3       6 GLL5        0.0000 
     37 CA         30.7020   16.3060   22.3220 C.3       4 GLP5        0.0000 
     38 CA         29.3275   12.3545   25.5695 C.3       2 GLC5        0.0000 
     39 CA         29.9670   11.0340   24.4550 C.3       6 GLL5        0.0000 
     40 CA         28.6880   13.6750   26.6840 C.3       4 GLP5        0.0000 
     41 O          27.5955   11.1440   24.4920 O.2       1 ALC1        0.0000 
     42 O          28.8030   10.6630   24.9840 O.2       5 ALL1        0.0000 
     43 O          26.3880   11.6250   24.0000 O.2       3 ALP1        0.0000 
     44 CA         33.7850    9.8075   26.8945 C.3       2 GLC5        0.0000 
     45 CA         32.7890    8.2220   25.4630 C.3       6 GLL5        0.0000 
     46 CA         32.1962    8.3332   22.2910 C.3       2 GLC5        0.0000 
     47 CA         31.4922    5.7222   23.1995 C.3       2 GLC5        0.0000 
     48 CA         33.2110    7.0600   23.4110 C.3       6 GLL5        0.0000 
     49 CA         30.2140    4.1520   22.5120 C.3       4 GLP5        0.0000 
     50 CA         29.8253    8.5660   26.0220 C.3       2 GLC5        0.0000 
     51 CA         31.8790    8.7000   26.3770 C.3       6 GLL5        0.0000 
     52 CA         32.8023   10.2650   27.2595 C.3       2 GLC5        0.0000 
     53 CA         31.1120    9.8140   26.1610 C.3       6 GLL5        0.0000 
     54 CA         29.3530    9.3500   25.2593 C.3       2 GLC5        0.0000 
     55 CA         31.9885   10.3943   22.3083 C.3       2 GLC5        0.0000 
     56 CA         30.2197   13.2553   24.5718 C.3       2 GLC5        0.0000 
     57 CA         28.6008   10.3450   22.8283 C.3       2 GLC5        0.0000 
     58 CA         29.9880   11.8280   23.3320 C.3       6 GLL5        0.0000 
     59 CA         27.2240    9.2590   21.7630 C.3       4 GLP5        0.0000 
     60 CA         30.9501   10.4519   22.2256 C.3       2 GLC5        0.0000 
@<TRIPOS>BOND
@<TRIPOS>SUBSTRUCTURE
     1 ALC1       12 GROUP        1 X    ALC  0     ROOT ALC X 1
     2 GLC5        1 GROUP        1 X    GLC  0     **** GLC X 6
     3 ALP1       14 GROUP        1 Y    ALP  0     ROOT ALP Y 8
     4 GLP5        3 GROUP        1 Y    GLP  0     **** GLP Y 13
     5 ALL1       13 GROUP        1 Z    ALL  0     ROOT ALL Z 15
     6 GLL5        2 GROUP        1 Z    GLL  0     **** GLL Z 20
@<TRIPOS>SET

