#    Name: 2vcj_2EQ_1_ligand
#    Modification time : Tue Mar 25 01:28:40 2014

@<TRIPOS>MOLECULE
2vcj_2EQ_1_ligand
   57    60     1     0     0
SMALL
NO_CHARGES


@<TRIPOS>ATOM
      1 C20        36.0920    4.7760   23.9480 C.3       1 2EQ1224     0.0000 
      2 C21        37.0300    3.6260   23.6890 C.3       1 2EQ1224     0.0000 
      3 O4         37.4070    3.7880   22.3460 O.3       1 2EQ1224     0.0000 
      4 C22        36.4110    3.3290   21.5060 C.3       1 2EQ1224     0.0000 
      5 C23        35.4780    4.5100   21.4960 C.3       1 2EQ1224     0.0000 
      6 N4         35.7050    5.3550   22.6660 N.4       1 2EQ1224     0.0000 
      7 C19        35.5330    6.7900   22.5390 C.3       1 2EQ1224     0.0000 
      8 C16        34.5530    7.2940   23.5700 C.ar      1 2EQ1224     0.0000 
      9 C17        35.0100    7.9950   24.6650 C.ar      1 2EQ1224     0.0000 
     10 C18        34.1330    8.4620   25.6150 C.ar      1 2EQ1224     0.0000 
     11 C15        33.2110    7.0600   23.4110 C.ar      1 2EQ1224     0.0000 
     12 C14        32.3300    7.5250   24.3630 C.ar      1 2EQ1224     0.0000 
     13 C13        32.7890    8.2220   25.4630 C.ar      1 2EQ1224     0.0000 
     14 C9         31.8790    8.7000   26.3770 C.2       1 2EQ1224     0.0000 
     15 C8         31.5530    8.2050   27.6140 C.2       1 2EQ1224     0.0000 
     16 C10        32.1590    7.0110   28.3040 C.2       1 2EQ1224     0.0000 
     17 O3         32.8350    6.1970   27.7070 O.2       1 2EQ1224     0.0000 
     18 N3         32.0040    7.0180   29.6070 N.am      1 2EQ1224     0.0000 
     19 C11        32.5270    5.9630   30.4700 C.3       1 2EQ1224     0.0000 
     20 C12        34.0280    6.1100   30.6460 C.3       1 2EQ1224     0.0000 
     21 N2         30.6360    8.9740   28.1520 N.2       1 2EQ1224     0.0000 
     22 O5         30.3430    9.9890   27.2470 O.3       1 2EQ1224     0.0000 
     23 C7         31.1120    9.8140   26.1610 C.2       1 2EQ1224     0.0000 
     24 C5         31.1350   10.6160   25.0320 C.ar      1 2EQ1224     0.0000 
     25 C6         32.3420   11.0120   24.4870 C.ar      1 2EQ1224     0.0000 
     26 C4         32.3680   11.8170   23.3560 C.ar      1 2EQ1224     0.0000 
     27 CL1        33.8320   12.3300   22.6330 Cl        1 2EQ1224     0.0000 
     28 C3         31.1910   12.2230   22.7830 C.ar      1 2EQ1224     0.0000 
     29 O2         31.2280   12.9990   21.6910 O.3       1 2EQ1224     0.0000 
     30 C2         29.9880   11.8280   23.3320 C.ar      1 2EQ1224     0.0000 
     31 C1         29.9670   11.0340   24.4550 C.ar      1 2EQ1224     0.0000 
     32 O1         28.8030   10.6630   24.9840 O.3       1 2EQ1224     0.0000 
     33 H          36.6003    5.5132   24.5682 H         1 2EQ1224     0.0000 
     34 H          35.2195    4.4057   24.4848 H         1 2EQ1224     0.0000 
     35 H          36.4952    2.7049   23.8615 H         1 2EQ1224     0.0000 
     36 H          37.8652    3.7085   24.3671 H         1 2EQ1224     0.0000 
     37 H          35.8802    2.4850   21.8964 H         1 2EQ1224     0.0000 
     38 H          36.7454    3.1567   20.5035 H         1 2EQ1224     0.0000 
     39 H          34.4435    4.1424   21.4816 H         1 2EQ1224     0.0000 
     40 H          35.6405    5.0803   20.5720 H         1 2EQ1224     0.0000 
     41 H          37.0960    5.4898   22.2998 H         1 2EQ1224     0.0000 
     42 H          35.1556    7.0517   21.5421 H         1 2EQ1224     0.0000 
     43 H          36.4879    7.3122   22.6811 H         1 2EQ1224     0.0000 
     44 H          36.0270    8.1714   24.7721 H         1 2EQ1224     0.0000 
     45 H          34.4795    8.9850   26.4299 H         1 2EQ1224     0.0000 
     46 H          32.8636    6.5441   22.5924 H         1 2EQ1224     0.0000 
     47 H          31.3148    7.3509   24.2537 H         1 2EQ1224     0.0000 
     48 H          31.4920    7.7867   30.1088 H         1 2EQ1224     0.0000 
     49 H          32.3237    4.9739   30.0417 H         1 2EQ1224     0.0000 
     50 H          32.0567    6.0019   31.4602 H         1 2EQ1224     0.0000 
     51 H          33.2283   10.7098   24.9201 H         1 2EQ1224     0.0000 
     52 H          29.1006   12.1310   22.8962 H         1 2EQ1224     0.0000 
     53 H          34.4049    5.3939   31.2335 H         1 2EQ1224     0.0000 
     54 H          34.5114    6.0568   29.7722 H         1 2EQ1224     0.0000 
     55 H          34.2691    6.9871   31.0614 H         1 2EQ1224     0.0000 
     56 H          30.3159   13.4046   21.6309 H         1 2EQ1224     0.0000 
     57 H          28.1110   11.1615   24.4619 H         1 2EQ1224     0.0000 
@<TRIPOS>BOND
     1    2    1 1    
     2    6    1 1    
     3   33    1 1    
     4   34    1 1    
     5    3    2 1    
     6   35    2 1    
     7   36    2 1    
     8    4    3 1    
     9    5    4 1    
    10   37    4 1    
    11   38    4 1    
    12    6    5 1    
    13   39    5 1    
    14   40    5 1    
    15    7    6 1    
    16   41    6 1    
    17    8    7 1    
    18   42    7 1    
    19   43    7 1    
    20    9    8 ar   
    21   11    8 ar   
    22   10    9 ar   
    23   44    9 1    
    24   13   10 ar   
    25   45   10 1    
    26   12   11 ar   
    27   46   11 1    
    28   13   12 ar   
    29   47   12 1    
    30   14   13 1    
    31   15   14 1    
    32   23   14 2    
    33   16   15 1    
    34   21   15 2    
    35   17   16 2    
    36   18   16 am   
    37   19   18 1    
    38   48   18 1    
    39   20   19 1    
    40   49   19 1    
    41   50   19 1    
    42   53   20 1    
    43   54   20 1    
    44   55   20 1    
    45   22   21 1    
    46   23   22 1    
    47   24   23 1    
    48   25   24 ar   
    49   31   24 ar   
    50   26   25 ar   
    51   51   25 1    
    52   27   26 1    
    53   28   26 ar   
    54   29   28 1    
    55   30   28 ar   
    56   56   29 1    
    57   31   30 ar   
    58   52   30 1    
    59   32   31 1    
    60   57   32 1    
@<TRIPOS>SUBSTRUCTURE
     1 2EQ1224     1 GROUP   
@<TRIPOS>SET

