#    Name: 3c1k_T15_1_INTS_M
#    Modification time : Mon Mar 24 20:20:53 2014

@<TRIPOS>MOLECULE
3c1k_T15_1_INTS_M
   74     0     9     0     0
SMALL
NO_CHARGES


@<TRIPOS>ATOM
      1 CA         18.4820  -13.0775   25.5490 C.3       3 GLC5        0.0000 
      2 CA         19.8140  -14.6410   26.3070 C.3       9 GLL5        0.0000 
      3 CA         17.1500  -11.5140   24.7910 C.3       6 GLP5        0.0000 
      4 CA         19.5205  -16.8620   28.1335 C.3       3 GLC5        0.0000 
      5 CA         18.5680  -16.8090   26.4500 C.3       9 GLL5        0.0000 
      6 CA         20.4730  -16.9150   29.8170 C.3       6 GLP5        0.0000 
      7 CA         17.6920  -15.0490   27.0355 C.3       3 GLC5        0.0000 
      8 CA         16.8160  -13.2890   27.6210 C.3       6 GLP5        0.0000 
      9 CA         16.6960  -16.9835   27.5165 C.3       3 GLC5        0.0000 
     10 CA         14.8240  -17.1580   28.5830 C.3       6 GLP5        0.0000 
     11 O          15.7275  -15.7610   24.5650 O.2       1 ALC1        0.0000 
     12 O          17.0810  -16.1830   24.1820 O.2       7 ALL1        0.0000 
     13 O          14.3740  -15.3390   24.9480 O.2       4 ALP1        0.0000 
     14 N          15.2850  -13.3175   24.1050 N.am      2 SEC2        0.0000 
     15 N          16.1300  -13.8740   22.9590 N.am      8 SEL2        0.0000 
     16 N          14.4400  -12.7610   25.2510 N.am      5 SEP2        0.0000 
     17 CA         19.5115  -11.6775   19.5155 C.3       3 GLC5        0.0000 
     18 CA         20.0230  -13.3520   20.3450 C.3       9 GLL5        0.0000 
     19 CA         19.0000  -10.0030   18.6860 C.3       6 GLP5        0.0000 
     20 CA         21.6135  -14.1295   20.2600 C.3       3 GLC5        0.0000 
     21 CA         23.2040  -14.9070   20.1750 C.3       6 GLP5        0.0000 
     22 CA         19.4235  -14.8725   19.1370 C.3       3 GLC5        0.0000 
     23 CA         18.8240  -16.3930   17.9290 C.3       6 GLP5        0.0000 
     24 CA         18.2795  -11.2300   19.8915 C.3       3 GLC5        0.0000 
     25 CA         17.5590  -12.4570   21.0970 C.3       9 GLL5        0.0000 
     26 CA         19.0730  -11.7400   22.1830 C.3       3 GLC5        0.0000 
     27 CA         20.5870  -11.0230   23.2690 C.3       6 GLP5        0.0000 
     28 CA         17.3545  -11.9855   22.9440 C.3       3 GLC5        0.0000 
     29 CA         17.4975  -13.5020   24.0470 C.3       3 GLC5        0.0000 
     30 CA         17.8450  -15.4900   23.3030 C.3       9 GLL5        0.0000 
     31 O          15.8940  -10.6565   21.6275 O.2       1 ALC1        0.0000 
     32 O          15.2740  -11.9350   20.8680 O.2       7 ALL1        0.0000 
     33 O          16.5140   -9.3780   22.3870 O.2       4 ALP1        0.0000 
     34 CA         13.2495  -14.0485   24.0150 C.3       3 GLC5        0.0000 
     35 CA         12.9950  -14.6520   21.9140 C.3       9 GLL5        0.0000 
     36 CA         13.5040  -13.4450   26.1160 C.3       6 GLP5        0.0000 
     37 CA         11.8470  -15.6320   17.4695 C.3       3 GLC5        0.0000 
     38 CA         12.4320  -17.1660   18.4560 C.3       9 GLL5        0.0000 
     39 CA         11.2620  -14.0980   16.4830 C.3       6 GLP5        0.0000 
     40 CA          9.0715  -18.3250   20.6575 C.3       3 GLC5        0.0000 
     41 CA         10.3270  -17.4480   19.9020 C.3       9 GLL5        0.0000 
     42 CA          7.8160  -19.2020   21.4130 C.3       6 GLP5        0.0000 
     43 CA          8.9740  -16.0140   19.8095 C.3       3 GLC5        0.0000 
     44 CA          7.6210  -14.5800   19.7170 C.3       6 GLP5        0.0000 
     45 CA         10.2980  -17.7160   22.1230 C.3       3 GLC5        0.0000 
     46 CA         10.2690  -17.9840   24.3440 C.3       6 GLP5        0.0000 
     47 CA         10.4860   -8.9750   21.9830 C.3       3 GLC5        0.0000 
     48 CA         12.2880   -9.7380   21.3810 C.3       9 GLL5        0.0000 
     49 CA          8.6840   -8.2120   22.5850 C.3       6 GLP5        0.0000 
     50 CA         13.1390   -8.4570   19.9770 C.3       3 GLC5        0.0000 
     51 CA         13.9900   -7.1760   18.5730 C.3       6 GLP5        0.0000 
     52 CA         12.1110   -8.1665   21.6795 C.3       3 GLC5        0.0000 
     53 CA         11.9340   -6.5950   21.9780 C.3       6 GLP5        0.0000 
     54 CA         12.5360  -12.4520   18.7255 C.3       3 GLC5        0.0000 
     55 CA         13.9330  -12.1840   20.3020 C.3       9 GLL5        0.0000 
     56 CA         11.1390  -12.7200   17.1490 C.3       6 GLP5        0.0000 
     57 CA         20.2765  -16.2013   27.9374 C.3       3 GLC5        0.0000 
     58 CA         19.7870  -16.0110   26.0790 C.3       9 GLL5        0.0000 
     59 CA         22.7405  -13.3275   26.9445 C.3       3 GLC5        0.0000 
     60 CA         20.9650  -13.9140   25.9970 C.3       9 GLL5        0.0000 
     61 CA         23.9570  -12.4190   28.1630 C.3       6 GLP5        0.0000 
     62 CA         21.7575  -12.6375   24.7940 C.3       3 GLC5        0.0000 
     63 CA         22.0830  -14.5580   25.4550 C.3       9 GLL5        0.0000 
     64 CA         21.9910  -11.0390   23.8620 C.3       6 GLP5        0.0000 
     65 CA         20.1901  -12.5110   22.1430 C.3       3 GLC5        0.0000 
     66 CA         14.1487  -11.2980   23.0517 C.3       3 GLC5        0.0000 
     67 CA         12.1970  -11.1180   21.8500 C.3       9 GLL5        0.0000 
     68 CA         15.7500  -10.9350   24.4830 C.3       6 GLP5        0.0000 
     69 CA          9.7730  -16.3310   20.6825 C.3       3 GLC5        0.0000 
     70 CA         11.8650  -17.5720   19.8440 C.3       9 GLL5        0.0000 
     71 CA          8.4500  -15.1520   21.4920 C.3       6 GLP5        0.0000 
     72 CA         10.6294  -11.3212   20.8204 C.3       3 GLC5        0.0000 
     73 CA         12.8980  -12.2040   21.3910 C.3       9 GLL5        0.0000 
     74 CA          8.8410  -11.9430   20.1400 C.3       6 GLP5        0.0000 
@<TRIPOS>BOND
@<TRIPOS>SUBSTRUCTURE
     1 ALC1       11 GROUP        1 X    ALC  0     ROOT ALC X 1
     2 SEC2       14 GROUP        1 X    SEC  0     **** SEC X 2
     3 GLC5        1 GROUP        1 X    GLC  0     **** GLC X 6
     4 ALP1       13 GROUP        1 Y    ALP  0     ROOT ALP Y 8
     5 SEP2       16 GROUP        1 Y    SEP  0     **** SEP Y 9
     6 GLP5        3 GROUP        1 Y    GLP  0     **** GLP Y 13
     7 ALL1       12 GROUP        1 Z    ALL  0     ROOT ALL Z 15
     8 SEL2       15 GROUP        1 Z    SEL  0     **** SEL Z 16
     9 GLL5        2 GROUP        1 Z    GLL  0     **** GLL Z 20
@<TRIPOS>SET

