#    Name: 3c1k_T15_1_ligand
#    Modification time : Mon Mar 24 20:20:53 2014

@<TRIPOS>MOLECULE
3c1k_T15_1_ligand
   72    74     1     0     0
SMALL
NO_CHARGES


@<TRIPOS>ATOM
      1 C1         22.0550  -15.9300   25.2250 C.ar      1 T15403      0.0000 
      2 C2         20.9050  -16.6570   25.5380 C.ar      1 T15403      0.0000 
      3 C3         19.7870  -16.0110   26.0790 C.ar      1 T15403      0.0000 
      4 C4         19.8140  -14.6410   26.3070 C.ar      1 T15403      0.0000 
      5 C5         20.9650  -13.9140   25.9970 C.ar      1 T15403      0.0000 
      6 C6         22.0830  -14.5580   25.4550 C.ar      1 T15403      0.0000 
      7 C7         18.5680  -16.8090   26.4500 C.3       1 T15403      0.0000 
      8 S8         17.6640  -17.4340   25.0350 S.o2      1 T15403      0.0000 
      9 N9         17.0810  -16.1830   24.1820 N.pl3     1 T15403      0.0000 
     10 C10        17.2530  -14.3100   22.6990 C.2       1 T15403      0.0000 
     11 N11        18.0610  -13.6730   21.7500 N.am      1 T15403      0.0000 
     12 C12        19.2830  -14.0830   21.3950 C.2       1 T15403      0.0000 
     13 C13        19.8440  -15.2090   21.9830 C.2       1 T15403      0.0000 
     14 C14        19.1220  -15.9120   22.9400 C.2       1 T15403      0.0000 
     15 O15        16.1300  -13.8740   22.9590 O.2       1 T15403      0.0000 
     16 C16        20.0230  -13.3520   20.3450 C.3       1 T15403      0.0000 
     17 C17        17.5590  -12.4570   21.0970 C.3       1 T15403      0.0000 
     18 C18        16.2630  -12.7260   20.4460 C.2       1 T15403      0.0000 
     19 C19        17.8450  -15.4900   23.3030 C.2       1 T15403      0.0000 
     20 N20        15.2740  -11.9350   20.8680 N.am      1 T15403      0.0000 
     21 C22        12.8980  -12.2040   21.3910 C.2       1 T15403      0.0000 
     22 N23        12.5000  -13.2800   22.0890 N.pl3     1 T15403      0.0000 
     23 C24        11.5410  -12.8860   23.0000 C.2       1 T15403      0.0000 
     24 N25        11.3760  -11.5340   22.8490 N.2       1 T15403      0.0000 
     25 C26        12.1970  -11.1180   21.8500 C.2       1 T15403      0.0000 
     26 C28        12.9950  -14.6520   21.9140 C.3       1 T15403      0.0000 
     27 C29        12.3030  -15.3840   20.7710 C.2       1 T15403      0.0000 
     28 N30        12.4130  -16.7130   20.8780 N.am      1 T15403      0.0000 
     29 C31        11.8650  -17.5720   19.8440 C.3       1 T15403      0.0000 
     30 C32        12.4320  -17.1660   18.4560 C.3       1 T15403      0.0000 
     31 C33        10.3270  -17.4480   19.9020 C.3       1 T15403      0.0000 
     32 C34        12.2480  -19.0410   20.0940 C.3       1 T15403      0.0000 
     33 O35        11.7760  -14.8150   19.8290 O.2       1 T15403      0.0000 
     34 O36        16.1320  -13.6700   19.6920 O.2       1 T15403      0.0000 
     35 O37        16.5180  -18.1240   25.5420 O.2       1 T15403      0.0000 
     36 O38        18.5610  -18.1490   24.1700 O.2       1 T15403      0.0000 
     37 C8         12.2880   -9.7380   21.3810 C.3       1 T15403      0.0000 
     38 C9         13.9330  -12.1840   20.3020 C.3       1 T15403      0.0000 
     39 H          22.8711  -16.4050   24.8290 H         1 T15403      0.0000 
     40 H          20.8773  -17.6707   25.3712 H         1 T15403      0.0000 
     41 H          18.9967  -14.1644   26.6998 H         1 T15403      0.0000 
     42 H          20.9928  -12.9004   26.1672 H         1 T15403      0.0000 
     43 H          22.9242  -14.0136   25.2277 H         1 T15403      0.0000 
     44 H          17.8150  -16.2342   26.9717 H         1 T15403      0.0000 
     45 H          18.7916  -17.7125   27.0007 H         1 T15403      0.0000 
     46 H          16.1011  -16.0003   24.3920 H         1 T15403      0.0000 
     47 H          20.7830  -15.5195   21.7137 H         1 T15403      0.0000 
     48 H          19.5304  -16.7466   23.3825 H         1 T15403      0.0000 
     49 H          18.2832  -12.1086   20.3479 H         1 T15403      0.0000 
     50 H          17.4401  -11.6558   21.8393 H         1 T15403      0.0000 
     51 H          15.3673  -11.1904   21.5338 H         1 T15403      0.0000 
     52 H          11.0865  -13.4480   23.6112 H         1 T15403      0.0000 
     53 H          12.8449  -15.2357   22.8386 H         1 T15403      0.0000 
     54 H          14.0803  -14.6465   21.7133 H         1 T15403      0.0000 
     55 H          12.8757  -17.1747   21.6715 H         1 T15403      0.0000 
     56 H          13.9184  -13.1453   19.7762 H         1 T15403      0.0000 
     57 H          13.6775  -11.4008   19.5793 H         1 T15403      0.0000 
     58 H          20.9221  -13.7553   20.1751 H         1 T15403      0.0000 
     59 H          19.5314  -13.3543   19.4742 H         1 T15403      0.0000 
     60 H          20.1733  -12.3953   20.5942 H         1 T15403      0.0000 
     61 H          13.4285  -17.2431   18.4249 H         1 T15403      0.0000 
     62 H          12.0704  -17.7432   17.7238 H         1 T15403      0.0000 
     63 H          12.2038  -16.2205   18.2237 H         1 T15403      0.0000 
     64 H           9.9653  -17.7260   20.7919 H         1 T15403      0.0000 
     65 H          10.0239  -16.5084   19.7429 H         1 T15403      0.0000 
     66 H           9.8820  -18.0201   19.2131 H         1 T15403      0.0000 
     67 H          13.2395  -19.1710   20.0965 H         1 T15403      0.0000 
     68 H          11.9071  -19.3689   20.9751 H         1 T15403      0.0000 
     69 H          11.8747  -19.6469   19.3914 H         1 T15403      0.0000 
     70 H          13.2111   -9.3690   21.4894 H         1 T15403      0.0000 
     71 H          12.0526   -9.6587   20.4124 H         1 T15403      0.0000 
     72 H          11.6698   -9.1335   21.8834 H         1 T15403      0.0000 
@<TRIPOS>BOND
     1    2    1 ar   
     2    6    1 ar   
     3   39    1 1    
     4    3    2 ar   
     5   40    2 1    
     6    4    3 ar   
     7    7    3 1    
     8    5    4 ar   
     9   41    4 1    
    10    6    5 ar   
    11   42    5 1    
    12   43    6 1    
    13    8    7 1    
    14   44    7 1    
    15   45    7 1    
    16    9    8 1    
    17   35    8 2    
    18   36    8 2    
    19   19    9 1    
    20   46    9 1    
    21   11   10 am   
    22   15   10 2    
    23   19   10 1    
    24   12   11 1    
    25   17   11 1    
    26   13   12 2    
    27   16   12 1    
    28   14   13 1    
    29   47   13 1    
    30   19   14 2    
    31   48   14 1    
    32   58   16 1    
    33   59   16 1    
    34   60   16 1    
    35   18   17 1    
    36   49   17 1    
    37   50   17 1    
    38   20   18 am   
    39   34   18 2    
    40   38   20 1    
    41   51   20 1    
    42   22   21 1    
    43   25   21 2    
    44   38   21 1    
    45   23   22 1    
    46   26   22 1    
    47   24   23 2    
    48   52   23 1    
    49   25   24 1    
    50   37   25 1    
    51   27   26 1    
    52   53   26 1    
    53   54   26 1    
    54   28   27 am   
    55   33   27 2    
    56   29   28 1    
    57   55   28 1    
    58   30   29 1    
    59   31   29 1    
    60   32   29 1    
    61   61   30 1    
    62   62   30 1    
    63   63   30 1    
    64   64   31 1    
    65   65   31 1    
    66   66   31 1    
    67   67   32 1    
    68   68   32 1    
    69   69   32 1    
    70   70   37 1    
    71   71   37 1    
    72   72   37 1    
    73   56   38 1    
    74   57   38 1    
@<TRIPOS>SUBSTRUCTURE
     1 T15403      1 GROUP   
@<TRIPOS>SET

