#    Name: 2ves_GVR_3_INTS_M
#    Modification time : Tue Mar 25 01:35:11 2014

@<TRIPOS>MOLECULE
2ves_GVR_3_INTS_M
   67     0    12     0     0
SMALL
NO_CHARGES


@<TRIPOS>ATOM
      1 Zn         39.4880   33.3575  -11.9230 Zn        3 ZIC7        0.0000 
      2 Zn         38.8670   34.1550  -11.6630 Zn       11 ZIL7        0.0000 
      3 Zn         40.1090   32.5600  -12.1830 Zn        7 ZIP7        0.0000 
      4 N          37.7155   34.1305  -11.1050 N.am      2 SEC2        0.0000 
      5 N          38.8670   34.1550  -11.6630 N.am     10 SEL2        0.0000 
      6 N          36.5640   34.1060  -10.5470 N.am      6 SEP2        0.0000 
      7 O          40.5960   37.0455  -12.9435 O.2       1 ALC1        0.0000 
      8 O          40.2230   35.4400  -12.8440 O.2       9 ALL1        0.0000 
      9 O          40.9690   38.6510  -13.0430 O.2       5 ALP1        0.0000 
     10 Zn         40.6045   33.4635  -12.6180 Zn        3 ZIC7        0.0000 
     11 Zn         41.1000   34.3670  -13.0530 Zn       11 ZIL7        0.0000 
     12 O          41.6580   34.7035  -14.1055 O.2       1 ALC1        0.0000 
     13 O          41.1000   34.3670  -13.0530 O.2       9 ALL1        0.0000 
     14 O          42.2160   35.0400  -15.1580 O.2       5 ALP1        0.0000 
     15 CA         37.0380   34.6365  -11.5570 C.3       4 GLC5        0.0000 
     16 CA         38.1020   36.3470  -12.0320 C.3      12 GLL5        0.0000 
     17 CA         35.9740   32.9260  -11.0820 C.3       8 GLP5        0.0000 
     18 O          39.6170   37.9820  -13.0675 O.2       1 ALC1        0.0000 
     19 O          38.2650   37.3130  -13.0920 O.2       9 ALL1        0.0000 
     20 Zn         39.1870   34.9365  -12.6375 Zn        3 ZIC7        0.0000 
     21 Zn         38.2650   37.3130  -13.0920 Zn       11 ZIL7        0.0000 
     22 CA         33.5975   41.4075  -13.0705 C.3       4 GLC5        0.0000 
     23 CA         34.3350   39.4320  -13.4410 C.3      12 GLL5        0.0000 
     24 CA         32.8600   43.3830  -12.7000 C.3       8 GLP5        0.0000 
     25 CA         31.8210   40.5205  -14.6080 C.3       4 GLC5        0.0000 
     26 CA         31.9680   38.9560  -13.1030 C.3      12 GLL5        0.0000 
     27 CA         31.6740   42.0850  -16.1130 C.3       8 GLP5        0.0000 
     28 CA         34.9610   37.5305  -15.5535 C.3       4 GLC5        0.0000 
     29 CA         34.8230   36.7070  -14.0190 C.3      12 GLL5        0.0000 
     30 CA         35.0990   38.3540  -17.0880 C.3       8 GLP5        0.0000 
     31 CA         35.1235   35.0505  -15.4555 C.3       4 GLC5        0.0000 
     32 CA         35.4240   33.3940  -16.8920 C.3       8 GLP5        0.0000 
     33 CA         36.8760   41.1863  -11.8630 C.3       4 GLC5        0.0000 
     34 CA         36.2270   40.2550  -10.2730 C.3      12 GLL5        0.0000 
     35 CA         37.0000   42.5670  -13.3620 C.3       8 GLP5        0.0000 
     36 CA         32.6855   41.7860   -8.5482 C.3       4 GLC5        0.0000 
     37 CA         33.8640   40.6600   -9.8960 C.3      12 GLL5        0.0000 
     38 CA         32.1480   43.1670   -7.2890 C.3       8 GLP5        0.0000 
     39 CA         33.0415   41.8940  -11.2538 C.3       4 GLC5        0.0000 
     40 CA         32.5820   40.1500   -9.7190 C.3      12 GLL5        0.0000 
     41 CA         33.4823   37.8383   -8.1877 C.3       4 GLC5        0.0000 
     42 CA         34.6880   38.3270  -10.0920 C.3      12 GLL5        0.0000 
     43 CA         32.9250   37.5830   -6.3720 C.3       8 GLP5        0.0000 
     44 CA         32.6940   38.5220   -8.0473 C.3       4 GLC5        0.0000 
     45 CA         32.3440   38.7720   -9.7260 C.3      12 GLL5        0.0000 
     46 CA         30.6835   39.7485  -10.0132 C.3       4 GLC5        0.0000 
     47 CA         28.9040   40.0360  -10.3040 C.3       8 GLP5        0.0000 
     48 CA         35.9878   40.8860  -13.4793 C.3       4 GLC5        0.0000 
     49 CA         35.6160   38.9780  -13.7520 C.3      12 GLL5        0.0000 
     50 CA         35.0699   38.6110  -15.3783 C.3       4 GLC5        0.0000 
     51 CA         32.6183   38.4402  -15.1567 C.3       4 GLC5        0.0000 
     52 CA         33.2630   38.5410  -13.4040 C.3      12 GLL5        0.0000 
     53 CA         32.6210   38.1320  -17.0600 C.3       8 GLP5        0.0000 
     54 CA         30.1760   39.2640  -11.6983 C.3       4 GLC5        0.0000 
     55 CA         30.3430   38.1275  -14.6618 C.3       4 GLC5        0.0000 
     56 CA         30.9280   38.0280  -13.0820 C.3      12 GLL5        0.0000 
     57 CA         29.2380   37.7630  -16.2310 C.3       8 GLP5        0.0000 
     58 CA         32.8025   37.4020  -15.3797 C.3       4 GLC5        0.0000 
     59 CA         32.4500   36.2260  -13.6840 C.3      12 GLL5        0.0000 
     60 CA         34.0096   34.9311  -12.8172 C.3       4 GLC5        0.0000 
     61 CA         33.5180   37.1180  -13.7150 C.3      12 GLL5        0.0000 
     62 CA         34.7090   33.2930  -11.8590 C.3       8 GLP5        0.0000 
     63 CA         30.5225   37.1080  -14.8785 C.3       4 GLC5        0.0000 
     64 CA         31.4225   35.2065  -12.2460 C.3       4 GLC5        0.0000 
     65 CA         31.1640   36.6800  -13.3680 C.3      12 GLL5        0.0000 
     66 CA         31.0380   33.9600  -10.9660 C.3       8 GLP5        0.0000 
     67 CA         31.8335   37.7430  -15.1425 C.3       4 GLC5        0.0000 
@<TRIPOS>BOND
@<TRIPOS>SUBSTRUCTURE
     1 ALC1        7 GROUP        1 X    ALC  0     ROOT ALC X 1
     2 SEC2        4 GROUP        1 X    SEC  0     **** SEC X 2
     3 ZIC7        1 GROUP        1 X    ZIC  0     **** ZIC X 5
     4 GLC5       15 GROUP        1 X    GLC  0     **** GLC X 6
     5 ALP1        9 GROUP        1 Y    ALP  0     ROOT ALP Y 8
     6 SEP2        6 GROUP        1 Y    SEP  0     **** SEP Y 9
     7 ZIP7        3 GROUP        1 Y    ZIP  0     **** ZIP Y 12
     8 GLP5       17 GROUP        1 Y    GLP  0     **** GLP Y 13
     9 ALL1        8 GROUP        1 Z    ALL  0     ROOT ALL Z 15
    10 SEL2        5 GROUP        1 Z    SEL  0     **** SEL Z 16
    11 ZIL7        2 GROUP        1 Z    ZIL  0     **** ZIL Z 19
    12 GLL5       16 GROUP        1 Z    GLL  0     **** GLL Z 20
@<TRIPOS>SET

