#    Name: 2ves_GVR_3_ligand
#    Modification time : Tue Mar 25 01:35:11 2014

@<TRIPOS>MOLECULE
2ves_GVR_3_ligand
   50    53     1     0     0
SMALL
NO_CHARGES


@<TRIPOS>ATOM
      1 O28        38.8670   34.1550  -11.6630 O.2       1 GVR1301     0.0000 
      2 C27        39.0990   35.2380  -12.1640 C.2       1 GVR1301     0.0000 
      3 N29        40.2230   35.4400  -12.8440 N.am      1 GVR1301     0.0000 
      4 O30        41.1000   34.3670  -13.0530 O.3       1 GVR1301     0.0000 
      5 C26        38.1020   36.3470  -12.0320 C.3       1 GVR1301     0.0000 
      6 C25        38.2190   37.0370  -10.6730 C.3       1 GVR1301     0.0000 
      7 C15        37.0490   37.9750  -10.4680 C.ar      1 GVR1301     0.0000 
      8 C16        37.2770   39.3560  -10.4550 C.ar      1 GVR1301     0.0000 
      9 C17        36.2270   40.2550  -10.2730 C.ar      1 GVR1301     0.0000 
     10 C20        34.9340   39.7870  -10.0850 C.ar      1 GVR1301     0.0000 
     11 C21        33.8640   40.6600   -9.8960 C.ar      1 GVR1301     0.0000 
     12 C19        34.6880   38.3270  -10.0920 C.ar      1 GVR1301     0.0000 
     13 C24        33.3910   37.8600   -9.9150 C.ar      1 GVR1301     0.0000 
     14 C23        32.3440   38.7720   -9.7260 C.ar      1 GVR1301     0.0000 
     15 C22        32.5820   40.1500   -9.7190 C.ar      1 GVR1301     0.0000 
     16 C18        35.7650   37.4660  -10.2800 C.ar      1 GVR1301     0.0000 
     17 N1         38.2650   37.3130  -13.0920 N.pl3     1 GVR1301     0.0000 
     18 S2         37.3860   37.1750  -14.4040 S.o2      1 GVR1301     0.0000 
     19 O13        37.3750   35.7990  -14.8410 O.2       1 GVR1301     0.0000 
     20 O14        37.9300   38.0200  -15.4150 O.2       1 GVR1301     0.0000 
     21 C3         35.8770   37.6300  -14.0400 C.ar      1 GVR1301     0.0000 
     22 C4         35.6160   38.9780  -13.7520 C.ar      1 GVR1301     0.0000 
     23 C5         34.3350   39.4320  -13.4410 C.ar      1 GVR1301     0.0000 
     24 C8         33.2630   38.5410  -13.4040 C.ar      1 GVR1301     0.0000 
     25 C9         31.9680   38.9560  -13.1030 C.ar      1 GVR1301     0.0000 
     26 C7         33.5180   37.1180  -13.7150 C.ar      1 GVR1301     0.0000 
     27 C6         34.8230   36.7070  -14.0190 C.ar      1 GVR1301     0.0000 
     28 C12        32.4500   36.2260  -13.6840 C.ar      1 GVR1301     0.0000 
     29 C11        31.1640   36.6800  -13.3680 C.ar      1 GVR1301     0.0000 
     30 C10        30.9280   38.0280  -13.0820 C.ar      1 GVR1301     0.0000 
     31 H          40.4771   36.3642  -13.2273 H         1 GVR1301     0.0000 
     32 H          37.0964   35.9111  -12.0849 H         1 GVR1301     0.0000 
     33 H          39.1488   37.5980  -10.6379 H         1 GVR1301     0.0000 
     34 H          38.2255   36.2830   -9.8908 H         1 GVR1301     0.0000 
     35 H          38.2384   39.7120  -10.5824 H         1 GVR1301     0.0000 
     36 H          36.4139   41.2669  -10.2785 H         1 GVR1301     0.0000 
     37 H          34.0224   41.6731   -9.8877 H         1 GVR1301     0.0000 
     38 H          33.1959   36.8541   -9.9218 H         1 GVR1301     0.0000 
     39 H          31.3832   38.4202   -9.5900 H         1 GVR1301     0.0000 
     40 H          31.7880   40.7993   -9.5794 H         1 GVR1301     0.0000 
     41 H          35.6136   36.4472  -10.2804 H         1 GVR1301     0.0000 
     42 H          38.8940   38.0671  -13.0612 H         1 GVR1301     0.0000 
     43 H          36.4040   39.6559  -13.7720 H         1 GVR1301     0.0000 
     44 H          34.1798   40.4287  -13.2379 H         1 GVR1301     0.0000 
     45 H          31.7791   39.9438  -12.8968 H         1 GVR1301     0.0000 
     46 H          35.0089   35.7164  -14.2291 H         1 GVR1301     0.0000 
     47 H          32.6020   35.2315  -13.8929 H         1 GVR1301     0.0000 
     48 H          30.3797   36.0096  -13.3461 H         1 GVR1301     0.0000 
     49 H          29.9704   38.3384  -12.8525 H         1 GVR1301     0.0000 
     50 H          41.8630   34.7536  -13.5711 H         1 GVR1301     0.0000 
@<TRIPOS>BOND
     1    2    1 2    
     2    3    2 am   
     3    5    2 1    
     4    4    3 1    
     5   31    3 1    
     6   50    4 1    
     7    6    5 1    
     8   17    5 1    
     9   32    5 1    
    10    7    6 1    
    11   33    6 1    
    12   34    6 1    
    13    8    7 ar   
    14   16    7 ar   
    15    9    8 ar   
    16   35    8 1    
    17   10    9 ar   
    18   36    9 1    
    19   11   10 ar   
    20   12   10 ar   
    21   15   11 ar   
    22   37   11 1    
    23   13   12 ar   
    24   16   12 ar   
    25   14   13 ar   
    26   38   13 1    
    27   15   14 ar   
    28   39   14 1    
    29   40   15 1    
    30   41   16 1    
    31   18   17 1    
    32   42   17 1    
    33   19   18 2    
    34   20   18 2    
    35   21   18 1    
    36   22   21 ar   
    37   27   21 ar   
    38   23   22 ar   
    39   43   22 1    
    40   24   23 ar   
    41   44   23 1    
    42   25   24 ar   
    43   26   24 ar   
    44   30   25 ar   
    45   45   25 1    
    46   27   26 ar   
    47   28   26 ar   
    48   46   27 1    
    49   29   28 ar   
    50   47   28 1    
    51   30   29 ar   
    52   48   29 1    
    53   49   30 1    
@<TRIPOS>SUBSTRUCTURE
     1 GVR1301     1 GROUP   
@<TRIPOS>SET

