#    Name: 1ec0_BED_1_INTS_M
#    Modification time : Mon Mar 24 23:25:12 2014

@<TRIPOS>MOLECULE
1ec0_BED_1_INTS_M
  127     0     9     0     0
SMALL
NO_CHARGES


@<TRIPOS>ATOM
      1 CA         11.3015   25.2315    0.9055 C.3       3 GLC5        0.0000 
      2 CA         11.3110   23.4870    2.3030 C.3       9 GLL5        0.0000 
      3 CA         11.2920   26.9760   -0.4920 C.3       6 GLP5        0.0000 
      4 CA         10.0660   23.4395    0.5155 C.3       3 GLC5        0.0000 
      5 CA          8.8210   23.3920   -1.2720 C.3       6 GLP5        0.0000 
      6 CA         16.8165   24.0750    5.3110 C.3       3 GLC5        0.0000 
      7 CA         15.1320   22.8490    6.0000 C.3       9 GLL5        0.0000 
      8 CA         18.5010   25.3010    4.6220 C.3       6 GLP5        0.0000 
      9 O          17.3670   21.8740    5.3170 O.2       1 ALC1        0.0000 
     10 O          16.3590   20.7900    5.4950 O.2       7 ALL1        0.0000 
     11 O          18.3750   22.9580    5.1390 O.2       4 ALP1        0.0000 
     12 N          15.4920   25.4720    3.4925 N.am      2 SEC2        0.0000 
     13 N          14.8130   24.8770    4.5610 N.am      8 SEL2        0.0000 
     14 N          16.1710   26.0670    2.4240 N.am      5 SEP2        0.0000 
     15 O          15.1185   25.6270    5.6700 O.2       1 ALC1        0.0000 
     16 O          14.8130   24.8770    4.5610 O.2       7 ALL1        0.0000 
     17 O          15.4240   26.3770    6.7790 O.2       4 ALP1        0.0000 
     18 O          14.2705   25.7395    6.6360 O.2       1 ALC1        0.0000 
     19 O          13.1170   25.1020    6.4930 O.2       7 ALL1        0.0000 
     20 O          10.7095   26.5185    4.4090 O.2       1 ALC1        0.0000 
     21 O          10.0420   25.5140    5.4090 O.2       7 ALL1        0.0000 
     22 O          11.3770   27.5230    3.4090 O.2       4 ALP1        0.0000 
     23 CA          6.6885   26.5060    9.3845 C.3       3 GLC5        0.0000 
     24 CA          8.0410   27.2850    7.8160 C.3       9 GLL5        0.0000 
     25 CA          5.3360   25.7270   10.9530 C.3       6 GLP5        0.0000 
     26 CA         12.4780   27.7380    9.7025 C.3       3 GLC5        0.0000 
     27 CA         10.3540   27.2030    9.5150 C.3       9 GLL5        0.0000 
     28 CA         14.6020   28.2730    9.8900 C.3       6 GLP5        0.0000 
     29 CA          8.0085   28.9545   11.5055 C.3       3 GLC5        0.0000 
     30 CA          9.2270   28.0440    9.8480 C.3       9 GLL5        0.0000 
     31 CA          6.7900   29.8650   13.1630 C.3       6 GLP5        0.0000 
     32 N           9.1300   28.9480    5.2890 N.am      2 SEC2        0.0000 
     33 N           8.4140   27.6650    4.8690 N.am      8 SEL2        0.0000 
     34 N           9.8460   30.2310    5.7090 N.am      5 SEP2        0.0000 
     35 O           7.3235   28.7965    4.4730 O.2       1 ALC1        0.0000 
     36 O           8.4140   27.6650    4.8690 O.2       7 ALL1        0.0000 
     37 O           6.2330   29.9280    4.0770 O.2       4 ALP1        0.0000 
     38 CA          6.5005   27.6190   10.1725 C.3       3 GLC5        0.0000 
     39 CA          8.0590   28.0920    8.9990 C.3       9 GLL5        0.0000 
     40 CA          4.9420   27.1460   11.3460 C.3       6 GLP5        0.0000 
     41 CA          7.2795   29.1955    6.1410 C.3       3 GLC5        0.0000 
     42 CA          6.9690   27.1580    6.7820 C.3       9 GLL5        0.0000 
     43 CA          7.5900   31.2330    5.5000 C.3       6 GLP5        0.0000 
     44 CA         16.6460   15.8740    3.5085 C.3       3 GLC5        0.0000 
     45 CA         17.4320   17.8860    3.5830 C.3       9 GLL5        0.0000 
     46 CA         15.8600   13.8620    3.4340 C.3       6 GLP5        0.0000 
     47 CA         14.0345   20.0110    0.7615 C.3       3 GLC5        0.0000 
     48 CA         15.7550   18.8480    1.4880 C.3       9 GLL5        0.0000 
     49 CA         12.3140   21.1740    0.0350 C.3       6 GLP5        0.0000 
     50 N          19.5510   20.2270    3.9780 N.am      2 SEC2        0.0000 
     51 N          18.9460   19.8890    5.3350 N.am      8 SEL2        0.0000 
     52 N          20.1560   20.5650    2.6210 N.am      5 SEP2        0.0000 
     53 O          18.6605   21.4235    5.2370 O.2       1 ALC1        0.0000 
     54 O          18.9460   19.8890    5.3350 O.2       7 ALL1        0.0000 
     55 CA         17.2150   15.3575    2.3395 C.3       3 GLC5        0.0000 
     56 CA         17.5400   17.2960    2.2760 C.3       9 GLL5        0.0000 
     57 CA         16.8900   13.4190    2.4030 C.3       6 GLP5        0.0000 
     58 CA         20.0275   18.2065    3.9995 C.3       3 GLC5        0.0000 
     59 CA         18.1950   17.5570    4.8220 C.3       9 GLL5        0.0000 
     60 CA         21.8600   18.8560    3.1770 C.3       6 GLP5        0.0000 
     61 CA         12.8375   20.6115   10.0165 C.3       3 GLC5        0.0000 
     62 CA         14.5850   21.0660    9.7270 C.3       9 GLL5        0.0000 
     63 CA         11.0900   20.1570   10.3060 C.3       6 GLP5        0.0000 
     64 CA         10.1170   20.1650    3.1730 C.3       3 GLC5        0.0000 
     65 CA          9.1310   21.7320    3.1530 C.3       9 GLL5        0.0000 
     66 CA         11.1030   18.5980    3.1930 C.3       6 GLP5        0.0000 
     67 CA          7.7315   20.6345    2.6235 C.3       3 GLC5        0.0000 
     68 CA          6.3320   19.5370    2.0940 C.3       6 GLP5        0.0000 
     69 CA         10.7225   21.4530    1.5940 C.3       3 GLC5        0.0000 
     70 CA         16.3945   24.3047    9.4195 C.3       3 GLC5        0.0000 
     71 CA         16.5600   22.0740    8.7360 C.3       9 GLL5        0.0000 
     72 CA         16.5640   25.8960   10.3450 C.3       6 GLP5        0.0000 
     73 CA         17.9733   21.6182   10.6308 C.3       3 GLC5        0.0000 
     74 CA         18.6600   20.7120    8.8980 C.3       9 GLL5        0.0000 
     75 CA         17.6410   23.0460   12.0130 C.3       6 GLP5        0.0000 
     76 CA          9.0708   23.3970    0.6225 C.3       3 GLC5        0.0000 
     77 CA          9.8300   23.8680    2.2960 C.3       9 GLL5        0.0000 
     78 CA         11.4422   22.4258    1.1673 C.3       3 GLC5        0.0000 
     79 CA          8.0292   23.6893    0.6192 C.3       3 GLC5        0.0000 
     80 CA          7.4250   23.3290    2.7330 C.3       9 GLL5        0.0000 
     81 CA          6.6860   22.2086    1.8209 C.3       3 GLC5        0.0000 
     82 CA          7.0500   24.6440    2.2880 C.3       9 GLL5        0.0000 
     83 CA          5.7880   20.5290    1.1300 C.3       6 GLP5        0.0000 
     84 CA         10.0695   26.0124    0.7349 C.3       3 GLC5        0.0000 
     85 CA          8.7845   24.3850    0.2898 C.3       3 GLC5        0.0000 
     86 CA          9.4340   25.1850    1.8550 C.3       9 GLL5        0.0000 
     87 CA         18.0659   23.9008    8.3661 C.3       3 GLC5        0.0000 
     88 CA         15.8900   23.3530    8.2520 C.3       9 GLL5        0.0000 
     89 CA         19.5540   25.1360    8.3020 C.3       6 GLP5        0.0000 
     90 CA         17.1094   22.8558   10.2216 C.3       3 GLC5        0.0000 
     91 CA         17.9710   21.8820    8.4810 C.3       9 GLL5        0.0000 
     92 CA         10.4393   27.4892    6.2980 C.3       3 GLC5        0.0000 
     93 CA          9.1420   26.4450    7.4680 C.3       9 GLL5        0.0000 
     94 CA         11.8810   28.8970    5.7700 C.3       6 GLP5        0.0000 
     95 CA         10.7282   27.2743   11.3523 C.3       3 GLC5        0.0000 
     96 CA         11.6660   26.9250   13.0230 C.3       6 GLP5        0.0000 
     97 CA          8.6013   26.6683   11.0553 C.3       3 GLC5        0.0000 
     98 CA          7.4120   25.7130   12.4290 C.3       6 GLP5        0.0000 
     99 CA         11.2194   28.0789    8.2293 C.3       3 GLC5        0.0000 
    100 CA         12.6580   28.7360    7.0760 C.3       6 GLP5        0.0000 
    101 CA          8.4005   29.8595    9.8433 C.3       3 GLC5        0.0000 
    102 CA          8.1580   31.6510   10.2630 C.3       6 GLP5        0.0000 
    103 CA         17.4427   20.6605    3.5270 C.3       3 GLC5        0.0000 
    104 CA         16.6030   19.3700    5.2960 C.3       9 GLL5        0.0000 
    105 CA         18.3300   22.1670    2.4790 C.3       6 GLP5        0.0000 
    106 CA         14.2657   18.8152    2.9523 C.3       3 GLC5        0.0000 
    107 CA         16.5080   18.9380    3.8540 C.3       9 GLL5        0.0000 
    108 CA         12.4500   18.4440    2.5740 C.3       6 GLP5        0.0000 
    109 CA         14.3357   18.3822    1.9677 C.3       3 GLC5        0.0000 
    110 CA         15.6282   17.3892   -0.0217 C.3       3 GLC5        0.0000 
    111 CA         15.0350   16.4580   -1.4050 C.3       6 GLP5        0.0000 
    112 CA         15.2348   16.5892    1.5402 C.3       3 GLC5        0.0000 
    113 CA         16.6880   17.7930    1.2350 C.3       9 GLL5        0.0000 
    114 CA         14.2480   14.8580    1.7190 C.3       6 GLP5        0.0000 
    115 CA         16.7803   20.2811    1.4986 C.3       3 GLC5        0.0000 
    116 CA         17.3640   22.0950    1.3060 C.3       6 GLP5        0.0000 
    117 CA         18.4895   17.1397    0.5597 C.3       3 GLC5        0.0000 
    118 CA         19.8650   16.7350   -0.6360 C.3       6 GLP5        0.0000 
    119 CA         15.0802   20.1638   11.3081 C.3       3 GLC5        0.0000 
    120 CA         16.5510   19.8160    9.8720 C.3       9 GLL5        0.0000 
    121 CA         14.7640   19.5880   12.9240 C.3       6 GLP5        0.0000 
    122 CA         16.5187   21.8927   10.8526 C.3       3 GLC5        0.0000 
    123 CA         14.2043   19.3792    8.7741 C.3       3 GLC5        0.0000 
    124 CA         15.8650   21.0100    9.4430 C.3       9 GLL5        0.0000 
    125 CA         13.0120   18.0190    7.8560 C.3       6 GLP5        0.0000 
    126 CA          8.2837   21.8616    4.5751 C.3       3 GLC5        0.0000 
    127 CA          7.9430   21.2910    6.2060 C.3       6 GLP5        0.0000 
@<TRIPOS>BOND
@<TRIPOS>SUBSTRUCTURE
     1 ALC1        9 GROUP        1 X    ALC  0     ROOT ALC X 1
     2 SEC2       12 GROUP        1 X    SEC  0     **** SEC X 2
     3 GLC5        1 GROUP        1 X    GLC  0     **** GLC X 6
     4 ALP1       11 GROUP        1 Y    ALP  0     ROOT ALP Y 8
     5 SEP2       14 GROUP        1 Y    SEP  0     **** SEP Y 9
     6 GLP5        3 GROUP        1 Y    GLP  0     **** GLP Y 13
     7 ALL1       10 GROUP        1 Z    ALL  0     ROOT ALL Z 15
     8 SEL2       13 GROUP        1 Z    SEL  0     **** SEL Z 16
     9 GLL5        2 GROUP        1 Z    GLL  0     **** GLL Z 20
@<TRIPOS>SET

