#    Name: 1ec0_BED_1_ligand
#    Modification time : Mon Mar 24 23:25:12 2014

@<TRIPOS>MOLECULE
1ec0_BED_1_ligand
   88    93     1     0     0
SMALL
NO_CHARGES


@<TRIPOS>ATOM
      1 C01        16.5600   22.0740    8.7360 C.ar      1 BED501      0.0000 
      2 C02        17.9710   21.8820    8.4810 C.ar      1 BED501      0.0000 
      3 C03        18.6600   20.7120    8.8980 C.ar      1 BED501      0.0000 
      4 C04        17.9510   19.6690    9.5990 C.ar      1 BED501      0.0000 
      5 C05        16.5510   19.8160    9.8720 C.ar      1 BED501      0.0000 
      6 C06        15.8650   21.0100    9.4430 C.ar      1 BED501      0.0000 
      7 C07         9.8300   23.8680    2.2960 C.ar      1 BED501      0.0000 
      8 C08         8.8110   22.9360    2.7380 C.ar      1 BED501      0.0000 
      9 C09         7.4250   23.3290    2.7330 C.ar      1 BED501      0.0000 
     10 C10         7.0500   24.6440    2.2880 C.ar      1 BED501      0.0000 
     11 C11         8.0620   25.5710    1.8480 C.ar      1 BED501      0.0000 
     12 C12         9.4340   25.1850    1.8550 C.ar      1 BED501      0.0000 
     13 C13        11.3110   23.4870    2.3030 C.3       1 BED501      0.0000 
     14 O14        11.7930   23.1120    3.6080 O.3       1 BED501      0.0000 
     15 C15        11.8950   24.2250    4.5510 C.3       1 BED501      0.0000 
     16 C16        12.9550   23.9760    5.5860 C.3       1 BED501      0.0000 
     17 C17        14.2570   23.6220    4.9800 C.3       1 BED501      0.0000 
     18 C18        15.1320   22.8490    6.0000 C.3       1 BED501      0.0000 
     19 C19        15.1410   21.3470    5.8310 C.2       1 BED501      0.0000 
     20 O20        14.1310   20.6550    6.0000 O.2       1 BED501      0.0000 
     21 N21        16.3590   20.7900    5.4950 N.am      1 BED501      0.0000 
     22 O22        14.7770   23.1250    7.3840 O.3       1 BED501      0.0000 
     23 C23        15.8900   23.3530    8.2520 C.3       1 BED501      0.0000 
     24 O24        14.8130   24.8770    4.5610 O.3       1 BED501      0.0000 
     25 O25        13.1170   25.1020    6.4930 O.3       1 BED501      0.0000 
     26 C26        10.6800   24.3210    5.3860 C.2       1 BED501      0.0000 
     27 O27        10.2950   23.3310    6.0100 O.2       1 BED501      0.0000 
     28 N28        10.0420   25.5140    5.4090 N.am      1 BED501      0.0000 
     29 C29         8.8530   25.7180    6.1840 C.3       1 BED501      0.0000 
     30 C30         9.1420   26.4450    7.4680 C.ar      1 BED501      0.0000 
     31 C31         8.0410   27.2850    7.8160 C.ar      1 BED501      0.0000 
     32 C32        10.3150   26.3960    8.3190 C.ar      1 BED501      0.0000 
     33 C33        10.3540   27.2030    9.5150 C.ar      1 BED501      0.0000 
     34 C34         9.2270   28.0440    9.8480 C.ar      1 BED501      0.0000 
     35 C35         7.7630   26.6090    5.5700 C.3       1 BED501      0.0000 
     36 O36         8.4140   27.6650    4.8690 O.3       1 BED501      0.0000 
     37 C37         8.0590   28.0920    8.9990 C.ar      1 BED501      0.0000 
     38 C38         6.9690   27.1580    6.7820 C.3       1 BED501      0.0000 
     39 C39        16.6030   19.3700    5.2960 C.3       1 BED501      0.0000 
     40 C40        16.5080   18.9380    3.8540 C.ar      1 BED501      0.0000 
     41 C41        17.4320   17.8860    3.5830 C.ar      1 BED501      0.0000 
     42 C42        15.6550   19.4350    2.8070 C.ar      1 BED501      0.0000 
     43 C43        15.7550   18.8480    1.4880 C.ar      1 BED501      0.0000 
     44 C44        16.6880   17.7930    1.2350 C.ar      1 BED501      0.0000 
     45 C45        18.0030   18.8550    5.6630 C.3       1 BED501      0.0000 
     46 O46        18.9460   19.8890    5.3350 O.3       1 BED501      0.0000 
     47 C47        17.5400   17.2960    2.2760 C.ar      1 BED501      0.0000 
     48 C48        18.1950   17.5570    4.8220 C.3       1 BED501      0.0000 
     49 F49        14.5850   21.0660    9.7270 F         1 BED501      0.0000 
     50 F50         9.1310   21.7320    3.1530 F         1 BED501      0.0000 
     51 H          18.4816   22.6224    7.9812 H         1 BED501      0.0000 
     52 H          19.6502   20.6003    8.7078 H         1 BED501      0.0000 
     53 H          18.4442   18.8372    9.8956 H         1 BED501      0.0000 
     54 H          16.0462   19.0917   10.3603 H         1 BED501      0.0000 
     55 H           6.7146   22.6774    3.0435 H         1 BED501      0.0000 
     56 H           6.0766   24.9197    2.2833 H         1 BED501      0.0000 
     57 H           7.7907   26.4966    1.5346 H         1 BED501      0.0000 
     58 H          10.1510   25.8409    1.5464 H         1 BED501      0.0000 
     59 H          11.8801   24.3491    1.9004 H         1 BED501      0.0000 
     60 H          11.4476   22.6618    1.5753 H         1 BED501      0.0000 
     61 H          12.0797   25.1497    4.0831 H         1 BED501      0.0000 
     62 H          12.6231   23.0967    6.1882 H         1 BED501      0.0000 
     63 H          14.0728   22.9824    4.1306 H         1 BED501      0.0000 
     64 H          16.1849   23.1909    5.8479 H         1 BED501      0.0000 
     65 H          17.1971   21.4204    5.3658 H         1 BED501      0.0000 
     66 H          16.6697   23.9699    7.7517 H         1 BED501      0.0000 
     67 H          15.5851   23.9318    9.1525 H         1 BED501      0.0000 
     68 H          10.3955   26.3251    4.8625 H         1 BED501      0.0000 
     69 H           8.3672   24.7842    6.4665 H         1 BED501      0.0000 
     70 H          11.0906   25.8058    8.0762 H         1 BED501      0.0000 
     71 H          11.1633   27.1806   10.1158 H         1 BED501      0.0000 
     72 H           9.2566   28.6103   10.6924 H         1 BED501      0.0000 
     73 H           7.1347   26.0195    4.9830 H         1 BED501      0.0000 
     74 H           7.2828   28.6780    9.2373 H         1 BED501      0.0000 
     75 H           6.5714   28.1011    6.5298 H         1 BED501      0.0000 
     76 H           6.2481   26.4442    7.0685 H         1 BED501      0.0000 
     77 H          15.8956   18.7459    5.8483 H         1 BED501      0.0000 
     78 H          15.0021   20.1744    2.9844 H         1 BED501      0.0000 
     79 H          15.1573   19.1913    0.7434 H         1 BED501      0.0000 
     80 H          16.7491   17.3871    0.2998 H         1 BED501      0.0000 
     81 H          17.9965   18.5973    6.6882 H         1 BED501      0.0000 
     82 H          18.1926   16.5587    2.0995 H         1 BED501      0.0000 
     83 H          19.2214   17.4375    4.6191 H         1 BED501      0.0000 
     84 H          17.7548   16.7531    5.3406 H         1 BED501      0.0000 
     85 H          15.0537   25.3492    5.4090 H         1 BED501      0.0000 
     86 H          14.0807   25.3583    6.4176 H         1 BED501      0.0000 
     87 H           7.6880   28.3176    4.6520 H         1 BED501      0.0000 
     88 H          18.4166   20.7372    5.3534 H         1 BED501      0.0000 
@<TRIPOS>BOND
     1    2    1 ar   
     2    6    1 ar   
     3   23    1 1    
     4    3    2 ar   
     5   51    2 1    
     6    4    3 ar   
     7   52    3 1    
     8    5    4 ar   
     9   53    4 1    
    10    6    5 ar   
    11   54    5 1    
    12   49    6 1    
    13    8    7 ar   
    14   12    7 ar   
    15   13    7 1    
    16    9    8 ar   
    17   50    8 1    
    18   10    9 ar   
    19   55    9 1    
    20   11   10 ar   
    21   56   10 1    
    22   12   11 ar   
    23   57   11 1    
    24   58   12 1    
    25   14   13 1    
    26   59   13 1    
    27   60   13 1    
    28   15   14 1    
    29   16   15 1    
    30   26   15 1    
    31   61   15 1    
    32   17   16 1    
    33   25   16 1    
    34   62   16 1    
    35   18   17 1    
    36   24   17 1    
    37   63   17 1    
    38   19   18 1    
    39   22   18 1    
    40   64   18 1    
    41   20   19 2    
    42   21   19 am   
    43   39   21 1    
    44   65   21 1    
    45   23   22 1    
    46   66   23 1    
    47   67   23 1    
    48   85   24 1    
    49   86   25 1    
    50   27   26 2    
    51   28   26 am   
    52   29   28 1    
    53   68   28 1    
    54   30   29 1    
    55   35   29 1    
    56   69   29 1    
    57   31   30 ar   
    58   32   30 ar   
    59   37   31 ar   
    60   38   31 1    
    61   33   32 ar   
    62   70   32 1    
    63   34   33 ar   
    64   71   33 1    
    65   37   34 ar   
    66   72   34 1    
    67   36   35 1    
    68   38   35 1    
    69   73   35 1    
    70   87   36 1    
    71   74   37 1    
    72   75   38 1    
    73   76   38 1    
    74   40   39 1    
    75   45   39 1    
    76   77   39 1    
    77   41   40 ar   
    78   42   40 ar   
    79   47   41 ar   
    80   48   41 1    
    81   43   42 ar   
    82   78   42 1    
    83   44   43 ar   
    84   79   43 1    
    85   47   44 ar   
    86   80   44 1    
    87   46   45 1    
    88   48   45 1    
    89   81   45 1    
    90   88   46 1    
    91   82   47 1    
    92   83   48 1    
    93   84   48 1    
@<TRIPOS>SUBSTRUCTURE
     1 BED501      1 GROUP   
@<TRIPOS>SET

