#    Name: 1ci7_CB3_1_INTS_M
#    Modification time : Mon Mar 24 20:43:34 2014

@<TRIPOS>MOLECULE
1ci7_CB3_1_INTS_M
   55     0     9     0     0
SMALL
NO_CHARGES


@<TRIPOS>ATOM
      1 O         106.4555  -19.6125   57.9130 O.2       1 ALC1        0.0000 
      2 O         107.8000  -20.5760   57.9110 O.2       7 ALL1        0.0000 
      3 O         105.1110  -18.6490   57.9150 O.2       4 ALP1        0.0000 
      4 O         107.6930  -21.5775   58.9960 O.2       1 ALC1        0.0000 
      5 O         107.5860  -22.5790   60.0810 O.2       4 ALP1        0.0000 
      6 N         108.7935  -17.5080   54.4870 N.am      2 SEC2        0.0000 
      7 N         108.8670  -18.6610   53.7420 N.am      8 SEL2        0.0000 
      8 N         108.7200  -16.3550   55.2320 N.am      5 SEP2        0.0000 
      9 CA        113.3095  -17.1080   52.3345 C.3       3 GLC5        0.0000 
     10 CA        114.3800  -18.4440   51.1920 C.3       9 GLL5        0.0000 
     11 CA        112.2390  -15.7720   53.4770 C.3       6 GLP5        0.0000 
     12 CA        114.2350  -17.9190   53.8385 C.3       3 GLC5        0.0000 
     13 CA        115.3200  -18.9300   52.1750 C.3       9 GLL5        0.0000 
     14 CA        113.1500  -16.9080   55.5020 C.3       6 GLP5        0.0000 
     15 N         118.0450  -14.7690   49.0470 N.am      2 SEC2        0.0000 
     16 N         116.9600  -15.1920   49.8910 N.am      8 SEL2        0.0000 
     17 N         119.1300  -14.3460   48.2030 N.am      5 SEP2        0.0000 
     18 N         118.6150  -14.1225   49.7355 N.am      2 SEC2        0.0000 
     19 N         118.1000  -13.8990   51.2680 N.am      8 SEL2        0.0000 
     20 CA        110.2985  -17.8620   49.2520 C.3       3 GLC5        0.0000 
     21 CA        111.2430  -19.2650   48.1460 C.3       9 GLL5        0.0000 
     22 CA        109.3540  -16.4590   50.3580 C.3       6 GLP5        0.0000 
     23 CA        110.7615  -21.3785   56.1570 C.3       3 GLC5        0.0000 
     24 CA        109.5540  -21.0380   54.1200 C.3       9 GLL5        0.0000 
     25 CA        112.0360  -21.1570   57.7240 C.3       6 GLP5        0.0000 
     26 CA        107.6770  -21.3015   53.9765 C.3       3 GLC5        0.0000 
     27 CA        109.4200  -22.1620   55.0600 C.3       9 GLL5        0.0000 
     28 CA        105.8670  -21.0030   53.3630 C.3       6 GLP5        0.0000 
     29 CA        108.8543  -25.0113   53.9312 C.3       3 GLC5        0.0000 
     30 CA        110.6480  -23.6520   53.4380 C.3       9 GLL5        0.0000 
     31 CA        107.4020  -26.4680   53.7940 C.3       6 GLP5        0.0000 
     32 CA        111.5427  -23.1583   55.6823 C.3       3 GLC5        0.0000 
     33 CA        109.9650  -23.4570   54.6990 C.3       9 GLL5        0.0000 
     34 CA        112.7790  -22.7620   57.2960 C.3       6 GLP5        0.0000 
     35 CA        109.4311  -22.1196   51.1333 C.3       3 GLC5        0.0000 
     36 CA        110.2490  -21.2560   52.8710 C.3       9 GLL5        0.0000 
     37 CA        107.7270  -21.9060   50.2320 C.3       6 GLP5        0.0000 
     38 CA        115.1743  -22.0650   51.5738 C.3       3 GLC5        0.0000 
     39 CA        113.2260  -20.6700   51.1690 C.3       9 GLL5        0.0000 
     40 CA        116.6680  -23.2440   51.4580 C.3       6 GLP5        0.0000 
     41 CA        113.4032  -17.8892   49.2803 C.3       3 GLC5        0.0000 
     42 CA        113.3410  -19.3070   50.6930 C.3       9 GLL5        0.0000 
     43 CA        112.9460  -16.9030   47.6180 C.3       6 GLP5        0.0000 
     44 CA        116.4667  -20.8600   51.8398 C.3       3 GLC5        0.0000 
     45 CA        117.6900  -22.1330   51.2360 C.3       6 GLP5        0.0000 
     46 CA        114.3825  -21.4695   54.3385 C.3       3 GLC5        0.0000 
     47 CA        115.1670  -20.2440   52.7120 C.3       9 GLL5        0.0000 
     48 CA        114.1140  -22.2660   56.2160 C.3       6 GLP5        0.0000 
     49 CA        118.8962  -16.3035   50.7272 C.3       3 GLC5        0.0000 
     50 CA        117.9660  -16.2330   51.7860 C.3       9 GLL5        0.0000 
     51 CA        119.5830  -16.5910   48.9760 C.3       6 GLP5        0.0000 
     52 CA        109.7590  -21.4215   49.5897 C.3       3 GLC5        0.0000 
     53 CA        111.5860  -20.2860   48.6760 C.3       9 GLL5        0.0000 
     54 CA        112.5030  -19.6465   47.6469 C.3       3 GLC5        0.0000 
     55 CA        113.4890  -19.1920   46.7470 C.3       6 GLP5        0.0000 
@<TRIPOS>BOND
@<TRIPOS>SUBSTRUCTURE
     1 ALC1        1 GROUP        1 X    ALC  0     ROOT ALC X 1
     2 SEC2        6 GROUP        1 X    SEC  0     **** SEC X 2
     3 GLC5        9 GROUP        1 X    GLC  0     **** GLC X 6
     4 ALP1        3 GROUP        1 Y    ALP  0     ROOT ALP Y 8
     5 SEP2        8 GROUP        1 Y    SEP  0     **** SEP Y 9
     6 GLP5       11 GROUP        1 Y    GLP  0     **** GLP Y 13
     7 ALL1        2 GROUP        1 Z    ALL  0     ROOT ALL Z 15
     8 SEL2        7 GROUP        1 Z    SEL  0     **** SEL Z 16
     9 GLL5       10 GROUP        1 Z    GLL  0     **** GLL Z 20
@<TRIPOS>SET

