#    Name: 1ci7_CB3_1_ligand
#    Modification time : Mon Mar 24 20:43:34 2014

@<TRIPOS>MOLECULE
1ci7_CB3_1_ligand
   55    57     1     0     0
SMALL
NO_CHARGES


@<TRIPOS>ATOM
      1 N1        108.7850  -21.9730   56.2760 N.pl3     1 CB3768      0.0000 
      2 C2        108.3030  -20.7440   56.6860 C.2       1 CB3768      0.0000 
      3 NA2       107.8000  -20.5760   57.9110 N.pl3     1 CB3768      0.0000 
      4 N3        108.3720  -19.6830   55.8120 N.2       1 CB3768      0.0000 
      5 C4        108.9460  -19.7890   54.5530 C.2       1 CB3768      0.0000 
      6 O4        108.8670  -18.6610   53.7420 O.2       1 CB3768      0.0000 
      7 C4A       109.5540  -21.0380   54.1200 C.ar      1 CB3768      0.0000 
      8 C5        110.2490  -21.2560   52.8710 C.ar      1 CB3768      0.0000 
      9 C6        110.8100  -22.5530   52.5190 C.ar      1 CB3768      0.0000 
     10 C7        110.6480  -23.6520   53.4380 C.ar      1 CB3768      0.0000 
     11 C8        109.9650  -23.4570   54.6990 C.ar      1 CB3768      0.0000 
     12 C8A       109.4200  -22.1620   55.0600 C.ar      1 CB3768      0.0000 
     13 C9        111.7410  -22.7620   51.3740 C.3       1 CB3768      0.0000 
     14 N10       112.2980  -21.5610   50.6720 N.pl3     1 CB3768      0.0000 
     15 C11       113.2260  -20.6700   51.1690 C.ar      1 CB3768      0.0000 
     16 C12       113.3410  -19.3070   50.6930 C.ar      1 CB3768      0.0000 
     17 C13       114.3800  -18.4440   51.1920 C.ar      1 CB3768      0.0000 
     18 C14       115.3200  -18.9300   52.1750 C.ar      1 CB3768      0.0000 
     19 C15       115.1670  -20.2440   52.7120 C.ar      1 CB3768      0.0000 
     20 C16       114.1350  -21.1020   52.2100 C.ar      1 CB3768      0.0000 
     21 C         116.5060  -18.1900   52.5250 C.2       1 CB3768      0.0000 
     22 O         117.1550  -18.4340   53.5420 O.2       1 CB3768      0.0000 
     23 N         116.8680  -17.2210   51.6800 N.am      1 CB3768      0.0000 
     24 CA        117.9660  -16.2330   51.7860 C.3       1 CB3768      0.0000 
     25 CB        118.4530  -15.7990   53.1710 C.3       1 CB3768      0.0000 
     26 CG        119.3910  -16.7840   53.8630 C.3       1 CB3768      0.0000 
     27 CD        120.6500  -17.0690   53.0540 C.2       1 CB3768      0.0000 
     28 OE1       121.3090  -16.1040   52.5940 O.co2     1 CB3768      0.0000 
     29 OE2       120.9880  -18.2620   52.8890 O.co2     1 CB3768      0.0000 
     30 CT        117.6530  -15.0140   50.9180 C.2       1 CB3768      0.0000 
     31 O1        116.9600  -15.1920   49.8910 O.co2     1 CB3768      0.0000 
     32 O2        118.1000  -13.8990   51.2680 O.co2     1 CB3768      0.0000 
     33 CP1       111.9960  -21.5880   49.2190 C.3       1 CB3768      0.0000 
     34 CP2       111.5860  -20.2860   48.6760 C.1       1 CB3768      0.0000 
     35 CP3       111.2430  -19.2650   48.1460 C.1       1 CB3768      0.0000 
     36 H         108.6650  -22.7992   56.9131 H         1 CB3768      0.0000 
     37 H         107.0529  -19.9162   57.9933 H         1 CB3768      0.0000 
     38 H         108.2154  -21.1250   58.6363 H         1 CB3768      0.0000 
     39 H         110.3518  -20.4805   52.2134 H         1 CB3768      0.0000 
     40 H         111.0135  -24.5669   53.2020 H         1 CB3768      0.0000 
     41 H         109.8650  -24.2374   55.3416 H         1 CB3768      0.0000 
     42 H         111.2292  -23.4166   50.6069 H         1 CB3768      0.0000 
     43 H         112.6053  -23.4023   51.7232 H         1 CB3768      0.0000 
     44 H         112.6831  -18.9613   50.0031 H         1 CB3768      0.0000 
     45 H         114.4536  -17.4921   50.8536 H         1 CB3768      0.0000 
     46 H         115.7849  -20.5709   53.4457 H         1 CB3768      0.0000 
     47 H         114.0325  -22.0461   52.5932 H         1 CB3768      0.0000 
     48 H         116.2976  -17.0972   50.7535 H         1 CB3768      0.0000 
     49 H         118.8800  -16.6977   51.2700 H         1 CB3768      0.0000 
     50 H         117.5722  -15.6276   53.8191 H         1 CB3768      0.0000 
     51 H         118.9653  -14.8223   53.0769 H         1 CB3768      0.0000 
     52 H         118.8548  -17.7261   54.0379 H         1 CB3768      0.0000 
     53 H         119.6769  -16.3781   54.8424 H         1 CB3768      0.0000 
     54 H         111.1982  -22.3397   49.0287 H         1 CB3768      0.0000 
     55 H         112.8907  -21.9565   48.6699 H         1 CB3768      0.0000 
@<TRIPOS>BOND
     1    2    1 1    
     2   12    1 1    
     3   36    1 1    
     4    3    2 1    
     5    4    2 2    
     6   37    3 1    
     7   38    3 1    
     8    5    4 1    
     9    6    5 2    
    10    7    5 1    
    11    8    7 ar   
    12   12    7 ar   
    13    9    8 ar   
    14   39    8 1    
    15   10    9 ar   
    16   13    9 1    
    17   11   10 ar   
    18   40   10 1    
    19   12   11 ar   
    20   41   11 1    
    21   14   13 1    
    22   42   13 1    
    23   43   13 1    
    24   15   14 1    
    25   33   14 1    
    26   16   15 ar   
    27   20   15 ar   
    28   17   16 ar   
    29   44   16 1    
    30   18   17 ar   
    31   45   17 1    
    32   19   18 ar   
    33   21   18 1    
    34   20   19 ar   
    35   46   19 1    
    36   47   20 1    
    37   22   21 2    
    38   23   21 am   
    39   24   23 1    
    40   48   23 1    
    41   25   24 1    
    42   30   24 1    
    43   49   24 1    
    44   26   25 1    
    45   50   25 1    
    46   51   25 1    
    47   27   26 1    
    48   52   26 1    
    49   53   26 1    
    50   28   27 ar   
    51   29   27 ar   
    52   31   30 ar   
    53   32   30 ar   
    54   34   33 1    
    55   54   33 1    
    56   55   33 1    
    57   35   34 3    
@<TRIPOS>SUBSTRUCTURE
     1 CB3768      1 GROUP   
@<TRIPOS>SET

