#    Name: 3g4g_D71_3_INTS_M
#    Modification time : Tue Mar 25 07:04:41 2014

@<TRIPOS>MOLECULE
3g4g_D71_3_INTS_M
   49     0     6     0     0
SMALL
NO_CHARGES


@<TRIPOS>ATOM
      1 CA         12.2815    2.3775  -59.3250 C.3       2 GLC5        0.0000 
      2 CA         11.6580    0.5590  -60.4390 C.3       6 GLL5        0.0000 
      3 CA         12.9050    4.1960  -58.2110 C.3       4 GLP5        0.0000 
      4 CA          7.5925    0.0530  -62.2475 C.3       2 GLC5        0.0000 
      5 CA          7.3480   -1.8160  -63.2560 C.3       6 GLL5        0.0000 
      6 CA          7.8370    1.9220  -61.2390 C.3       4 GLP5        0.0000 
      7 N           9.3785   -2.1065  -60.6245 N.am      1 SEC2        0.0000 
      8 N           9.9770   -0.9140  -61.3740 N.am      5 SEL2        0.0000 
      9 N           8.7800   -3.2990  -59.8750 N.am      3 SEP2        0.0000 
     10 N          14.3615    1.3695  -63.8755 N.am      1 SEC2        0.0000 
     11 N          13.0180    1.0720  -64.4670 N.am      5 SEL2        0.0000 
     12 N          15.7050    1.6670  -63.2840 N.am      3 SEP2        0.0000 
     13 CA         11.6980   -1.8935  -67.6880 C.3       2 GLC5        0.0000 
     14 CA         11.9150   -0.0610  -66.6840 C.3       6 GLL5        0.0000 
     15 CA         11.4810   -3.7260  -68.6920 C.3       4 GLP5        0.0000 
     16 CA         13.6085   -0.5975  -66.6895 C.3       2 GLC5        0.0000 
     17 CA         15.3020   -1.1340  -66.6950 C.3       4 GLP5        0.0000 
     18 CA         12.6080   -1.5005  -65.4540 C.3       2 GLC5        0.0000 
     19 CA         13.3010   -2.9400  -64.2240 C.3       4 GLP5        0.0000 
     20 CA         13.7132    1.1713  -60.6035 C.3       2 GLC5        0.0000 
     21 CA         12.1610    0.7680  -61.7990 C.3       6 GLL5        0.0000 
     22 CA         15.5170    1.6790  -60.0880 C.3       4 GLP5        0.0000 
     23 CA          9.3985    0.8172  -61.9855 C.3       2 GLC5        0.0000 
     24 CA         11.5460    0.1600  -62.8500 C.3       6 GLL5        0.0000 
     25 CA         10.1253    1.0355  -58.9822 C.3       2 GLC5        0.0000 
     26 CA         10.6010   -0.2570  -60.2680 C.3       6 GLL5        0.0000 
     27 CA          9.1210    1.9200  -57.6110 C.3       4 GLP5        0.0000 
     28 CA          9.4832    1.0365  -60.7963 C.3       2 GLC5        0.0000 
     29 CA          9.5860   -5.2058  -63.3500 C.3       2 GLC5        0.0000 
     30 CA          7.5800   -4.5710  -63.8880 C.3       6 GLL5        0.0000 
     31 CA         11.0480   -6.2620  -62.7680 C.3       4 GLP5        0.0000 
     32 CA          4.5630   -3.9250  -64.0148 C.3       2 GLC5        0.0000 
     33 CA          6.2770   -4.0220  -63.4570 C.3       6 GLL5        0.0000 
     34 CA          2.9010   -4.4790  -64.7180 C.3       4 GLP5        0.0000 
     35 CA          5.5282   -1.3680  -61.9080 C.3       2 GLC5        0.0000 
     36 CA          6.1730   -2.7200  -63.1660 C.3       6 GLL5        0.0000 
     37 CA          4.2960   -0.4680  -60.6050 C.3       4 GLP5        0.0000 
     38 CA          5.9404   -4.9346  -62.1666 C.3       2 GLC5        0.0000 
     39 CA          5.3300   -6.3610  -60.9140 C.3       4 GLP5        0.0000 
     40 CA         12.5825    0.3925  -68.8390 C.3       2 GLC5        0.0000 
     41 CA         13.7310    0.4200  -70.6020 C.3       4 GLP5        0.0000 
     42 CA          9.3508   -0.7602  -69.8905 C.3       2 GLC5        0.0000 
     43 CA         10.0950    0.3210  -68.4040 C.3       6 GLL5        0.0000 
     44 CA          9.0470   -2.3310  -71.0350 C.3       4 GLP5        0.0000 
     45 CA         10.9733    0.6903  -70.2235 C.3       2 GLC5        0.0000 
     46 CA         12.2920    0.5700  -71.7010 C.3       4 GLP5        0.0000 
     47 CA          9.4117    3.3460  -65.9020 C.3       2 GLC5        0.0000 
     48 CA         10.9630    2.2190  -67.1020 C.3       6 GLL5        0.0000 
     49 CA          8.2730    4.0580  -64.3780 C.3       4 GLP5        0.0000 
@<TRIPOS>BOND
@<TRIPOS>SUBSTRUCTURE
     1 SEC2        7 GROUP        1 X    SEC  0     ROOT SEC X 2
     2 GLC5        1 GROUP        1 X    GLC  0     **** GLC X 6
     3 SEP2        9 GROUP        1 Y    SEP  0     ROOT SEP Y 9
     4 GLP5        3 GROUP        1 Y    GLP  0     **** GLP Y 13
     5 SEL2        8 GROUP        1 Z    SEL  0     ROOT SEL Z 16
     6 GLL5        2 GROUP        1 Z    GLL  0     **** GLL Z 20
@<TRIPOS>SET

