#    Name: 3g4g_D71_3_ligand
#    Modification time : Tue Mar 25 07:04:41 2014

@<TRIPOS>MOLECULE
3g4g_D71_3_ligand
   41    44     1     0     0
SMALL
NO_CHARGES


@<TRIPOS>ATOM
      1 C1         12.1610    0.7680  -61.7990 C.ar      1 D71903      0.0000 
      2 C2         11.5460    0.1600  -62.8500 C.ar      1 D71903      0.0000 
      3 C3         10.3740   -0.7350  -62.6140 C.ar      1 D71903      0.0000 
      4 C5         10.6010   -0.2570  -60.2680 C.ar      1 D71903      0.0000 
      5 C6         11.6580    0.5590  -60.4390 C.ar      1 D71903      0.0000 
      6 C14        10.2530   -1.1400  -65.1030 C.2       1 D71903      0.0000 
      7 O56         8.6530   -6.2840  -64.8810 O.2       1 D71903      0.0000 
      8 N54         7.7050   -5.9300  -64.2450 N.pl3     1 D71903      0.0000 
      9 O58         6.7670   -6.8320  -63.9420 O.2       1 D71903      0.0000 
     10 C40         7.5800   -4.5710  -63.8880 C.ar      1 D71903      0.0000 
     11 C39         8.6680   -3.7280  -63.9760 C.ar      1 D71903      0.0000 
     12 C41         6.2770   -4.0220  -63.4570 C.ar      1 D71903      0.0000 
     13 C42         6.1730   -2.7200  -63.1660 C.ar      1 D71903      0.0000 
     14 C43         7.3480   -1.8160  -63.2560 C.ar      1 D71903      0.0000 
     15 C22         8.5550   -2.2840  -63.6480 C.ar      1 D71903      0.0000 
     16 N13         9.7220   -1.3850  -63.7530 N.am      1 D71903      0.0000 
     17 N4          9.9770   -0.9140  -61.3740 N.ar      1 D71903      0.0000 
     18 O52         9.7610   -1.6720  -66.1150 O.2       1 D71903      0.0000 
     19 N15        11.4040   -0.2880  -65.3010 N.am      1 D71903      0.0000 
     20 C16        12.0330    0.3610  -64.2220 C.2       1 D71903      0.0000 
     21 O50        13.0180    1.0720  -64.4670 O.2       1 D71903      0.0000 
     22 C24        11.9150   -0.0610  -66.6840 C.3       1 D71903      0.0000 
     23 C26        10.9530    0.7910  -67.4680 C.ar      1 D71903      0.0000 
     24 C32        10.0950    0.3210  -68.4040 C.ar      1 D71903      0.0000 
     25 C31         9.2140    1.3000  -69.0880 C.ar      1 D71903      0.0000 
     26 N30         9.2660    2.5640  -68.7600 N.ar      1 D71903      0.0000 
     27 C29        10.1380    3.0490  -67.7500 C.ar      1 D71903      0.0000 
     28 C28        10.9630    2.2190  -67.1020 C.ar      1 D71903      0.0000 
     29 H          12.9733    1.3764  -61.9096 H         1 D71903      0.0000 
     30 H          10.2023   -0.4370  -59.3239 H         1 D71903      0.0000 
     31 H          12.1309    1.0406  -59.6841 H         1 D71903      0.0000 
     32 H           9.5923   -4.0608  -64.2692 H         1 D71903      0.0000 
     33 H           5.5002   -4.6825  -63.4015 H         1 D71903      0.0000 
     34 H           5.2907   -2.2758  -62.8684 H         1 D71903      0.0000 
     35 H           7.1829   -0.8341  -63.0055 H         1 D71903      0.0000 
     36 H          12.0448   -1.0203  -67.1932 H         1 D71903      0.0000 
     37 H          12.8875    0.4379  -66.6425 H         1 D71903      0.0000 
     38 H          10.0114   -0.6443  -68.6695 H         1 D71903      0.0000 
     39 H           8.5920    0.9061  -69.8070 H         1 D71903      0.0000 
     40 H          10.1079    4.0649  -67.5385 H         1 D71903      0.0000 
     41 H          11.6029    2.5031  -66.3683 H         1 D71903      0.0000 
@<TRIPOS>BOND
     1    2    1 ar   
     2    5    1 ar   
     3   29    1 1    
     4    3    2 ar   
     5   20    2 1    
     6   16    3 1    
     7   17    3 ar   
     8    5    4 ar   
     9   17    4 ar   
    10   30    4 1    
    11   31    5 1    
    12   16    6 am   
    13   18    6 2    
    14   19    6 am   
    15    8    7 2    
    16    9    8 2    
    17   10    8 1    
    18   11   10 ar   
    19   12   10 ar   
    20   15   11 ar   
    21   32   11 1    
    22   13   12 ar   
    23   33   12 1    
    24   14   13 ar   
    25   34   13 1    
    26   15   14 ar   
    27   35   14 1    
    28   16   15 1    
    29   20   19 am   
    30   22   19 1    
    31   21   20 2    
    32   23   22 1    
    33   36   22 1    
    34   37   22 1    
    35   24   23 ar   
    36   28   23 ar   
    37   25   24 ar   
    38   38   24 1    
    39   26   25 ar   
    40   39   25 1    
    41   27   26 ar   
    42   28   27 ar   
    43   40   27 1    
    44   41   28 1    
@<TRIPOS>SUBSTRUCTURE
     1 D71903      1 GROUP   
@<TRIPOS>SET

