#    Name: 3IEU_2_CAVITY_N1_6.mol2
#    Modification time : Tue Mar 11 02:21:13 2014

@<TRIPOS>MOLECULE
3IEU_2_CAVITY_N1_6.mol2
   74     0     5     0     0
SMALL
NO_CHARGES


@<TRIPOS>ATOM
      1 DU        -31.8949   15.7165   67.5552 H         5 CUB7        0.0000 
      2 O         -31.1233   14.5775   68.1529 O.2       2 ALA2        0.0000 
      3 O         -32.5732   14.7640   66.6157 O.2       2 ALA2        0.0000 
      4 O         -31.8016   13.6250   67.2134 O.2       2 ALA2        0.0000 
      5 OG        -30.1236   16.8820   67.4898 O.2       1 SER1        0.0000 
      6 CA        -29.3521   15.7430   68.0875 C.3       4 GLY6        0.0000 
      7 O         -28.5805   14.6039   68.6852 O.2       2 ALA2        0.0000 
      8 DU        -31.5735   17.0685   65.9525 H         5 CUB7        0.0000 
      9 DU        -30.8019   15.9295   66.5502 H         5 CUB7        0.0000 
     10 DU        -30.0303   14.7905   67.1479 H         5 CUB7        0.0000 
     11 CA        -29.2588   13.6514   67.7457 C.3       4 GLY6        0.0000 
     12 O         -32.2518   16.1161   65.0130 O.2       2 ALA2        0.0000 
     13 DU        -31.4802   14.9770   65.6107 H         5 CUB7        0.0000 
     14 N         -30.7086   13.8380   66.2084 N.2       2 ALA2        0.0000 
     15 O         -29.1655   11.5599   67.4038 O.2       2 ALA2        0.0000 
     16 O         -32.1585   14.0245   64.6712 O.2       2 ALA2        0.0000 
     17 N         -31.3869   12.8855   65.2689 N.2       2 ALA2        0.0000 
     18 N         -30.6153   11.7465   65.8666 N.2       2 ALA2        0.0000 
     19 CA        -29.0721    9.4684   67.0620 C.3       4 GLY6        0.0000 
     20 OG        -28.2591   15.9560   67.0825 O.2       1 SER1        0.0000 
     21 CA        -27.4875   14.8169   67.6802 C.3       4 GLY6        0.0000 
     22 O         -26.7159   13.6779   68.2779 O.2       2 ALA2        0.0000 
     23 OG        -30.4805   17.2816   64.9475 O.2       1 SER1        0.0000 
     24 OG        -29.7089   16.1425   65.5452 O.2       1 SER1        0.0000 
     25 DU        -28.9374   15.0035   66.1429 H         5 CUB7        0.0000 
     26 DU        -28.1658   13.8644   66.7407 H         5 CUB7        0.0000 
     27 O         -27.3942   12.7254   67.3384 O.2       2 ALA2        0.0000 
     28 O         -26.6226   11.5864   67.9361 O.2       2 ALA2        0.0000 
     29 DU        -31.1588   16.3291   64.0080 H         5 CUB7        0.0000 
     30 DU        -30.3872   15.1900   64.6057 H         5 CUB7        0.0000 
     31 DU        -29.6156   14.0510   65.2034 H         5 CUB7        0.0000 
     32 DU        -28.8440   12.9120   65.8011 H         5 CUB7        0.0000 
     33 O         -28.0725   11.7729   66.3988 O.2       2 ALA2        0.0000 
     34 O         -27.3009   10.6339   66.9966 O.2       2 ALA2        0.0000 
     35 CA        -31.8371   15.3766   63.0684 C.3       4 GLY6        0.0000 
     36 CA        -31.0655   14.2376   63.6662 C.3       4 GLY6        0.0000 
     37 DU        -30.2939   13.0985   64.2639 H         5 CUB7        0.0000 
     38 DU        -29.5223   11.9595   64.8616 H         5 CUB7        0.0000 
     39 N         -28.7507   10.8204   65.4593 N.2       2 ALA2        0.0000 
     40 CA        -30.9722   12.1460   63.3243 C.3       4 GLY6        0.0000 
     41 DU        -30.2006   11.0070   63.9221 H         5 CUB7        0.0000 
     42 OG        -28.7093   18.4470   64.8821 O.2       1 SER1        0.0000 
     43 OG        -27.9377   17.3080   65.4798 O.2       1 SER1        0.0000 
     44 CA        -27.1661   16.1690   66.0775 C.3       4 GLY6        0.0000 
     45 OG        -25.6229   13.8909   67.2729 O.2       1 SER1        0.0000 
     46 CA        -29.3875   17.4946   63.9425 C.3       4 GLY6        0.0000 
     47 CA        -28.6159   16.3555   64.5402 C.3       4 GLY6        0.0000 
     48 OG        -27.8444   15.2165   65.1379 O.2       1 SER1        0.0000 
     49 OG        -27.0728   14.0775   65.7357 O.2       1 SER1        0.0000 
     50 OG        -26.3012   12.9384   66.3334 O.2       1 SER1        0.0000 
     51 OD1       -25.5296   11.7994   66.9311 O.3       3 ASP3        0.0000 
     52 CA        -30.0658   16.5421   63.0030 C.3       4 GLY6        0.0000 
     53 DU        -29.2942   15.4030   63.6007 H         5 CUB7        0.0000 
     54 OG        -28.5226   14.2640   64.1984 O.2       1 SER1        0.0000 
     55 OG        -27.7511   13.1250   64.7961 O.2       1 SER1        0.0000 
     56 OG        -26.9795   11.9859   65.3938 O.2       1 SER1        0.0000 
     57 OD1       -26.2079   10.8469   65.9916 O.3       3 ASP3        0.0000 
     58 CA        -30.7441   15.5896   62.0635 C.3       4 GLY6        0.0000 
     59 CA        -29.9725   14.4506   62.6612 C.3       4 GLY6        0.0000 
     60 N         -29.2009   13.3115   63.2589 N.2       2 ALA2        0.0000 
     61 DU        -28.4293   12.1725   63.8566 H         5 CUB7        0.0000 
     62 CA        -27.6578   11.0334   64.4543 C.3       4 GLY6        0.0000 
     63 CA        -26.8862    9.8944   65.0520 C.3       4 GLY6        0.0000 
     64 CA        -29.8792   12.3590   62.3193 C.3       4 GLY6        0.0000 
     65 CA        -29.1076   11.2200   62.9171 C.3       4 GLY6        0.0000 
     66 CA        -28.3360   10.0810   63.5148 C.3       4 GLY6        0.0000 
     67 CA        -28.2945   17.7076   62.9375 C.3       4 GLY6        0.0000 
     68 CA        -27.5230   16.5685   63.5352 C.3       4 GLY6        0.0000 
     69 CA        -28.2012   15.6160   62.5957 C.3       4 GLY6        0.0000 
     70 OG        -27.4297   14.4770   63.1934 O.2       1 SER1        0.0000 
     71 CA        -29.6511   15.8026   61.0585 C.3       4 GLY6        0.0000 
     72 N         -28.8795   14.6636   61.6562 N.2       2 ALA2        0.0000 
     73 N         -28.1079   13.5245   62.2539 N.2       2 ALA2        0.0000 
     74 N         -27.3363   12.3855   62.8516 N.2       2 ALA2        0.0000 
@<TRIPOS>BOND
@<TRIPOS>SUBSTRUCTURE
     1 SER1        5 GROUP   
     2 ALA2        2 GROUP   
     3 ASP3       51 GROUP   
     4 GLY6        6 GROUP   
     5 CUB7        1 GROUP   
@<TRIPOS>SET

