#    Name: 3ieu_GDP_2_INTS_M
#    Modification time : Tue Mar 25 16:23:29 2014

@<TRIPOS>MOLECULE
3ieu_GDP_2_INTS_M
   60     0    12     0     0
SMALL
NO_CHARGES


@<TRIPOS>ATOM
      1 NZ        -25.1540   12.1865   69.3900 N.4       3 LYC4        0.0000 
      2 NZ        -26.0530   13.3710   69.3200 N.4      11 LYL4        0.0000 
      3 NZ        -24.2550   11.0020   69.4600 N.4       7 LYP4        0.0000 
      4 N         -26.7820   14.3585   70.2110 N.am      2 SEC2        0.0000 
      5 N         -26.0530   13.3710   69.3200 N.am     10 SEL2        0.0000 
      6 N         -27.5110   15.3460   71.1020 N.am      6 SEP2        0.0000 
      7 N         -25.5490   14.6360   69.5610 N.am      2 SEC2        0.0000 
      8 N         -25.0450   15.9010   69.8020 N.am      6 SEP2        0.0000 
      9 N         -25.1540   12.1865   69.3900 N.am      2 SEC2        0.0000 
     10 N         -24.2550   11.0020   69.4600 N.am      6 SEP2        0.0000 
     11 NZ        -25.5995   11.4270   68.5205 N.4       3 LYC4        0.0000 
     12 NZ        -26.9440   11.8520   67.5810 N.4      11 LYL4        0.0000 
     13 N         -27.7300   11.3930   68.7295 N.am      2 SEC2        0.0000 
     14 N         -26.9440   11.8520   67.5810 N.am     10 SEL2        0.0000 
     15 N         -28.5160   10.9340   69.8780 N.am      6 SEP2        0.0000 
     16 N         -25.0125   15.2150   67.0000 N.am      2 SEC2        0.0000 
     17 N         -25.7290   13.9360   66.9610 N.am     10 SEL2        0.0000 
     18 N         -24.2960   16.4940   67.0390 N.am      6 SEP2        0.0000 
     19 N         -25.2280   14.4810   65.9040 N.am      2 SEC2        0.0000 
     20 N         -24.7270   15.0260   64.8470 N.am      6 SEP2        0.0000 
     21 N         -27.7880   14.7165   69.5030 N.am      2 SEC2        0.0000 
     22 N         -28.0650   14.0870   67.9040 N.am     10 SEL2        0.0000 
     23 N         -26.3860   17.6130   67.1020 N.am      2 SEC2        0.0000 
     24 N         -27.1050   16.4300   67.4580 N.am     10 SEL2        0.0000 
     25 N         -25.6670   18.7960   66.7460 N.am      6 SEP2        0.0000 
     26 N         -27.7355   17.7190   67.4275 N.am      2 SEC2        0.0000 
     27 N         -28.3660   19.0080   67.3970 N.am      6 SEP2        0.0000 
     28 CA        -30.2160   13.5480   69.0520 C.3       4 GLC5        0.0000 
     29 CA        -30.8030   15.2630   67.9460 C.3      12 GLL5        0.0000 
     30 CA        -29.6290   11.8330   70.1580 C.3       8 GLP5        0.0000 
     31 N         -32.2975   16.2105   70.7535 N.am      2 SEC2        0.0000 
     32 N         -31.8830   16.6950   69.5250 N.am     10 SEL2        0.0000 
     33 N         -32.7120   15.7260   71.9820 N.am      6 SEP2        0.0000 
     34 CA        -31.9745   17.1655   71.1095 C.3       4 GLC5        0.0000 
     35 CA        -32.3080   18.0490   69.3770 C.3      12 GLL5        0.0000 
     36 CA        -31.6410   16.2820   72.8420 C.3       8 GLP5        0.0000 
     37 N         -28.9215   19.4960   72.1485 N.am      2 SEC2        0.0000 
     38 N         -29.8100   20.0980   71.0750 N.am     10 SEL2        0.0000 
     39 N         -28.0330   18.8940   73.2220 N.am      6 SEP2        0.0000 
     40 CA        -31.0520   19.1900   73.2165 C.3       4 GLC5        0.0000 
     41 CA        -30.9090   20.4890   71.7440 C.3      12 GLL5        0.0000 
     42 CA        -31.1950   17.8910   74.6890 C.3       8 GLP5        0.0000 
     43 CA        -28.8925   21.2240   71.4005 C.3       4 GLC5        0.0000 
     44 CA        -26.8760   21.9590   71.0570 C.3       8 GLP5        0.0000 
     45 CA        -31.3070   22.3355   71.1060 C.3       4 GLC5        0.0000 
     46 CA        -31.7050   24.1820   70.4680 C.3       8 GLP5        0.0000 
     47 N         -30.4475   23.5180   73.6510 N.am      2 SEC2        0.0000 
     48 N         -30.2630   22.1030   73.3600 N.am     10 SEL2        0.0000 
     49 N         -30.6320   24.9330   73.9420 N.am      6 SEP2        0.0000 
     50 N         -29.7935   23.0645   72.1145 N.am      2 SEC2        0.0000 
     51 N         -29.3240   24.0260   70.8690 N.am      6 SEP2        0.0000 
     52 O         -32.6530   22.1755   74.3995 O.2       1 ALC1        0.0000 
     53 O         -32.4700   21.5400   73.2430 O.2       9 ALL1        0.0000 
     54 O         -32.8360   22.8110   75.5560 O.2       5 ALP1        0.0000 
     55 O         -33.5045   22.6385   73.8810 O.2       1 ALC1        0.0000 
     56 O         -34.5390   23.7370   74.5190 O.2       5 ALP1        0.0000 
     57 O         -34.6330   22.3735   73.8415 O.2       1 ALC1        0.0000 
     58 O         -34.7270   21.0100   73.1640 O.2       9 ALL1        0.0000 
     59 CA        -31.8445   18.0110   72.0115 C.3       4 GLC5        0.0000 
     60 CA        -32.0480   19.7400   71.1810 C.3      12 GLL5        0.0000 
@<TRIPOS>BOND
@<TRIPOS>SUBSTRUCTURE
     1 ALC1       52 GROUP        1 X    ALC  0     ROOT ALC X 1
     2 SEC2        4 GROUP        1 X    SEC  0     **** SEC X 2
     3 LYC4        1 GROUP        1 X    LYC  0     **** LYC X 4
     4 GLC5       28 GROUP        1 X    GLC  0     **** GLC X 6
     5 ALP1       54 GROUP        1 Y    ALP  0     ROOT ALP Y 8
     6 SEP2        6 GROUP        1 Y    SEP  0     **** SEP Y 9
     7 LYP4        3 GROUP        1 Y    LYP  0     **** LYP Y 11
     8 GLP5       30 GROUP        1 Y    GLP  0     **** GLP Y 13
     9 ALL1       53 GROUP        1 Z    ALL  0     ROOT ALL Z 15
    10 SEL2        5 GROUP        1 Z    SEL  0     **** SEL Z 16
    11 LYL4        2 GROUP        1 Z    LYL  0     **** LYL Z 18
    12 GLL5       29 GROUP        1 Z    GLL  0     **** GLL Z 20
@<TRIPOS>SET

