#    Name: 3ieu_GDP_2_ligand
#    Modification time : Tue Mar 25 16:23:29 2014

@<TRIPOS>MOLECULE
3ieu_GDP_2_ligand
   40    42     1     0     0
SMALL
NO_CHARGES


@<TRIPOS>ATOM
      1 PB        -26.6820   13.3040   67.9430 P.3       1 GDP302      0.0000 
      2 O1B       -26.0530   13.3710   69.3200 O.co2     1 GDP302      0.0000 
      3 O2B       -26.9440   11.8520   67.5810 O.co2     1 GDP302      0.0000 
      4 O3B       -25.7290   13.9360   66.9610 O.co2     1 GDP302      0.0000 
      5 O3A       -28.0650   14.0870   67.9040 O.3       1 GDP302      0.0000 
      6 PA        -28.3140   15.5350   67.2590 P.3       1 GDP302      0.0000 
      7 O1A       -28.7610   15.3520   65.8110 O.co2     1 GDP302      0.0000 
      8 O2A       -27.1050   16.4300   67.4580 O.co2     1 GDP302      0.0000 
      9 O5'       -29.6120   16.0630   68.0660 O.3       1 GDP302      0.0000 
     10 C5'       -30.8030   15.2630   67.9460 C.3       1 GDP302      0.0000 
     11 C4'       -32.0660   16.0350   68.2700 C.3       1 GDP302      0.0000 
     12 O4'       -31.8830   16.6950   69.5250 O.3       1 GDP302      0.0000 
     13 C3'       -32.3240   17.1050   67.2150 C.3       1 GDP302      0.0000 
     14 O3'       -33.6980   17.0980   66.7940 O.3       1 GDP302      0.0000 
     15 C2'       -32.0120   18.4000   67.9270 C.3       1 GDP302      0.0000 
     16 O2'       -32.7930   19.4970   67.4400 O.3       1 GDP302      0.0000 
     17 C1'       -32.3080   18.0490   69.3770 C.3       1 GDP302      0.0000 
     18 N9        -31.5350   18.9680   70.2280 N.pl3     1 GDP302      0.0000 
     19 C8        -30.2050   19.1750   70.1590 C.2       1 GDP302      0.0000 
     20 N7        -29.8100   20.0980   71.0750 N.2       1 GDP302      0.0000 
     21 C5        -30.9090   20.4890   71.7440 C.2       1 GDP302      0.0000 
     22 C6        -31.1910   21.4370   72.8410 C.2       1 GDP302      0.0000 
     23 O6        -30.2630   22.1030   73.3600 O.2       1 GDP302      0.0000 
     24 N1        -32.4700   21.5400   73.2430 N.am      1 GDP302      0.0000 
     25 C2        -33.4750   20.8280   72.6900 C.2       1 GDP302      0.0000 
     26 N2        -34.7270   21.0100   73.1640 N.pl3     1 GDP302      0.0000 
     27 N3        -33.2890   19.9410   71.6780 N.2       1 GDP302      0.0000 
     28 C4        -32.0480   19.7400   71.1810 C.2       1 GDP302      0.0000 
     29 H         -30.7586   14.3835   68.6201 H         1 GDP302      0.0000 
     30 H         -30.9055   14.8573   66.9190 H         1 GDP302      0.0000 
     31 H         -32.8939   15.3670   68.2962 H         1 GDP302      0.0000 
     32 H         -31.6386   16.9753   66.4235 H         1 GDP302      0.0000 
     33 H         -30.9519   18.5648   67.8474 H         1 GDP302      0.0000 
     34 H         -33.3494   18.1610   69.5332 H         1 GDP302      0.0000 
     35 H         -29.5990   18.7239   69.5347 H         1 GDP302      0.0000 
     36 H         -32.7031   22.2128   74.0329 H         1 GDP302      0.0000 
     37 H         -35.3303   20.2132   73.1306 H         1 GDP302      0.0000 
     38 H         -34.9392   21.9253   73.5062 H         1 GDP302      0.0000 
     39 H         -34.0210   18.0315   66.9498 H         1 GDP302      0.0000 
     40 H         -32.1552   20.0515   66.9054 H         1 GDP302      0.0000 
@<TRIPOS>BOND
     1    2    1 ar   
     2    3    1 ar   
     3    4    1 ar   
     4    5    1 1    
     5    6    5 1    
     6    7    6 ar   
     7    8    6 ar   
     8    9    6 1    
     9   10    9 1    
    10   11   10 1    
    11   29   10 1    
    12   30   10 1    
    13   12   11 1    
    14   13   11 1    
    15   31   11 1    
    16   17   12 1    
    17   14   13 1    
    18   15   13 1    
    19   32   13 1    
    20   39   14 1    
    21   16   15 1    
    22   17   15 1    
    23   33   15 1    
    24   40   16 1    
    25   18   17 1    
    26   34   17 1    
    27   19   18 1    
    28   28   18 1    
    29   20   19 2    
    30   35   19 1    
    31   21   20 1    
    32   22   21 1    
    33   28   21 2    
    34   23   22 2    
    35   24   22 am   
    36   25   24 1    
    37   36   24 1    
    38   26   25 1    
    39   27   25 2    
    40   37   26 1    
    41   38   26 1    
    42   28   27 1    
@<TRIPOS>SUBSTRUCTURE
     1 GDP302      1 GROUP   
@<TRIPOS>SET

