#    Name: 1rjk_VDZ_1_INTS_M
#    Modification time : Tue Mar 25 00:48:20 2014

@<TRIPOS>MOLECULE
1rjk_VDZ_1_INTS_M
  115     0     9     0     0
SMALL
NO_CHARGES


@<TRIPOS>ATOM
      1 N          60.6095    4.3465    3.7580 N.am      2 SEC2        0.0000 
      2 N          60.7500    4.4650    2.3210 N.am      8 SEL2        0.0000 
      3 N          60.4690    4.2280    5.1950 N.am      5 SEP2        0.0000 
      4 O          62.0600    4.0355    2.2975 O.2       1 ALC1        0.0000 
      5 O          60.7500    4.4650    2.3210 O.2       7 ALL1        0.0000 
      6 O          63.3700    3.6060    2.2740 O.2       4 ALP1        0.0000 
      7 CA         59.0055    4.4605    2.3520 C.3       3 GLC5        0.0000 
      8 CA         60.3420    5.6240    1.5500 C.3       9 GLL5        0.0000 
      9 CA         57.6690    3.2970    3.1540 C.3       6 GLP5        0.0000 
     10 CA         58.4455    5.8255    0.7475 C.3       3 GLC5        0.0000 
     11 CA         56.5490    6.0270   -0.0550 C.3       6 GLP5        0.0000 
     12 CA         60.8940    9.1190    3.4150 C.3       3 GLC5        0.0000 
     13 CA         61.4370    7.0540    3.1640 C.3       9 GLL5        0.0000 
     14 CA         60.3510   11.1840    3.6660 C.3       6 GLP5        0.0000 
     15 CA         59.1670    8.4990    2.9355 C.3       3 GLC5        0.0000 
     16 CA         60.5680    8.2070    1.2310 C.3       9 GLL5        0.0000 
     17 CA         57.7660    8.7910    4.6400 C.3       6 GLP5        0.0000 
     18 CA         60.4595    9.6955    2.4485 C.3       3 GLC5        0.0000 
     19 CA         59.1290    9.7220    0.6555 C.3       3 GLC5        0.0000 
     20 CA         57.6900   11.2370    0.0800 C.3       6 GLP5        0.0000 
     21 N          58.5205    9.2000    0.2290 N.am      2 SEC2        0.0000 
     22 N          59.0680    8.2300    1.2610 N.am      8 SEL2        0.0000 
     23 N          57.9730   10.1700   -0.8030 N.am      5 SEP2        0.0000 
     24 O          58.3905    8.7705    2.3125 O.2       1 ALC1        0.0000 
     25 O          59.0680    8.2300    1.2610 O.2       7 ALL1        0.0000 
     26 O          57.7130    9.3110    3.3640 O.2       4 ALP1        0.0000 
     27 CA         62.9330    6.0415    0.3315 C.3       3 GLC5        0.0000 
     28 CA         60.9120    5.5430    0.1050 C.3       9 GLL5        0.0000 
     29 CA         64.9540    6.5400    0.5580 C.3       6 GLP5        0.0000 
     30 CA         60.7045    3.5235   -0.2560 C.3       3 GLC5        0.0000 
     31 CA         60.4970    1.5040   -0.6170 C.3       6 GLP5        0.0000 
     32 CA         58.8520    6.2045   -4.8960 C.3       3 GLC5        0.0000 
     33 CA         60.4170    5.4320   -4.2500 C.3       9 GLL5        0.0000 
     34 CA         57.2870    6.9770   -5.5420 C.3       6 GLP5        0.0000 
     35 CA         59.6645    7.2890   -5.3800 C.3       3 GLC5        0.0000 
     36 CA         61.2090    6.4650   -5.0040 C.3       9 GLL5        0.0000 
     37 CA         58.1200    8.1130   -5.7560 C.3       6 GLP5        0.0000 
     38 CA         61.9800    8.2990   -5.8450 C.3       3 GLC5        0.0000 
     39 CA         62.7510   10.1330   -6.6860 C.3       6 GLP5        0.0000 
     40 CA         64.4415    6.3415   -5.4605 C.3       3 GLC5        0.0000 
     41 CA         62.5240    5.7880   -5.4630 C.3       9 GLL5        0.0000 
     42 CA         66.3590    6.8950   -5.4580 C.3       6 GLP5        0.0000 
     43 CA         63.6135    6.3840   -3.6880 C.3       3 GLC5        0.0000 
     44 CA         64.7030    6.9800   -1.9130 C.3       6 GLP5        0.0000 
     45 CA         64.2480    5.0715   -6.9195 C.3       3 GLC5        0.0000 
     46 CA         62.3850    4.4010   -6.1410 C.3       9 GLL5        0.0000 
     47 CA         66.1110    5.7420   -7.6980 C.3       6 GLP5        0.0000 
     48 CA         63.7565    2.1155   -3.4240 C.3       3 GLC5        0.0000 
     49 CA         62.2880    3.1140   -3.9840 C.3       9 GLL5        0.0000 
     50 CA         65.2250    1.1170   -2.8640 C.3       6 GLP5        0.0000 
     51 CA         61.3925    2.3090   -2.3005 C.3       3 GLC5        0.0000 
     52 CA         59.8475    2.2655   -2.4690 C.3       3 GLC5        0.0000 
     53 CA         59.1980    3.0270   -4.3210 C.3       9 GLL5        0.0000 
     54 CA         58.2515    4.2715   -2.8045 C.3       3 GLC5        0.0000 
     55 CA         57.3050    5.5160   -1.2880 C.3       6 GLP5        0.0000 
     56 CA         59.2215   -1.0030   -6.4730 C.3       3 GLC5        0.0000 
     57 CA         61.0040   -0.1080   -6.8150 C.3       9 GLL5        0.0000 
     58 CA         57.4390   -1.8980   -6.1310 C.3       6 GLP5        0.0000 
     59 CA         60.5880   -0.9005   -8.6595 C.3       3 GLC5        0.0000 
     60 CA         60.1720   -1.6930  -10.5040 C.3       6 GLP5        0.0000 
     61 CA         61.7120   -1.8520   -7.1910 C.3       3 GLC5        0.0000 
     62 CA         62.4200   -3.5960   -7.5670 C.3       6 GLP5        0.0000 
     63 CA         63.2450   -1.8735   -7.0795 C.3       3 GLC5        0.0000 
     64 CA         64.0700   -0.1510   -6.5920 C.3       9 GLL5        0.0000 
     65 CA         69.2345   -0.2695   -7.8755 C.3       3 GLC5        0.0000 
     66 CA         67.6920   -1.0490   -7.3470 C.3       9 GLL5        0.0000 
     67 CA         70.7770    0.5100   -8.4040 C.3       6 GLP5        0.0000 
     68 CA         67.7585   -2.0270   -9.1125 C.3       3 GLC5        0.0000 
     69 CA         67.8250   -3.0050  -10.8780 C.3       6 GLP5        0.0000 
     70 CA         69.6870   -1.7490   -6.6500 C.3       3 GLC5        0.0000 
     71 CA         71.6820   -2.4490   -5.9530 C.3       6 GLP5        0.0000 
     72 CA         66.0710   -1.4210   -3.3275 C.3       3 GLC5        0.0000 
     73 CA         66.5370   -1.8900   -5.2340 C.3       9 GLL5        0.0000 
     74 CA         65.6050   -0.9520   -1.4210 C.3       6 GLP5        0.0000 
     75 CA         66.9785   -3.8620   -6.0600 C.3       3 GLC5        0.0000 
     76 CA         67.4200   -5.8340   -6.8860 C.3       6 GLP5        0.0000 
     77 CA         65.7660   -3.0945   -3.7740 C.3       3 GLC5        0.0000 
     78 CA         64.9950   -4.2990   -2.3140 C.3       6 GLP5        0.0000 
     79 N          64.6000   -3.0365   -7.0565 N.am      2 SEC2        0.0000 
     80 N          65.7230   -2.3130   -7.4020 N.am      8 SEL2        0.0000 
     81 N          63.4770   -3.7600   -6.7110 N.am      5 SEP2        0.0000 
     82 CA         62.6997    8.2720    2.2743 C.3       3 GLC5        0.0000 
     83 CA         60.7740    6.9480    2.0310 C.3       9 GLL5        0.0000 
     84 CA         64.2940    9.5430    1.9510 C.3       6 GLP5        0.0000 
     85 CA         63.0297    6.7705    1.5778 C.3       3 GLC5        0.0000 
     86 CA         59.4862    7.0500    3.6401 C.3       3 GLC5        0.0000 
     87 CA         57.9750    7.4300    4.8030 C.3       6 GLP5        0.0000 
     88 CA         62.5228    8.8550    1.2275 C.3       3 GLC5        0.0000 
     89 CA         61.1307    9.8400    0.1605 C.3       3 GLC5        0.0000 
     90 CA         61.5100   11.5130   -0.1830 C.3       6 GLP5        0.0000 
     91 CA         59.0650    5.8370   -0.8233 C.3       3 GLC5        0.0000 
     92 CA         60.7380    6.7730   -0.8220 C.3       9 GLL5        0.0000 
     93 CA         62.6539    7.0572   -1.6336 C.3       3 GLC5        0.0000 
     94 CA         60.3730    6.8190   -2.1860 C.3       9 GLL5        0.0000 
     95 CA         58.8170    7.1720   -3.1128 C.3       3 GLC5        0.0000 
     96 CA         60.0870    5.5890   -2.9850 C.3       9 GLL5        0.0000 
     97 CA         57.4040    8.1400   -3.6400 C.3       6 GLP5        0.0000 
     98 CA         58.8143    5.6670   -2.3529 C.3       3 GLC5        0.0000 
     99 CA         62.1453    5.4863   -7.6920 C.3       3 GLC5        0.0000 
    100 CA         61.8360    5.8780   -9.5820 C.3       6 GLP5        0.0000 
    101 CA         58.3212    4.8137   -5.5750 C.3       3 GLC5        0.0000 
    102 CA         60.0790    4.1080   -4.9030 C.3       9 GLL5        0.0000 
    103 CA         57.0040    6.0600   -6.5380 C.3       6 GLP5        0.0000 
    104 CA         57.9853    1.0765   -4.4060 C.3       3 GLC5        0.0000 
    105 CA         59.6510    1.7530   -5.1050 C.3       9 GLL5        0.0000 
    106 CA         56.5460   -0.2370   -4.0990 C.3       6 GLP5        0.0000 
    107 CA         61.3345   -1.0495   -5.0608 C.3       3 GLC5        0.0000 
    108 CA         61.2470   -2.5020   -3.7100 C.3       6 GLP5        0.0000 
    109 CA         64.0913    0.0130   -8.5143 C.3       3 GLC5        0.0000 
    110 CA         64.5120   -0.4720  -10.4540 C.3       6 GLP5        0.0000 
    111 CA         64.9236    0.6865   -4.7766 C.3       3 GLC5        0.0000 
    112 CA         65.6730   -0.6613   -8.7483 C.3       3 GLC5        0.0000 
    113 CA         65.5740    0.0140   -6.8040 C.3       9 GLL5        0.0000 
    114 CA         58.8323    2.6840   -6.7103 C.3       3 GLC5        0.0000 
    115 CA         57.6960    2.6110   -8.3610 C.3       6 GLP5        0.0000 
@<TRIPOS>BOND
@<TRIPOS>SUBSTRUCTURE
     1 ALC1        4 GROUP        1 X    ALC  0     ROOT ALC X 1
     2 SEC2        1 GROUP        1 X    SEC  0     **** SEC X 2
     3 GLC5        7 GROUP        1 X    GLC  0     **** GLC X 6
     4 ALP1        6 GROUP        1 Y    ALP  0     ROOT ALP Y 8
     5 SEP2        3 GROUP        1 Y    SEP  0     **** SEP Y 9
     6 GLP5        9 GROUP        1 Y    GLP  0     **** GLP Y 13
     7 ALL1        5 GROUP        1 Z    ALL  0     ROOT ALL Z 15
     8 SEL2        2 GROUP        1 Z    SEL  0     **** SEL Z 16
     9 GLL5        8 GROUP        1 Z    GLL  0     **** GLL Z 20
@<TRIPOS>SET

