#    Name: 1rjk_VDZ_1_ligand
#    Modification time : Tue Mar 25 00:48:20 2014

@<TRIPOS>MOLECULE
1rjk_VDZ_1_ligand
   72    74     1     0     0
SMALL
NO_CHARGES


@<TRIPOS>ATOM
      1 O1         60.7500    4.4650    2.3210 O.3       1 VDZ500      0.0000 
      2 C1         60.3420    5.6240    1.5500 C.3       1 VDZ500      0.0000 
      3 C2         60.7740    6.9480    2.0310 C.2       1 VDZ500      0.0000 
      4 C28        61.4370    7.0540    3.1640 C.2       1 VDZ500      0.0000 
      5 C3         60.5680    8.2070    1.2310 C.3       1 VDZ500      0.0000 
      6 O2         59.0680    8.2300    1.2610 O.3       1 VDZ500      0.0000 
      7 C4         60.9350    8.1270   -0.2230 C.3       1 VDZ500      0.0000 
      8 C10        60.9120    5.5430    0.1050 C.3       1 VDZ500      0.0000 
      9 C5         60.7380    6.7730   -0.8220 C.2       1 VDZ500      0.0000 
     10 C6         60.3730    6.8190   -2.1860 C.2       1 VDZ500      0.0000 
     11 C7         60.0870    5.5890   -2.9850 C.2       1 VDZ500      0.0000 
     12 C8         60.4170    5.4320   -4.2500 C.2       1 VDZ500      0.0000 
     13 C9         61.2090    6.4650   -5.0040 C.3       1 VDZ500      0.0000 
     14 C11        62.5240    5.7880   -5.4630 C.3       1 VDZ500      0.0000 
     15 C14        60.0790    4.1080   -4.9030 C.3       1 VDZ500      0.0000 
     16 C13        61.4720    3.4610   -5.3350 C.3       1 VDZ500      0.0000 
     17 C12        62.3850    4.4010   -6.1410 C.3       1 VDZ500      0.0000 
     18 C18        62.2880    3.1140   -3.9840 C.3       1 VDZ500      0.0000 
     19 C15        59.1980    3.0270   -4.3210 C.3       1 VDZ500      0.0000 
     20 C16        59.6510    1.7530   -5.1050 C.3       1 VDZ500      0.0000 
     21 C17        60.9460    2.1400   -5.9090 C.3       1 VDZ500      0.0000 
     22 C20        61.8400    0.9140   -6.0080 C.3       1 VDZ500      0.0000 
     23 C21        61.0040   -0.1080   -6.8150 C.3       1 VDZ500      0.0000 
     24 C22        63.2710    1.1470   -6.5570 C.3       1 VDZ500      0.0000 
     25 C23        64.0700   -0.1510   -6.5920 C.3       1 VDZ500      0.0000 
     26 C24        65.5740    0.0140   -6.8040 C.3       1 VDZ500      0.0000 
     27 C25        66.3780   -1.3180   -6.6720 C.3       1 VDZ500      0.0000 
     28 C26        67.6920   -1.0490   -7.3470 C.3       1 VDZ500      0.0000 
     29 C27        66.5370   -1.8900   -5.2340 C.3       1 VDZ500      0.0000 
     30 O3         65.7230   -2.3130   -7.4020 O.3       1 VDZ500      0.0000 
     31 H          59.2509    5.6427    1.4123 H         1 VDZ500      0.0000 
     32 H          60.9275    9.0324    1.7151 H         1 VDZ500      0.0000 
     33 H          61.9939    8.4310   -0.3448 H         1 VDZ500      0.0000 
     34 H          60.3348    8.8683   -0.7877 H         1 VDZ500      0.0000 
     35 H          60.4559    4.6569   -0.3986 H         1 VDZ500      0.0000 
     36 H          62.0013    5.3075    0.1745 H         1 VDZ500      0.0000 
     37 H          60.2918    7.7167   -2.6784 H         1 VDZ500      0.0000 
     38 H          59.5855    4.8379   -2.4357 H         1 VDZ500      0.0000 
     39 H          61.4529    7.2926   -4.3643 H         1 VDZ500      0.0000 
     40 H          60.6689    6.7926   -5.8727 H         1 VDZ500      0.0000 
     41 H          63.1913    5.6833   -4.5837 H         1 VDZ500      0.0000 
     42 H          63.0449    6.4707   -6.1644 H         1 VDZ500      0.0000 
     43 H          59.6468    4.3683   -5.9456 H         1 VDZ500      0.0000 
     44 H          63.3737    3.9529   -6.2298 H         1 VDZ500      0.0000 
     45 H          61.9694    4.5378   -7.1384 H         1 VDZ500      0.0000 
     46 H          58.1829    3.2138   -4.5370 H         1 VDZ500      0.0000 
     47 H          59.4052    2.8853   -3.2968 H         1 VDZ500      0.0000 
     48 H          58.8881    1.4698   -5.7913 H         1 VDZ500      0.0000 
     49 H          59.8896    0.9787   -4.4145 H         1 VDZ500      0.0000 
     50 H          60.5477    2.3603   -6.9389 H         1 VDZ500      0.0000 
     51 H          61.9170    0.4917   -4.9856 H         1 VDZ500      0.0000 
     52 H          63.7752    1.8701   -5.9178 H         1 VDZ500      0.0000 
     53 H          63.1951    1.5574   -7.5627 H         1 VDZ500      0.0000 
     54 H          63.6664   -0.7980   -7.3967 H         1 VDZ500      0.0000 
     55 H          63.9028   -0.6998   -5.6433 H         1 VDZ500      0.0000 
     56 H          65.9712    0.7276   -6.0701 H         1 VDZ500      0.0000 
     57 H          65.7597    0.4281   -7.8038 H         1 VDZ500      0.0000 
     58 H          63.1785    2.7048   -4.1827 H         1 VDZ500      0.0000 
     59 H          62.4573    3.9306   -3.4322 H         1 VDZ500      0.0000 
     60 H          61.7908    2.4673   -3.4056 H         1 VDZ500      0.0000 
     61 H          61.4967   -0.9679   -6.9485 H         1 VDZ500      0.0000 
     62 H          60.1447   -0.3310   -6.3546 H         1 VDZ500      0.0000 
     63 H          60.7687    0.2390   -7.7229 H         1 VDZ500      0.0000 
     64 H          68.1837   -0.2931   -6.9148 H         1 VDZ500      0.0000 
     65 H          68.2950   -1.8461   -7.3169 H         1 VDZ500      0.0000 
     66 H          67.5723   -0.8082   -8.3102 H         1 VDZ500      0.0000 
     67 H          67.0577   -2.7437   -5.2294 H         1 VDZ500      0.0000 
     68 H          67.0155   -1.2515   -4.6311 H         1 VDZ500      0.0000 
     69 H          65.6517   -2.0844   -4.8116 H         1 VDZ500      0.0000 
     70 H          61.7362    4.3903    2.1735 H         1 VDZ500      0.0000 
     71 H          58.8334    8.6827    2.1213 H         1 VDZ500      0.0000 
     72 H          66.3396   -1.7036   -6.9034 H         1 VDZ500      0.0000 
@<TRIPOS>BOND
     1    2    1 1    
     2   70    1 1    
     3    3    2 1    
     4    8    2 1    
     5   31    2 1    
     6    4    3 2    
     7    5    3 1    
     8    6    5 1    
     9    7    5 1    
    10   32    5 1    
    11   71    6 1    
    12    9    7 1    
    13   33    7 1    
    14   34    7 1    
    15    9    8 1    
    16   35    8 1    
    17   36    8 1    
    18   10    9 2    
    19   11   10 1    
    20   37   10 1    
    21   12   11 2    
    22   38   11 1    
    23   13   12 1    
    24   15   12 1    
    25   14   13 1    
    26   39   13 1    
    27   40   13 1    
    28   17   14 1    
    29   41   14 1    
    30   42   14 1    
    31   16   15 1    
    32   19   15 1    
    33   43   15 1    
    34   17   16 1    
    35   18   16 1    
    36   21   16 1    
    37   44   17 1    
    38   45   17 1    
    39   58   18 1    
    40   59   18 1    
    41   60   18 1    
    42   20   19 1    
    43   46   19 1    
    44   47   19 1    
    45   21   20 1    
    46   48   20 1    
    47   49   20 1    
    48   22   21 1    
    49   50   21 1    
    50   23   22 1    
    51   24   22 1    
    52   51   22 1    
    53   61   23 1    
    54   62   23 1    
    55   63   23 1    
    56   25   24 1    
    57   52   24 1    
    58   53   24 1    
    59   26   25 1    
    60   54   25 1    
    61   55   25 1    
    62   27   26 1    
    63   56   26 1    
    64   57   26 1    
    65   28   27 1    
    66   29   27 1    
    67   30   27 1    
    68   64   28 1    
    69   65   28 1    
    70   66   28 1    
    71   67   29 1    
    72   68   29 1    
    73   69   29 1    
    74   72   30 1    
@<TRIPOS>SUBSTRUCTURE
     1 VDZ500      1 GROUP   
@<TRIPOS>SET

