#    Name: 3v8w_0G2_1_INTS_M
#    Modification time : Tue Mar 25 00:10:10 2014

@<TRIPOS>MOLECULE
3v8w_0G2_1_INTS_M
   56     0     6     0     0
SMALL
NO_CHARGES


@<TRIPOS>ATOM
      1 CA        -53.2290  -13.8005   33.2925 C.3       2 GLC5        0.0000 
      2 CA        -52.7790  -15.7760   33.6280 C.3       6 GLL5        0.0000 
      3 CA        -53.6790  -11.8250   32.9570 C.3       4 GLP5        0.0000 
      4 CA        -49.5170  -19.1410   31.4670 C.3       2 GLC5        0.0000 
      5 CA        -49.5510  -17.6280   32.5280 C.3       6 GLL5        0.0000 
      6 CA        -49.4830  -20.6540   30.4060 C.3       4 GLP5        0.0000 
      7 CA        -51.8715  -19.3015   30.1665 C.3       2 GLC5        0.0000 
      8 CA        -53.0900  -17.9040   30.9240 C.3       6 GLL5        0.0000 
      9 CA        -50.6530  -20.6990   29.4090 C.3       4 GLP5        0.0000 
     10 CA        -52.4565  -18.1660   25.9105 C.3       2 GLC5        0.0000 
     11 CA        -53.0500  -16.6840   27.4250 C.3       6 GLL5        0.0000 
     12 CA        -51.8630  -19.6480   24.3960 C.3       4 GLP5        0.0000 
     13 O         -51.5685  -13.8535   28.8405 O.2       1 ALC1        0.0000 
     14 O         -51.8060  -15.1030   28.2310 O.2       5 ALL1        0.0000 
     15 O         -51.3310  -12.6040   29.4500 O.2       3 ALP1        0.0000 
     16 CA        -52.3490  -12.9290   26.5590 C.3       2 GLC5        0.0000 
     17 CA        -52.2590  -14.9910   25.8580 C.3       6 GLL5        0.0000 
     18 CA        -52.4390  -10.8670   27.2600 C.3       4 GLP5        0.0000 
     19 CA        -51.1815  -15.4455   23.1720 C.3       2 GLC5        0.0000 
     20 CA        -53.0930  -14.8600   22.5110 C.3       6 GLL5        0.0000 
     21 CA        -49.2700  -16.0310   23.8330 C.3       4 GLP5        0.0000 
     22 CA        -51.5665  -14.4285   21.3520 C.3       2 GLC5        0.0000 
     23 CA        -50.0400  -13.9970   20.1930 C.3       4 GLP5        0.0000 
     24 CA        -54.8520  -15.1115   25.1195 C.3       2 GLC5        0.0000 
     25 CA        -54.0140  -16.5180   24.0680 C.3       6 GLL5        0.0000 
     26 CA        -55.6900  -13.7050   26.1710 C.3       4 GLP5        0.0000 
     27 CA        -56.2925  -14.0745   20.5375 C.3       2 GLC5        0.0000 
     28 CA        -54.8150  -15.6870   20.2540 C.3       6 GLL5        0.0000 
     29 CA        -57.7700  -12.4620   20.8210 C.3       4 GLP5        0.0000 
     30 CA        -54.5660  -19.2355   22.4225 C.3       2 GLC5        0.0000 
     31 CA        -55.3680  -17.6340   21.5690 C.3       6 GLL5        0.0000 
     32 CA        -53.7640  -20.8370   23.2760 C.3       4 GLP5        0.0000 
     33 CA        -49.1285  -15.9390   31.5663 C.3       2 GLC5        0.0000 
     34 CA        -48.2590  -14.7880   30.2930 C.3       4 GLP5        0.0000 
     35 CA        -50.9645  -17.2778   28.9070 C.3       2 GLC5        0.0000 
     36 CA        -51.8020  -15.8850   30.6030 C.3       6 GLL5        0.0000 
     37 CA        -49.9740  -18.6570   27.8920 C.3       4 GLP5        0.0000 
     38 CA        -54.0692  -15.9290   30.1223 C.3       2 GLC5        0.0000 
     39 CA        -53.4050  -17.9220   29.5630 C.3       6 GLL5        0.0000 
     40 CA        -54.8910  -13.9450   30.0010 C.3       4 GLP5        0.0000 
     41 CA        -51.5695  -18.0373   28.5188 C.3       2 GLC5        0.0000 
     42 CA        -52.9250  -16.9130   28.7280 C.3       6 GLL5        0.0000 
     43 CA        -51.3425  -17.3933   27.5823 C.3       2 GLC5        0.0000 
     44 CA        -54.2005  -14.9173   26.7218 C.3       2 GLC5        0.0000 
     45 CA        -53.4829  -15.0475   30.0674 C.3       2 GLC5        0.0000 
     46 CA        -52.1080  -15.9120   29.2410 C.3       6 GLL5        0.0000 
     47 CA        -53.7854  -15.0659   28.7996 C.3       2 GLC5        0.0000 
     48 CA        -50.9318  -15.6195   24.5635 C.3       2 GLC5        0.0000 
     49 CA        -54.1418  -14.4565   25.7325 C.3       2 GLC5        0.0000 
     50 CA        -54.5045  -14.0090   23.2193 C.3       2 GLC5        0.0000 
     51 CA        -55.4920  -12.6370   23.9330 C.3       4 GLP5        0.0000 
     52 CA        -52.6670  -17.8098   24.3975 C.3       2 GLC5        0.0000 
     53 CA        -52.9280  -15.4250   24.7300 C.3       6 GLL5        0.0000 
     54 CA        -54.9680  -19.3328   20.1276 C.3       2 GLC5        0.0000 
     55 CA        -56.1370  -18.1300   20.5150 C.3       6 GLL5        0.0000 
     56 CA        -54.1570  -20.9650   19.5100 C.3       4 GLP5        0.0000 
@<TRIPOS>BOND
@<TRIPOS>SUBSTRUCTURE
     1 ALC1       13 GROUP        1 X    ALC  0     ROOT ALC X 1
     2 GLC5        1 GROUP        1 X    GLC  0     **** GLC X 6
     3 ALP1       15 GROUP        1 Y    ALP  0     ROOT ALP Y 8
     4 GLP5        3 GROUP        1 Y    GLP  0     **** GLP Y 13
     5 ALL1       14 GROUP        1 Z    ALL  0     ROOT ALL Z 15
     6 GLL5        2 GROUP        1 Z    GLL  0     **** GLL Z 20
@<TRIPOS>SET

