#    Name: 3v8w_0G2_1_ligand
#    Modification time : Tue Mar 25 00:10:10 2014

@<TRIPOS>MOLECULE
3v8w_0G2_1_ligand
   52    56     1     0     0
SMALL
NO_CHARGES


@<TRIPOS>ATOM
      1 CBB       -52.5750  -15.7470   35.1470 C.3       1 0G2701      0.0000 
      2 CAY       -52.7790  -15.7760   33.6280 C.3       1 0G2701      0.0000 
      3 CAS       -51.9360  -16.8660   32.9530 C.3       1 0G2701      0.0000 
      4 CAZ       -50.4450  -16.5520   33.1510 C.3       1 0G2701      0.0000 
      5 CBC       -49.5510  -17.6280   32.5280 C.3       1 0G2701      0.0000 
      6 OBA       -52.2320  -18.1320   33.5580 O.3       1 0G2701      0.0000 
      7 CAH       -52.2810  -16.8910   31.4500 C.ar      1 0G2701      0.0000 
      8 CAI       -51.8020  -15.8850   30.6030 C.ar      1 0G2701      0.0000 
      9 CAG       -53.0900  -17.9040   30.9240 C.ar      1 0G2701      0.0000 
     10 CAF       -53.4050  -17.9220   29.5630 C.ar      1 0G2701      0.0000 
     11 CAE       -52.9250  -16.9130   28.7280 C.ar      1 0G2701      0.0000 
     12 CAB       -53.0500  -16.6840   27.4250 C.2       1 0G2701      0.0000 
     13 CAD       -52.1080  -15.9120   29.2410 C.ar      1 0G2701      0.0000 
     14 NAC       -51.8060  -15.1030   28.2310 N.pl3     1 0G2701      0.0000 
     15 CAA       -52.3720  -15.5750   27.1200 C.2       1 0G2701      0.0000 
     16 CAJ       -52.2590  -14.9910   25.8580 C.2       1 0G2701      0.0000 
     17 NAK       -51.5150  -13.9520   25.4870 N.pl3     1 0G2701      0.0000 
     18 NAL       -51.6770  -13.7130   24.2830 N.2       1 0G2701      0.0000 
     19 CAN       -52.5260  -14.5700   23.7060 C.2       1 0G2701      0.0000 
     20 CAO       -53.0930  -14.8600   22.5110 C.2       1 0G2701      0.0000 
     21 CAM       -52.9280  -15.4250   24.7300 C.2       1 0G2701      0.0000 
     22 SAQ       -54.0140  -16.5180   24.0680 S.3       1 0G2701      0.0000 
     23 CAP       -53.9410  -15.9020   22.5000 C.2       1 0G2701      0.0000 
     24 CAR       -54.6970  -16.4130   21.4430 C.ar      1 0G2701      0.0000 
     25 CAT       -54.8150  -15.6870   20.2540 C.ar      1 0G2701      0.0000 
     26 CAU       -55.5840  -16.1820   19.1990 C.ar      1 0G2701      0.0000 
     27 CAV       -56.2430  -17.4040   19.3280 C.ar      1 0G2701      0.0000 
     28 CAW       -56.1370  -18.1300   20.5150 C.ar      1 0G2701      0.0000 
     29 CAX       -55.3680  -17.6340   21.5690 C.ar      1 0G2701      0.0000 
     30 H         -52.5047  -14.8035   33.2114 H         1 0G2701      0.0000 
     31 H         -53.8350  -15.9567   33.4121 H         1 0G2701      0.0000 
     32 H         -50.2346  -16.4846   34.2197 H         1 0G2701      0.0000 
     33 H         -50.2205  -15.5880   32.6914 H         1 0G2701      0.0000 
     34 H         -51.2250  -15.1269   30.9851 H         1 0G2701      0.0000 
     35 H         -53.4546  -18.6395   31.5437 H         1 0G2701      0.0000 
     36 H         -53.9866  -18.6740   29.1805 H         1 0G2701      0.0000 
     37 H         -53.5515  -17.2314   26.7948 H         1 0G2701      0.0000 
     38 H         -51.2608  -14.2969   28.2900 H         1 0G2701      0.0000 
     39 H         -50.9215  -13.4646   26.1340 H         1 0G2701      0.0000 
     40 H         -52.8864  -14.3196   21.6770 H         1 0G2701      0.0000 
     41 H         -54.3326  -14.7839   20.1568 H         1 0G2701      0.0000 
     42 H         -55.6639  -15.6447   18.3271 H         1 0G2701      0.0000 
     43 H         -56.8054  -17.7695   18.5513 H         1 0G2701      0.0000 
     44 H         -56.6240  -19.0280   20.6131 H         1 0G2701      0.0000 
     45 H         -55.2933  -18.1689   22.4449 H         1 0G2701      0.0000 
     46 H         -51.6218  -15.5677   35.3904 H         1 0G2701      0.0000 
     47 H         -53.1274  -15.0361   35.5824 H         1 0G2701      0.0000 
     48 H         -52.8276  -16.6161   35.5723 H         1 0G2701      0.0000 
     49 H         -48.5804  -17.4242   32.6559 H         1 0G2701      0.0000 
     50 H         -49.7171  -18.5280   32.9311 H         1 0G2701      0.0000 
     51 H         -49.7051  -17.7147   31.5438 H         1 0G2701      0.0000 
     52 H         -52.9603  -17.8159   32.9499 H         1 0G2701      0.0000 
@<TRIPOS>BOND
     1    2    1 1    
     2   46    1 1    
     3   47    1 1    
     4   48    1 1    
     5    3    2 1    
     6   30    2 1    
     7   31    2 1    
     8    4    3 1    
     9    6    3 1    
    10    7    3 1    
    11    5    4 1    
    12   32    4 1    
    13   33    4 1    
    14   49    5 1    
    15   50    5 1    
    16   51    5 1    
    17   52    6 1    
    18    8    7 ar   
    19    9    7 ar   
    20   13    8 ar   
    21   34    8 1    
    22   10    9 ar   
    23   35    9 1    
    24   11   10 ar   
    25   36   10 1    
    26   12   11 1    
    27   13   11 ar   
    28   15   12 2    
    29   37   12 1    
    30   14   13 1    
    31   15   14 1    
    32   38   14 1    
    33   16   15 1    
    34   17   16 1    
    35   21   16 2    
    36   18   17 1    
    37   39   17 1    
    38   19   18 2    
    39   20   19 1    
    40   21   19 1    
    41   23   20 2    
    42   40   20 1    
    43   22   21 1    
    44   23   22 1    
    45   24   23 1    
    46   25   24 ar   
    47   29   24 ar   
    48   26   25 ar   
    49   41   25 1    
    50   27   26 ar   
    51   42   26 1    
    52   28   27 ar   
    53   43   27 1    
    54   29   28 ar   
    55   44   28 1    
    56   45   29 1    
@<TRIPOS>SUBSTRUCTURE
     1 0G2701      1 GROUP   
@<TRIPOS>SET

