#    Name: 1c30_ADP_5_INTS_M
#    Modification time : Mon Mar 24 20:10:46 2014

@<TRIPOS>MOLECULE
1c30_ADP_5_INTS_M
   86     0    15     0     0
SMALL
NO_CHARGES


@<TRIPOS>ATOM
      1 Zn         17.4455   88.0540   36.1155 Zn        4 ZIC7        0.0000 
      2 Zn         17.3040   87.6130   35.1130 Zn       14 ZIL7        0.0000 
      3 Zn         17.5870   88.4950   37.1180 Zn        9 ZIP7        0.0000 
      4 N          16.5870   86.5625   35.2910 N.am      2 SEC2        0.0000 
      5 N          17.3040   87.6130   35.1130 N.am     12 SEL2        0.0000 
      6 N          15.8700   85.5120   35.4690 N.am      7 SEP2        0.0000 
      7 N          17.2600   86.1770   32.4940 N.am      2 SEC2        0.0000 
      8 N          18.0070   87.0350   32.8510 N.am     12 SEL2        0.0000 
      9 N          16.5130   85.3190   32.1370 N.am      7 SEP2        0.0000 
     10 NZ         19.8140   89.3220   33.0320 N.4       3 LYC4        0.0000 
     11 NZ         18.5410   89.2660   33.6910 N.4      13 LYL4        0.0000 
     12 NZ         22.3320   89.6970   32.7110 N.4       8 LYP4        0.0000 
     13 Zn         18.1850   90.1310   34.0700 Zn        4 ZIC7        0.0000 
     14 Zn         18.5410   89.2660   33.6910 Zn       14 ZIL7        0.0000 
     15 Zn         17.8290   90.9960   34.4490 Zn        9 ZIP7        0.0000 
     16 N          19.8140   89.3220   33.0320 N.am      2 SEC2        0.0000 
     17 N          18.5410   89.2660   33.6910 N.am     12 SEL2        0.0000 
     18 N          21.0870   89.3780   32.3730 N.am      7 SEP2        0.0000 
     19 Zn         18.5940   88.2235   37.1080 Zn        4 ZIC7        0.0000 
     20 Zn         19.6010   87.9520   37.0980 Zn       14 ZIL7        0.0000 
     21 N          19.4040   88.0400   38.6100 N.am      2 SEC2        0.0000 
     22 N          19.6010   87.9520   37.0980 N.am     12 SEL2        0.0000 
     23 N          19.2070   88.1280   40.1220 N.am      7 SEP2        0.0000 
     24 NZ         22.2045   88.9750   35.0580 N.4       3 LYC4        0.0000 
     25 NZ         21.7880   88.0310   36.1170 N.4      13 LYL4        0.0000 
     26 NZ         23.0165   88.1735   36.1475 N.4       3 LYC4        0.0000 
     27 NZ         25.3350   87.6790   35.7290 N.4       8 LYP4        0.0000 
     28 N          22.2045   88.9750   35.0580 N.am      2 SEC2        0.0000 
     29 N          21.7880   88.0310   36.1170 N.am     12 SEL2        0.0000 
     30 N          22.6210   89.9190   33.9990 N.am      7 SEP2        0.0000 
     31 N          23.0165   88.1735   36.1475 N.am      2 SEC2        0.0000 
     32 N          24.2450   88.3160   36.1780 N.am      7 SEP2        0.0000 
     33 N          20.4645   88.3405   33.5215 N.am      2 SEC2        0.0000 
     34 N          19.8420   87.3030   34.6700 N.am     12 SEL2        0.0000 
     35 CA         20.4245   81.9900   36.8170 C.3       5 GLC5        0.0000 
     36 CA         19.7840   83.8260   37.4280 C.3      15 GLL5        0.0000 
     37 CA         21.0650   80.1540   36.2060 C.3      10 GLP5        0.0000 
     38 CA         18.0380   83.1875   38.5150 C.3       5 GLC5        0.0000 
     39 CA         19.8470   84.4660   38.8040 C.3      15 GLL5        0.0000 
     40 CA         16.2290   81.9090   38.2260 C.3      10 GLP5        0.0000 
     41 N          16.9505   84.1885   39.4710 N.am      2 SEC2        0.0000 
     42 N          18.4490   84.7770   39.1930 N.am     12 SEL2        0.0000 
     43 N          15.4520   83.6000   39.7490 N.am      7 SEP2        0.0000 
     44 O          18.8315   84.9485   40.4605 O.2       1 ALC1        0.0000 
     45 O          18.4490   84.7770   39.1930 O.2      11 ALL1        0.0000 
     46 O          19.2140   85.1200   41.7280 O.2       6 ALP1        0.0000 
     47 N          20.4930   81.0005   40.6625 N.am      2 SEC2        0.0000 
     48 N          19.8580   82.2880   40.2390 N.am     12 SEL2        0.0000 
     49 N          21.1280   79.7130   41.0860 N.am      7 SEP2        0.0000 
     50 O          19.5360   83.7040   40.9835 O.2       1 ALC1        0.0000 
     51 O          19.8580   82.2880   40.2390 O.2      11 ALL1        0.0000 
     52 O          19.2580   82.7325   41.4295 O.2       1 ALC1        0.0000 
     53 O          18.6580   83.1770   42.6200 O.2       6 ALP1        0.0000 
     54 CA         21.3820   80.6815   39.3280 C.3       5 GLC5        0.0000 
     55 CA         21.5440   82.7610   38.5010 C.3      15 GLL5        0.0000 
     56 CA         21.2200   78.6020   40.1550 C.3      10 GLP5        0.0000 
     57 CA         21.3045   81.4575   37.3535 C.3       5 GLC5        0.0000 
     58 CA         26.9560   82.1700   41.0820 C.3       5 GLC5        0.0000 
     59 CA         26.3690   82.3960   39.2110 C.3      15 GLL5        0.0000 
     60 CA         27.5430   81.9440   42.9530 C.3      10 GLP5        0.0000 
     61 O          28.7560   82.2610   38.8610 O.2       1 ALC1        0.0000 
     62 O          27.6160   82.8680   39.1010 O.2      11 ALL1        0.0000 
     63 O          29.8960   81.6540   38.6210 O.2       6 ALP1        0.0000 
     64 N          27.2550   80.6195   40.5730 N.am      2 SEC2        0.0000 
     65 N          26.2470   81.1430   39.7360 N.am     12 SEL2        0.0000 
     66 N          28.2630   80.0960   41.4100 N.am      7 SEP2        0.0000 
     67 CA         25.7730   79.9300   38.3270 C.3       5 GLC5        0.0000 
     68 CA         25.0040   80.5800   39.8760 C.3      15 GLL5        0.0000 
     69 CA         26.5420   79.2800   36.7780 C.3      10 GLP5        0.0000 
     70 CA         26.4660   80.5195   41.3230 C.3       5 GLC5        0.0000 
     71 CA         27.9280   80.4590   42.7700 C.3      10 GLP5        0.0000 
     72 CA         25.1330   78.7560   40.1205 C.3       5 GLC5        0.0000 
     73 CA         25.2620   76.9320   40.3650 C.3      10 GLP5        0.0000 
     74 CA         23.9215   80.8380   41.6225 C.3       5 GLC5        0.0000 
     75 CA         22.8390   81.0960   43.3690 C.3      10 GLP5        0.0000 
     76 CA         23.1120   79.5910   40.0155 C.3       5 GLC5        0.0000 
     77 CA         18.0277   84.2775   36.1983 C.3       5 GLC5        0.0000 
     78 CA         16.3720   84.2320   35.5290 C.3      10 GLP5        0.0000 
     79 CA         22.4612   83.4945   40.5340 C.3       5 GLC5        0.0000 
     80 CA         20.6230   83.3730   39.5490 C.3      15 GLL5        0.0000 
     81 CA         23.8390   83.9220   42.0430 C.3      10 GLP5        0.0000 
     82 CA         25.1604   81.3383   37.5721 C.3       5 GLC5        0.0000 
     83 CA         25.1580   83.0680   38.8300 C.3      15 GLL5        0.0000 
     84 CA         25.4510   80.1330   36.1240 C.3      10 GLP5        0.0000 
     85 CA         24.3544   83.2327   40.5316 C.3       5 GLC5        0.0000 
     86 CA         23.9760   82.3550   39.0200 C.3      15 GLL5        0.0000 
@<TRIPOS>BOND
@<TRIPOS>SUBSTRUCTURE
     1 ALC1       44 GROUP        1 X    ALC  0     ROOT ALC X 1
     2 SEC2        4 GROUP        1 X    SEC  0     **** SEC X 2
     3 LYC4       10 GROUP        1 X    LYC  0     **** LYC X 4
     4 ZIC7        1 GROUP        1 X    ZIC  0     **** ZIC X 5
     5 GLC5       35 GROUP        1 X    GLC  0     **** GLC X 6
     6 ALP1       46 GROUP        1 Y    ALP  0     ROOT ALP Y 8
     7 SEP2        6 GROUP        1 Y    SEP  0     **** SEP Y 9
     8 LYP4       12 GROUP        1 Y    LYP  0     **** LYP Y 11
     9 ZIP7        3 GROUP        1 Y    ZIP  0     **** ZIP Y 12
    10 GLP5       37 GROUP        1 Y    GLP  0     **** GLP Y 13
    11 ALL1       45 GROUP        1 Z    ALL  0     ROOT ALL Z 15
    12 SEL2        5 GROUP        1 Z    SEL  0     **** SEL Z 16
    13 LYL4       11 GROUP        1 Z    LYL  0     **** LYL Z 18
    14 ZIL7        2 GROUP        1 Z    ZIL  0     **** ZIL Z 19
    15 GLL5       36 GROUP        1 Z    GLL  0     **** GLL Z 20
@<TRIPOS>SET

