#    Name: 1c30_ADP_5_ligand
#    Modification time : Mon Mar 24 20:10:46 2014

@<TRIPOS>MOLECULE
1c30_ADP_5_ligand
   38    40     1     0     0
SMALL
NO_CHARGES


@<TRIPOS>ATOM
      1 PB         18.3900   87.8150   34.0620 P.3       1 ADP4041     0.0000 
      2 O1B        17.3040   87.6130   35.1130 O.co2     1 ADP4041     0.0000 
      3 O2B        18.0070   87.0350   32.8510 O.co2     1 ADP4041     0.0000 
      4 O3B        18.5410   89.2660   33.6910 O.co2     1 ADP4041     0.0000 
      5 PA         20.4790   87.3490   36.0940 P.3       1 ADP4041     0.0000 
      6 O1A        19.6010   87.9520   37.0980 O.co2     1 ADP4041     0.0000 
      7 O2A        21.7880   88.0310   36.1170 O.co2     1 ADP4041     0.0000 
      8 O3A        19.8420   87.3030   34.6700 O.3       1 ADP4041     0.0000 
      9 O5'        20.6620   85.7880   36.3580 O.3       1 ADP4041     0.0000 
     10 C5'        19.5830   84.8200   36.3070 C.3       1 ADP4041     0.0000 
     11 C4'        19.7840   83.8260   37.4280 C.3       1 ADP4041     0.0000 
     12 O4'        21.0480   83.1120   37.2760 O.3       1 ADP4041     0.0000 
     13 C3'        19.8470   84.4660   38.8040 C.3       1 ADP4041     0.0000 
     14 O3'        18.4490   84.7770   39.1930 O.3       1 ADP4041     0.0000 
     15 C2'        20.6230   83.3730   39.5490 C.3       1 ADP4041     0.0000 
     16 O2'        19.8580   82.2880   40.2390 O.3       1 ADP4041     0.0000 
     17 C1'        21.5440   82.7610   38.5010 C.3       1 ADP4041     0.0000 
     18 N9         22.9530   83.1840   38.5660 N.pl3     1 ADP4041     0.0000 
     19 C8         23.5450   84.3610   38.1700 C.2       1 ADP4041     0.0000 
     20 N7         24.8950   84.3330   38.2910 N.2       1 ADP4041     0.0000 
     21 C5         25.1580   83.0680   38.8300 C.ar      1 ADP4041     0.0000 
     22 C6         26.3690   82.3960   39.2110 C.ar      1 ADP4041     0.0000 
     23 N6         27.6160   82.8680   39.1010 N.pl3     1 ADP4041     0.0000 
     24 N1         26.2470   81.1430   39.7360 N.ar      1 ADP4041     0.0000 
     25 C2         25.0040   80.5800   39.8760 C.ar      1 ADP4041     0.0000 
     26 N3         23.8440   81.0870   39.5380 N.ar      1 ADP4041     0.0000 
     27 C4         23.9760   82.3550   39.0200 C.ar      1 ADP4041     0.0000 
     28 H          19.5826   84.2819   35.3603 H         1 ADP4041     0.0000 
     29 H          18.6158   85.3028   36.4388 H         1 ADP4041     0.0000 
     30 H          18.9717   83.1099   37.4307 H         1 ADP4041     0.0000 
     31 H          20.4582   85.3264   38.7057 H         1 ADP4041     0.0000 
     32 H          21.2915   83.8750   40.2670 H         1 ADP4041     0.0000 
     33 H          21.4938   81.6701   38.6266 H         1 ADP4041     0.0000 
     34 H          23.0330   85.1358   37.8356 H         1 ADP4041     0.0000 
     35 H          25.0052   79.5776   40.3312 H         1 ADP4041     0.0000 
     36 H          18.4942   84.9954   40.1678 H         1 ADP4041     0.0000 
     37 H          19.5136   82.7081   41.0786 H         1 ADP4041     0.0000 
     38 H          28.1753   82.0707   38.8741 H         1 ADP4041     0.0000 
@<TRIPOS>BOND
     1    2    1 ar   
     2    3    1 ar   
     3    4    1 ar   
     4    8    1 1    
     5    6    5 ar   
     6    7    5 ar   
     7    8    5 1    
     8    9    5 1    
     9   10    9 1    
    10   11   10 1    
    11   28   10 1    
    12   29   10 1    
    13   12   11 1    
    14   13   11 1    
    15   30   11 1    
    16   17   12 1    
    17   14   13 1    
    18   15   13 1    
    19   31   13 1    
    20   36   14 1    
    21   16   15 1    
    22   17   15 1    
    23   32   15 1    
    24   37   16 1    
    25   18   17 1    
    26   33   17 1    
    27   19   18 1    
    28   27   18 1    
    29   20   19 2    
    30   34   19 1    
    31   21   20 1    
    32   22   21 ar   
    33   27   21 ar   
    34   23   22 1    
    35   24   22 ar   
    36   38   23 1    
    37   25   24 ar   
    38   26   25 ar   
    39   35   25 1    
    40   27   26 ar   
@<TRIPOS>SUBSTRUCTURE
     1 ADP4041     1 GROUP   
@<TRIPOS>SET

