#    Name: 2Q9U_2_CAVITY_N1_ALL.mol2
#    Modification time : Tue Mar 11 07:09:54 2014

@<TRIPOS>MOLECULE
2Q9U_2_CAVITY_N1_ALL.mol2
   68     0     5     0     0
SMALL
NO_CHARGES


@<TRIPOS>ATOM
      1 CA         13.4783  -13.6070   -3.2575 C.3       4 GLY6        0.0000 
      2 O          11.4049  -13.9835   -3.0140 O.2       2 ALA2        0.0000 
      3 DU         12.2914  -13.6394   -4.1741 H         5 CUB7        0.0000 
      4 CA         13.1778  -13.2954   -5.3342 C.3       4 GLY6        0.0000 
      5 CA         10.2180  -14.0159   -3.9305 C.3       4 GLY6        0.0000 
      6 CA         11.1044  -13.6719   -5.0907 C.3       4 GLY6        0.0000 
      7 CA         11.9909  -13.3278   -6.2508 C.3       4 GLY6        0.0000 
      8 CA          9.9175  -13.7043   -6.0072 C.3       4 GLY6        0.0000 
      9 CA         10.8039  -13.3602   -7.1673 C.3       4 GLY6        0.0000 
     10 CA          5.7707  -14.4572   -5.5202 C.3       4 GLY6        0.0000 
     11 CA          6.6571  -14.1132   -6.6803 C.3       4 GLY6        0.0000 
     12 O          13.2430  -12.1474   -3.0044 O.2       2 ALA2        0.0000 
     13 OG         14.1295  -11.8033   -4.1645 O.2       1 SER1        0.0000 
     14 CA         12.0561  -12.1798   -3.9210 C.3       4 GLY6        0.0000 
     15 CA         12.9425  -11.8358   -5.0811 C.3       4 GLY6        0.0000 
     16 DU         13.2977  -18.3300   -2.8566 H         5 CUB7        0.0000 
     17 N          14.1842  -17.9860   -4.0167 N.2       2 ALA2        0.0000 
     18 CZ         12.9972  -18.0184   -4.9333 C.ar      3 PHE5        0.0000 
     19 CZ         10.6233  -18.0832   -6.7664 C.ar      3 PHE5        0.0000 
     20 CZ         11.5098  -17.7392   -7.9266 C.ar      3 PHE5        0.0000 
     21 CZ          8.5499  -18.4597   -6.5229 C.ar      3 PHE5        0.0000 
     22 CZ          9.4364  -18.1157   -7.6830 C.ar      3 PHE5        0.0000 
     23 CZ          7.3630  -18.4921   -7.4395 C.ar      3 PHE5        0.0000 
     24 CA         16.3228  -16.4615   -1.9305 C.3       4 GLY6        0.0000 
     25 CA         14.2494  -16.8379   -1.6870 C.3       4 GLY6        0.0000 
     26 N          15.1358  -16.4939   -2.8471 N.2       2 ALA2        0.0000 
     27 CA         13.0624  -16.8704   -2.6036 C.3       4 GLY6        0.0000 
     28 N          13.9489  -16.5263   -3.7637 N.2       2 ALA2        0.0000 
     29 CZ         11.8755  -16.9028   -3.5201 C.ar      3 PHE5        0.0000 
     30 CZ         12.7619  -16.5587   -4.6802 C.ar      3 PHE5        0.0000 
     31 CZ         13.6484  -16.2147   -5.8403 C.ar      3 PHE5        0.0000 
     32 CZ         10.6885  -16.9352   -4.4367 C.ar      3 PHE5        0.0000 
     33 CZ         11.5750  -16.5912   -5.5968 C.ar      3 PHE5        0.0000 
     34 CZ         12.4614  -16.2471   -6.7569 C.ar      3 PHE5        0.0000 
     35 CZ          8.6152  -17.3117   -4.1932 C.ar      3 PHE5        0.0000 
     36 DU          9.5016  -16.9676   -5.3533 H         5 CUB7        0.0000 
     37 DU         10.3880  -16.6236   -6.5134 H         5 CUB7        0.0000 
     38 O          11.2745  -16.2796   -7.6735 O.2       2 ALA2        0.0000 
     39 DU          7.4282  -17.3441   -5.1097 H         5 CUB7        0.0000 
     40 DU          8.3147  -17.0000   -6.2698 H         5 CUB7        0.0000 
     41 CZ          9.2011  -16.6560   -7.4299 C.ar      3 PHE5        0.0000 
     42 O          10.0876  -16.3120   -8.5901 O.2       2 ALA2        0.0000 
     43 CZ          7.1277  -17.0325   -7.1864 C.ar      3 PHE5        0.0000 
     44 CZ          8.0142  -16.6884   -8.3465 C.ar      3 PHE5        0.0000 
     45 O           8.9006  -16.3444   -9.5066 O.2       2 ALA2        0.0000 
     46 CZ          5.9408  -17.0649   -8.1030 C.ar      3 PHE5        0.0000 
     47 CA         14.9005  -15.0343   -2.5940 C.3       4 GLY6        0.0000 
     48 CA         13.7136  -15.0667   -3.5106 C.3       4 GLY6        0.0000 
     49 OG         14.6000  -14.7226   -4.6707 O.2       1 SER1        0.0000 
     50 CZ         11.6402  -15.4431   -3.2670 C.ar      3 PHE5        0.0000 
     51 DU         12.5267  -15.0991   -4.4272 H         5 CUB7        0.0000 
     52 CA         13.4131  -14.7551   -5.5873 C.3       4 GLY6        0.0000 
     53 CZ          9.5668  -15.8196   -3.0235 C.ar      3 PHE5        0.0000 
     54 CZ         10.4533  -15.4755   -4.1836 C.ar      3 PHE5        0.0000 
     55 DU         11.3397  -15.1315   -5.3437 H         5 CUB7        0.0000 
     56 CA         12.2262  -14.7875   -6.5038 C.3       4 GLY6        0.0000 
     57 CA         13.1126  -14.4434   -7.6639 C.3       4 GLY6        0.0000 
     58 CA          8.3799  -15.8520   -3.9401 C.3       4 GLY6        0.0000 
     59 CA          9.2663  -15.5080   -5.1002 C.3       4 GLY6        0.0000 
     60 CA         10.1528  -15.1639   -6.2603 C.3       4 GLY6        0.0000 
     61 O          11.0392  -14.8199   -7.4204 O.2       2 ALA2        0.0000 
     62 CA          7.1929  -15.8844   -4.8567 C.3       4 GLY6        0.0000 
     63 CA          8.0794  -15.5404   -6.0168 C.3       4 GLY6        0.0000 
     64 N           8.9658  -15.1964   -7.1769 N.2       2 ALA2        0.0000 
     65 N           9.8523  -14.8523   -8.3370 N.2       2 ALA2        0.0000 
     66 CA          6.0060  -15.9168   -5.7732 C.3       4 GLY6        0.0000 
     67 N           6.8924  -15.5728   -6.9333 N.2       2 ALA2        0.0000 
     68 N           5.7055  -15.6052   -7.8499 N.2       2 ALA2        0.0000 
@<TRIPOS>BOND
@<TRIPOS>SUBSTRUCTURE
     1 SER1       13 GROUP   
     2 ALA2        2 GROUP   
     3 PHE5       18 GROUP   
     4 GLY6        1 GROUP   
     5 CUB7        3 GROUP   
@<TRIPOS>SET

