#    Name: 2q9u_FMN_2_INTS_M
#    Modification time : Mon Mar 24 21:39:06 2014

@<TRIPOS>MOLECULE
2q9u_FMN_2_INTS_M
   69     0     9     0     0
SMALL
NO_CHARGES


@<TRIPOS>ATOM
      1 N          10.3045  -16.2930  -10.5870 N.am      2 SEC2        0.0000 
      2 N           8.7680  -16.1240  -10.4200 N.am      8 SEL2        0.0000 
      3 N          11.8410  -16.4620  -10.7540 N.am      5 SEP2        0.0000 
      4 N          10.6105  -16.2385  -11.6760 N.am      2 SEC2        0.0000 
      5 N           9.3800  -16.0150  -12.5980 N.am      8 SEL2        0.0000 
      6 N          10.2280  -17.1605  -12.6995 N.am      2 SEC2        0.0000 
      7 N          11.0760  -18.3060  -12.8010 N.am      5 SEP2        0.0000 
      8 N           9.7390  -16.5145  -13.8330 N.am      2 SEC2        0.0000 
      9 N          10.0980  -17.0140  -15.0680 N.am      5 SEP2        0.0000 
     10 N           4.3360  -14.2680  -12.2000 N.am      2 SEC2        0.0000 
     11 N           4.9810  -15.4610  -11.6490 N.am      8 SEL2        0.0000 
     12 N           3.6910  -13.0750  -12.7510 N.am      5 SEP2        0.0000 
     13 N           4.5005  -14.6030   -9.3440 N.am      2 SEC2        0.0000 
     14 N           5.4050  -15.8420   -8.8560 N.am      8 SEL2        0.0000 
     15 N           3.5960  -13.3640   -9.8320 N.am      5 SEP2        0.0000 
     16 CA          6.8555  -14.4665   -3.3740 C.3       3 GLC5        0.0000 
     17 CA          6.9130  -16.5160   -3.3760 C.3       9 GLL5        0.0000 
     18 CA          6.7980  -12.4170   -3.3720 C.3       6 GLP5        0.0000 
     19 CA          8.1810  -16.6320   -1.8500 C.3       3 GLC5        0.0000 
     20 CA          9.4490  -16.7480   -0.3240 C.3       6 GLP5        0.0000 
     21 CA         10.7220  -17.2130   -9.2125 C.3       3 GLC5        0.0000 
     22 CA          9.5500  -16.5120   -7.8740 C.3       9 GLL5        0.0000 
     23 CA         11.8940  -17.9140  -10.5510 C.3       6 GLP5        0.0000 
     24 CA          8.8005  -18.0235   -8.8510 C.3       3 GLC5        0.0000 
     25 CA          8.0510  -19.5350   -9.8280 C.3       6 GLP5        0.0000 
     26 CA          9.0435  -13.9985   -6.0380 C.3       3 GLC5        0.0000 
     27 CA         10.2250  -15.2550   -7.3210 C.3       9 GLL5        0.0000 
     28 CA          7.8620  -12.7420   -4.7550 C.3       6 GLP5        0.0000 
     29 CA         11.4550  -14.7280   -9.1175 C.3       3 GLC5        0.0000 
     30 CA         12.6850  -14.2010  -10.9140 C.3       6 GLP5        0.0000 
     31 O           9.1285  -13.6380   -8.5745 O.2       1 ALC1        0.0000 
     32 O          10.3610  -14.2690   -8.3440 O.2       7 ALL1        0.0000 
     33 O           7.8960  -13.0070   -8.8050 O.2       4 ALP1        0.0000 
     34 CA         11.7180  -16.8215   -8.6155 C.3       3 GLC5        0.0000 
     35 CA         11.5420  -15.7290   -6.6800 C.3       9 GLL5        0.0000 
     36 CA         12.7590  -17.4375   -6.8420 C.3       3 GLC5        0.0000 
     37 CA         13.9760  -19.1460   -7.0040 C.3       6 GLP5        0.0000 
     38 CA         10.0040  -13.2675   -4.9625 C.3       3 GLC5        0.0000 
     39 CA         12.1460  -13.7930   -5.1700 C.3       9 GLL5        0.0000 
     40 N          13.6355   -9.8815   -2.7815 N.am      2 SEC2        0.0000 
     41 N          13.7820  -10.6230   -3.9260 N.am      8 SEL2        0.0000 
     42 N          13.4890   -9.1400   -1.6370 N.am      5 SEP2        0.0000 
     43 N          15.1615  -10.2005   -3.9405 N.am      2 SEC2        0.0000 
     44 N          16.5410   -9.7780   -3.9550 N.am      5 SEP2        0.0000 
     45 N          14.2160   -9.9215   -4.9920 N.am      2 SEC2        0.0000 
     46 N          14.6500   -9.2200   -6.0580 N.am      5 SEP2        0.0000 
     47 N          12.6950  -10.5430   -2.3140 N.am      2 SEC2        0.0000 
     48 N          11.9010  -11.9460   -2.9910 N.am      8 SEL2        0.0000 
     49 N          11.1830  -11.1600   -2.2120 N.am      2 SEC2        0.0000 
     50 N          10.4650  -10.3740   -1.4330 N.am      5 SEP2        0.0000 
     51 N          11.8320  -12.2720   -1.6490 N.am      2 SEC2        0.0000 
     52 N          11.7630  -12.5980   -0.3070 N.am      5 SEP2        0.0000 
     53 N          15.3220  -12.1830   -2.2695 N.am      2 SEC2        0.0000 
     54 N          14.1690  -12.8480   -2.8410 N.am      8 SEL2        0.0000 
     55 N          16.4750  -11.5180   -1.6980 N.am      5 SEP2        0.0000 
     56 N          15.3295  -12.8640   -3.5885 N.am      2 SEC2        0.0000 
     57 N          16.4900  -12.8800   -4.3360 N.am      5 SEP2        0.0000 
     58 CA          4.5222  -14.4447   -6.5390 C.3       3 GLC5        0.0000 
     59 CA          5.7880  -16.0340   -7.5190 C.3       9 GLL5        0.0000 
     60 CA          3.7380  -12.8570   -6.0590 C.3       6 GLP5        0.0000 
     61 CA          6.8455  -14.5152   -4.8758 C.3       3 GLC5        0.0000 
     62 CA          5.1570  -16.1880   -5.1750 C.3       9 GLL5        0.0000 
     63 CA          4.1660  -14.5207   -5.3615 C.3       3 GLC5        0.0000 
     64 CA          7.5847  -14.5328   -5.6180 C.3       3 GLC5        0.0000 
     65 CA          7.4860  -16.4050   -5.8050 C.3       9 GLL5        0.0000 
     66 CA         11.7055  -12.4925   -6.2862 C.3       3 GLC5        0.0000 
     67 CA         11.0630  -10.7730   -6.8070 C.3       6 GLP5        0.0000 
     68 CA         13.6940  -13.2690   -6.7532 C.3       3 GLC5        0.0000 
     69 CA         15.0400  -12.3260   -7.7410 C.3       6 GLP5        0.0000 
@<TRIPOS>BOND
@<TRIPOS>SUBSTRUCTURE
     1 ALC1       31 GROUP        1 X    ALC  0     ROOT ALC X 1
     2 SEC2        1 GROUP        1 X    SEC  0     **** SEC X 2
     3 GLC5       16 GROUP        1 X    GLC  0     **** GLC X 6
     4 ALP1       33 GROUP        1 Y    ALP  0     ROOT ALP Y 8
     5 SEP2        3 GROUP        1 Y    SEP  0     **** SEP Y 9
     6 GLP5       18 GROUP        1 Y    GLP  0     **** GLP Y 13
     7 ALL1       32 GROUP        1 Z    ALL  0     ROOT ALL Z 15
     8 SEL2        2 GROUP        1 Z    SEL  0     **** SEL Z 16
     9 GLL5       17 GROUP        1 Z    GLL  0     **** GLL Z 20
@<TRIPOS>SET

