#    Name: 2q9u_FMN_2_ligand
#    Modification time : Mon Mar 24 21:39:06 2014

@<TRIPOS>MOLECULE
2q9u_FMN_2_ligand
   50    52     1     0     0
SMALL
NO_CHARGES


@<TRIPOS>ATOM
      1 N1          8.7680  -16.1240  -10.4200 N.2       1 FMN601      0.0000 
      2 C2          8.4790  -15.9610  -11.7520 C.2       1 FMN601      0.0000 
      3 O2          9.3800  -16.0150  -12.5980 O.2       1 FMN601      0.0000 
      4 N3          7.1540  -15.7750  -12.1280 N.am      1 FMN601      0.0000 
      5 C4          6.1090  -15.7260  -11.2140 C.2       1 FMN601      0.0000 
      6 O4          4.9810  -15.4610  -11.6490 O.2       1 FMN601      0.0000 
      7 C4A         6.3940  -15.8800   -9.8430 C.2       1 FMN601      0.0000 
      8 N5          5.4050  -15.8420   -8.8560 N.2       1 FMN601      0.0000 
      9 C5A         5.7880  -16.0340   -7.5190 C.ar      1 FMN601      0.0000 
     10 C6          4.8250  -16.0310   -6.5190 C.ar      1 FMN601      0.0000 
     11 C7          5.1570  -16.1880   -5.1750 C.ar      1 FMN601      0.0000 
     12 C7M         4.0310  -16.1810   -4.1530 C.3       1 FMN601      0.0000 
     13 C8          6.5010  -16.3890   -4.8180 C.ar      1 FMN601      0.0000 
     14 C8M         6.9130  -16.5160   -3.3760 C.3       1 FMN601      0.0000 
     15 C9          7.4860  -16.4050   -5.8050 C.ar      1 FMN601      0.0000 
     16 C9A         7.1290  -16.2420   -7.1570 C.ar      1 FMN601      0.0000 
     17 N10         8.0990  -16.2480   -8.1540 N.pl3     1 FMN601      0.0000 
     18 C10         7.7400  -16.0940   -9.4780 C.2       1 FMN601      0.0000 
     19 C1'         9.5500  -16.5120   -7.8740 C.3       1 FMN601      0.0000 
     20 C2'        10.2250  -15.2550   -7.3210 C.3       1 FMN601      0.0000 
     21 O2'        10.3610  -14.2690   -8.3440 O.3       1 FMN601      0.0000 
     22 C3'        11.5420  -15.7290   -6.6800 C.3       1 FMN601      0.0000 
     23 O3'        11.2680  -16.4610   -5.4920 O.3       1 FMN601      0.0000 
     24 C4'        12.5500  -14.6310   -6.3610 C.3       1 FMN601      0.0000 
     25 O4'        13.8120  -15.1930   -6.0400 O.3       1 FMN601      0.0000 
     26 C5'        12.1460  -13.7930   -5.1700 C.3       1 FMN601      0.0000 
     27 O5'        13.0590  -12.7120   -5.1210 O.3       1 FMN601      0.0000 
     28 P          13.2360  -12.0030   -3.7080 P.3       1 FMN601      0.0000 
     29 O1P        13.7820  -10.6230   -3.9260 O.co2     1 FMN601      0.0000 
     30 O2P        11.9010  -11.9460   -2.9910 O.co2     1 FMN601      0.0000 
     31 O3P        14.1690  -12.8480   -2.8410 O.co2     1 FMN601      0.0000 
     32 H           6.9333  -15.6667  -13.1482 H         1 FMN601      0.0000 
     33 H           3.8235  -15.9078   -6.7791 H         1 FMN601      0.0000 
     34 H           8.4703  -16.5349   -5.5525 H         1 FMN601      0.0000 
     35 H          10.0582  -16.8093   -8.7912 H         1 FMN601      0.0000 
     36 H           9.6482  -17.3143   -7.1429 H         1 FMN601      0.0000 
     37 H           9.5829  -14.9048   -6.5039 H         1 FMN601      0.0000 
     38 H          12.0269  -16.4117   -7.4107 H         1 FMN601      0.0000 
     39 H          12.6359  -13.9763   -7.2190 H         1 FMN601      0.0000 
     40 H          12.1988  -14.4147   -4.2825 H         1 FMN601      0.0000 
     41 H          11.1242  -13.4601   -5.3187 H         1 FMN601      0.0000 
     42 H           4.3747  -16.2957   -3.2209 H         1 FMN601      0.0000 
     43 H           3.5171  -15.3233   -4.1724 H         1 FMN601      0.0000 
     44 H           3.3762  -16.9188   -4.3168 H         1 FMN601      0.0000 
     45 H           7.8988  -16.6551   -3.2823 H         1 FMN601      0.0000 
     46 H           6.6811  -15.6977   -2.8500 H         1 FMN601      0.0000 
     47 H           6.4640  -17.2892   -2.9282 H         1 FMN601      0.0000 
     48 H           9.4410  -13.8978   -8.4695 H         1 FMN601      0.0000 
     49 H          12.1656  -16.6677   -5.1027 H         1 FMN601      0.0000 
     50 H          13.8471  -15.1962   -5.0406 H         1 FMN601      0.0000 
@<TRIPOS>BOND
     1    2    1 1    
     2   18    1 2    
     3    3    2 2    
     4    4    2 am   
     5    5    4 am   
     6   32    4 1    
     7    6    5 2    
     8    7    5 1    
     9    8    7 2    
    10   18    7 1    
    11    9    8 1    
    12   10    9 ar   
    13   16    9 ar   
    14   11   10 ar   
    15   33   10 1    
    16   12   11 1    
    17   13   11 ar   
    18   42   12 1    
    19   43   12 1    
    20   44   12 1    
    21   14   13 1    
    22   15   13 ar   
    23   45   14 1    
    24   46   14 1    
    25   47   14 1    
    26   16   15 ar   
    27   34   15 1    
    28   17   16 1    
    29   18   17 1    
    30   19   17 1    
    31   20   19 1    
    32   35   19 1    
    33   36   19 1    
    34   21   20 1    
    35   22   20 1    
    36   37   20 1    
    37   48   21 1    
    38   23   22 1    
    39   24   22 1    
    40   38   22 1    
    41   49   23 1    
    42   25   24 1    
    43   26   24 1    
    44   39   24 1    
    45   50   25 1    
    46   27   26 1    
    47   40   26 1    
    48   41   26 1    
    49   28   27 1    
    50   29   28 ar   
    51   30   28 ar   
    52   31   28 ar   
@<TRIPOS>SUBSTRUCTURE
     1 FMN601      1 GROUP   
@<TRIPOS>SET

