#    Name: 4c7b_BVB_1_INTS_M
#    Modification time : Tue Mar 25 09:04:41 2014

@<TRIPOS>MOLECULE
4c7b_BVB_1_INTS_M
   32     0     6     0     0
SMALL
NO_CHARGES


@<TRIPOS>ATOM
      1 O         -34.2565  -15.6530    2.0655 O.2       1 ALC1        0.0000 
      2 O         -34.7530  -14.8740    1.0520 O.2       5 ALL1        0.0000 
      3 O         -33.7600  -16.4320    3.0790 O.2       3 ALP1        0.0000 
      4 CA        -42.6380  -13.9470   -9.7145 C.3       2 GLC5        0.0000 
      5 CA        -41.2230  -14.4800   -8.7990 C.3       6 GLL5        0.0000 
      6 CA        -44.0530  -13.4140  -10.6300 C.3       4 GLP5        0.0000 
      7 CA        -41.1540  -12.3450   -9.4645 C.3       2 GLC5        0.0000 
      8 CA        -41.0850  -10.2100  -10.1300 C.3       4 GLP5        0.0000 
      9 CA        -37.5315  -13.7570   -3.3285 C.3       2 GLC5        0.0000 
     10 CA        -38.2340  -15.4700   -2.2420 C.3       6 GLL5        0.0000 
     11 CA        -36.8290  -12.0440   -4.4150 C.3       4 GLP5        0.0000 
     12 CA        -39.9455  -14.1020   -2.4500 C.3       2 GLC5        0.0000 
     13 CA        -41.6570  -12.7340   -2.6580 C.3       4 GLP5        0.0000 
     14 CA        -41.7510  -13.5575   -6.0085 C.3       2 GLC5        0.0000 
     15 CA        -39.8860  -14.0180   -6.1490 C.3       6 GLL5        0.0000 
     16 CA        -43.6160  -13.0970   -5.8680 C.3       4 GLP5        0.0000 
     17 CA        -33.6685  -15.7585   -0.1520 C.3       2 GLC5        0.0000 
     18 CA        -35.6730  -15.6800    0.4190 C.3       6 GLL5        0.0000 
     19 CA        -31.6640  -15.8370   -0.7230 C.3       4 GLP5        0.0000 
     20 CA        -41.1335  -16.6160   -4.0910 C.3       2 GLC5        0.0000 
     21 CA        -39.1540  -15.8010   -4.6460 C.3       6 GLL5        0.0000 
     22 CA        -43.1130  -17.4310   -3.5360 C.3       4 GLP5        0.0000 
     23 CA        -42.2045  -13.9132   -6.9053 C.3       2 GLC5        0.0000 
     24 CA        -40.3630  -14.9790   -7.0860 C.3       6 GLL5        0.0000 
     25 CA        -41.0390  -18.0125   -5.4272 C.3       2 GLC5        0.0000 
     26 CA        -40.2290  -16.3390   -6.7940 C.3       6 GLL5        0.0000 
     27 CA        -42.1520  -19.4860   -4.6620 C.3       4 GLP5        0.0000 
     28 CA        -36.1146  -16.5121    2.2186 C.3       2 GLC5        0.0000 
     29 CA        -36.6700  -17.8650    0.1860 C.3       6 GLL5        0.0000 
     30 CA        -36.2840  -16.4630    3.9890 C.3       4 GLP5        0.0000 
     31 CA        -38.9200  -17.0055    0.3320 C.3       2 GLC5        0.0000 
     32 CA        -40.5660  -17.1720    1.4460 C.3       4 GLP5        0.0000 
@<TRIPOS>BOND
@<TRIPOS>SUBSTRUCTURE
     1 ALC1        1 GROUP        1 X    ALC  0     ROOT ALC X 1
     2 GLC5        4 GROUP        1 X    GLC  0     **** GLC X 6
     3 ALP1        3 GROUP        1 Y    ALP  0     ROOT ALP Y 8
     4 GLP5        6 GROUP        1 Y    GLP  0     **** GLP Y 13
     5 ALL1        2 GROUP        1 Z    ALL  0     ROOT ALL Z 15
     6 GLL5        5 GROUP        1 Z    GLL  0     **** GLL Z 20
@<TRIPOS>SET

