#    Name: 4c7b_BVB_1_ligand
#    Modification time : Tue Mar 25 09:04:41 2014

@<TRIPOS>MOLECULE
4c7b_BVB_1_ligand
   28    29     1     0     0
SMALL
NO_CHARGES


@<TRIPOS>ATOM
      1 OAA       -36.5940  -19.1190    0.6650 O.3       1 BVB1395     0.0000 
      2 OAB       -34.7530  -14.8740    1.0520 O.3       1 BVB1395     0.0000 
      3 BR        -41.2230  -14.4800   -8.7990 Br        1 BVB1395     0.0000 
      4 CAD       -38.5260  -16.3050   -3.4950 C.2       1 BVB1395     0.0000 
      5 CAE       -38.2340  -15.4700   -2.2420 C.2       1 BVB1395     0.0000 
      6 CAF       -39.8860  -14.0180   -6.1490 C.ar      1 BVB1395     0.0000 
      7 CAG       -40.2290  -16.3390   -6.7940 C.ar      1 BVB1395     0.0000 
      8 CAH       -39.2730  -14.4300   -4.9430 C.ar      1 BVB1395     0.0000 
      9 CAI       -39.6230  -16.7390   -5.5910 C.ar      1 BVB1395     0.0000 
     10 CAJ       -35.7650  -17.0200    0.7690 C.ar      1 BVB1395     0.0000 
     11 CAK       -37.5140  -17.4050   -0.8540 C.ar      1 BVB1395     0.0000 
     12 CAL       -36.5240  -15.1990   -0.5990 C.ar      1 BVB1395     0.0000 
     13 CAM       -36.6700  -17.8650    0.1860 C.ar      1 BVB1395     0.0000 
     14 CAN       -35.6730  -15.6800    0.4190 C.ar      1 BVB1395     0.0000 
     15 CAO       -40.3630  -14.9790   -7.0860 C.ar      1 BVB1395     0.0000 
     16 CAP       -39.1540  -15.8010   -4.6460 C.ar      1 BVB1395     0.0000 
     17 CAQ       -37.4560  -16.0430   -1.2300 C.ar      1 BVB1395     0.0000 
     18 H         -38.2229  -17.2914   -3.4384 H         1 BVB1395     0.0000 
     19 H         -38.6144  -14.5543   -2.2084 H         1 BVB1395     0.0000 
     20 H         -39.9900  -13.0210   -6.3546 H         1 BVB1395     0.0000 
     21 H         -40.5702  -17.0444   -7.4523 H         1 BVB1395     0.0000 
     22 H         -38.9173  -13.7304   -4.2890 H         1 BVB1395     0.0000 
     23 H         -39.5162  -17.7489   -5.3895 H         1 BVB1395     0.0000 
     24 H         -35.1166  -17.3887    1.5046 H         1 BVB1395     0.0000 
     25 H         -38.1483  -18.0416   -1.3202 H         1 BVB1395     0.0000 
     26 H         -36.4600  -14.2104   -0.8841 H         1 BVB1395     0.0000 
     27 H         -35.8913  -19.0823    1.3756 H         1 BVB1395     0.0000 
     28 H         -34.6777  -15.2449    1.9776 H         1 BVB1395     0.0000 
@<TRIPOS>BOND
     1   13    1 1    
     2   27    1 1    
     3   14    2 1    
     4   28    2 1    
     5   15    3 1    
     6    5    4 2    
     7   16    4 1    
     8   18    4 1    
     9   17    5 1    
    10   19    5 1    
    11    8    6 ar   
    12   15    6 ar   
    13   20    6 1    
    14    9    7 ar   
    15   15    7 ar   
    16   21    7 1    
    17   16    8 ar   
    18   22    8 1    
    19   16    9 ar   
    20   23    9 1    
    21   13   10 ar   
    22   14   10 ar   
    23   24   10 1    
    24   13   11 ar   
    25   17   11 ar   
    26   25   11 1    
    27   14   12 ar   
    28   17   12 ar   
    29   26   12 1    
@<TRIPOS>SUBSTRUCTURE
     1 BVB1395     1 GROUP   
@<TRIPOS>SET

