#    Name: 3uv6_0CH_1_INTS_M
#    Modification time : Mon Mar 24 23:35:14 2014

@<TRIPOS>MOLECULE
3uv6_0CH_1_INTS_M
   46     0     6     0     0
SMALL
NO_CHARGES


@<TRIPOS>ATOM
      1 N         -26.1245    0.2885  -18.9310 N.am      1 SEC2        0.0000 
      2 N         -25.5210    1.1680  -18.0010 N.am      5 SEL2        0.0000 
      3 N         -26.7280   -0.5910  -19.8610 N.am      3 SEP2        0.0000 
      4 N         -26.3040    2.2875  -18.3030 N.am      1 SEC2        0.0000 
      5 N         -27.0870    3.4070  -18.6050 N.am      3 SEP2        0.0000 
      6 N         -24.1935    1.4590  -18.1350 N.am      1 SEC2        0.0000 
      7 N         -22.8660    1.7500  -18.2690 N.am      3 SEP2        0.0000 
      8 N         -23.3765    1.4130  -15.5685 N.am      1 SEC2        0.0000 
      9 N         -24.6170    0.8620  -15.6340 N.am      5 SEL2        0.0000 
     10 N         -22.1360    1.9640  -15.5030 N.am      3 SEP2        0.0000 
     11 N         -23.9010   -0.0650  -14.8660 N.am      1 SEC2        0.0000 
     12 N         -23.1850   -0.9920  -14.0980 N.am      3 SEP2        0.0000 
     13 N         -26.5075    2.9920  -15.2205 N.am      1 SEC2        0.0000 
     14 N         -26.8670    1.9210  -16.0190 N.am      5 SEL2        0.0000 
     15 N         -26.1480    4.0630  -14.4220 N.am      3 SEP2        0.0000 
     16 N         -26.6865   -0.5230  -18.1555 N.am      1 SEC2        0.0000 
     17 N         -26.6450   -0.4550  -16.4500 N.am      5 SEL2        0.0000 
     18 N         -28.0515   -1.0190  -17.2370 N.am      1 SEC2        0.0000 
     19 N         -29.4580   -1.5830  -18.0240 N.am      3 SEP2        0.0000 
     20 N         -24.1150   -3.3530  -16.4900 N.am      1 SEC2        0.0000 
     21 N         -24.6850   -2.1480  -16.7900 N.am      5 SEL2        0.0000 
     22 N         -23.5450   -4.5580  -16.1900 N.am      3 SEP2        0.0000 
     23 N         -23.4110   -1.8160  -16.9485 N.am      1 SEC2        0.0000 
     24 N         -22.1370   -1.4840  -17.1070 N.am      3 SEP2        0.0000 
     25 N         -27.0435   -3.6450  -17.9515 N.am      1 SEC2        0.0000 
     26 N         -27.1190   -2.8490  -16.8860 N.am      5 SEL2        0.0000 
     27 N         -26.9680   -4.4410  -19.0170 N.am      3 SEP2        0.0000 
     28 N         -28.2885   -2.2160  -17.4550 N.am      1 SEC2        0.0000 
     29 CA        -25.3700   -2.8695  -12.4260 C.3       2 GLC5        0.0000 
     30 CA        -27.0050   -2.4980  -13.8590 C.3       6 GLL5        0.0000 
     31 CA        -23.7350   -3.2410  -10.9930 C.3       4 GLP5        0.0000 
     32 CA        -25.8195   -3.9465  -14.8150 C.3       2 GLC5        0.0000 
     33 CA        -24.6340   -5.3950  -15.7710 C.3       4 GLP5        0.0000 
     34 CA        -27.0115    0.5745  -13.2810 C.3       2 GLC5        0.0000 
     35 CA        -27.9100   -1.2440  -13.8330 C.3       6 GLL5        0.0000 
     36 CA        -26.1130    2.3930  -12.7290 C.3       4 GLP5        0.0000 
     37 CA        -31.5500    1.0460  -12.8100 C.3       2 GLC5        0.0000 
     38 CA        -30.2670   -0.4150  -13.7390 C.3       6 GLL5        0.0000 
     39 CA        -32.8330    2.5070  -11.8810 C.3       4 GLP5        0.0000 
     40 CA        -27.5207   -3.7050  -13.2165 C.3       2 GLC5        0.0000 
     41 CA        -27.5840   -5.5390  -12.5870 C.3       4 GLP5        0.0000 
     42 CA        -31.2020   -2.3700  -14.1683 C.3       2 GLC5        0.0000 
     43 CA        -29.3850   -1.5750  -14.1860 C.3       6 GLL5        0.0000 
     44 CA        -32.5780   -3.7450  -14.3740 C.3       4 GLP5        0.0000 
     45 CA        -29.7026   -0.6671  -15.7171 C.3       2 GLC5        0.0000 
     46 CA        -29.9480   -0.4220  -17.5600 C.3       4 GLP5        0.0000 
@<TRIPOS>BOND
@<TRIPOS>SUBSTRUCTURE
     1 SEC2        1 GROUP        1 X    SEC  0     ROOT SEC X 2
     2 GLC5       29 GROUP        1 X    GLC  0     **** GLC X 6
     3 SEP2        3 GROUP        1 Y    SEP  0     ROOT SEP Y 9
     4 GLP5       31 GROUP        1 Y    GLP  0     **** GLP Y 13
     5 SEL2        2 GROUP        1 Z    SEL  0     ROOT SEL Z 16
     6 GLL5       30 GROUP        1 Z    GLL  0     **** GLL Z 20
@<TRIPOS>SET

