#    Name: 3uv6_0CH_1_ligand
#    Modification time : Mon Mar 24 23:35:14 2014

@<TRIPOS>MOLECULE
3uv6_0CH_1_ligand
   23    22     1     0     0
SMALL
NO_CHARGES


@<TRIPOS>ATOM
      1 O20       -25.5210    1.1680  -18.0010 O.co2     1 0CH318      0.0000 
      2 P17       -25.8180    0.9120  -16.5080 P.3       1 0CH318      0.0000 
      3 O19       -24.6170    0.8620  -15.6340 O.co2     1 0CH318      0.0000 
      4 O18       -26.8670    1.9210  -16.0190 O.co2     1 0CH318      0.0000 
      5 O16       -26.6450   -0.4550  -16.4500 O.3       1 0CH318      0.0000 
      6 P13       -26.0310   -1.9210  -16.2860 P.3       1 0CH318      0.0000 
      7 O15       -24.6850   -2.1480  -16.7900 O.co2     1 0CH318      0.0000 
      8 O14       -27.1190   -2.8490  -16.8860 O.co2     1 0CH318      0.0000 
      9 O29       -25.8460   -2.2700  -14.7270 O.3       1 0CH318      0.0000 
     10 C28       -27.0050   -2.4980  -13.8590 C.3       1 0CH318      0.0000 
     11 C27       -27.9100   -1.2440  -13.8330 C.3       1 0CH318      0.0000 
     12 C30       -29.3850   -1.5750  -14.1860 C.3       1 0CH318      0.0000 
     13 C13       -30.2670   -0.4150  -13.7390 C.3       1 0CH318      0.0000 
     14 O33       -29.4770    0.4660  -12.9860 O.3       1 0CH318      0.0000 
     15 H         -26.6933   -2.7074  -12.8339 H         1 0CH318      0.0000 
     16 H         -27.6052   -3.3368  -14.2168 H         1 0CH318      0.0000 
     17 H         -27.5310   -0.5164  -14.5512 H         1 0CH318      0.0000 
     18 H         -27.8772   -0.8018  -12.8369 H         1 0CH318      0.0000 
     19 H         -29.6723   -2.4756  -13.6686 H         1 0CH318      0.0000 
     20 H         -29.4655   -1.7081  -15.2523 H         1 0CH318      0.0000 
     21 H         -31.0950   -0.8332  -13.1612 H         1 0CH318      0.0000 
     22 H         -30.6769    0.0535  -14.6373 H         1 0CH318      0.0000 
     23 H         -29.2187    1.1914  -13.6240 H         1 0CH318      0.0000 
@<TRIPOS>BOND
     1    2    1 ar   
     2    3    2 ar   
     3    4    2 ar   
     4    5    2 1    
     5    6    5 1    
     6    7    6 ar   
     7    8    6 ar   
     8    9    6 1    
     9   10    9 1    
    10   11   10 1    
    11   15   10 1    
    12   16   10 1    
    13   12   11 1    
    14   17   11 1    
    15   18   11 1    
    16   13   12 1    
    17   19   12 1    
    18   20   12 1    
    19   14   13 1    
    20   21   13 1    
    21   22   13 1    
    22   23   14 1    
@<TRIPOS>SUBSTRUCTURE
     1 0CH318      1 GROUP   
@<TRIPOS>SET

