#    Name: 4gvj_ADP_1_INTS_M
#    Modification time : Mon Mar 24 23:51:03 2014

@<TRIPOS>MOLECULE
4gvj_ADP_1_INTS_M
   59     0    15     0     0
SMALL
NO_CHARGES


@<TRIPOS>ATOM
      1 NZ          5.0700    3.2640  -10.7490 N.4       3 LYC4        0.0000 
      2 NZ          4.1980    2.3170  -11.6070 N.4      13 LYL4        0.0000 
      3 NZ          5.9420    4.2110   -9.8910 N.4       8 LYP4        0.0000 
      4 Zn          4.6960    1.3640  -11.6115 Zn        4 ZIC7        0.0000 
      5 Zn          4.1980    2.3170  -11.6070 Zn       14 ZIL7        0.0000 
      6 Zn          5.1940    0.4110  -11.6160 Zn        9 ZIP7        0.0000 
      7 N           5.0700    3.2640  -10.7490 N.am      2 SEC2        0.0000 
      8 N           4.1980    2.3170  -11.6070 N.am     12 SEL2        0.0000 
      9 N           5.9420    4.2110   -9.8910 N.am      7 SEP2        0.0000 
     10 Zn          4.9440    2.0690  -14.4980 Zn        4 ZIC7        0.0000 
     11 Zn          3.9990    2.2580  -14.1180 Zn       14 ZIL7        0.0000 
     12 Zn          5.8890    1.8800  -14.8780 Zn        9 ZIP7        0.0000 
     13 NZ          6.4550    4.6880  -11.1565 N.4       3 LYC4        0.0000 
     14 NZ          6.9680    5.1650  -12.4220 N.4      13 LYL4        0.0000 
     15 N           6.4550    4.6880  -11.1565 N.am      2 SEC2        0.0000 
     16 N           6.9680    5.1650  -12.4220 N.am     12 SEL2        0.0000 
     17 Zn          6.2045    2.7925  -14.6415 Zn        4 ZIC7        0.0000 
     18 Zn          6.5200    3.7050  -14.4050 Zn       14 ZIL7        0.0000 
     19 CA          4.7325    7.3220  -13.9285 C.3       5 GLC5        0.0000 
     20 CA          4.6930    6.0310  -15.4050 C.3      15 GLL5        0.0000 
     21 CA          4.7720    8.6130  -12.4520 C.3      10 GLP5        0.0000 
     22 O           7.2590    4.2470  -18.3970 O.2       1 ALC1        0.0000 
     23 O           6.3230    5.1380  -18.0970 O.2      11 ALL1        0.0000 
     24 O           8.1950    3.3560  -18.6970 O.2       6 ALP1        0.0000 
     25 CA          7.9985    6.4960  -19.5690 C.3       5 GLC5        0.0000 
     26 CA          6.9170    7.5290  -18.0170 C.3      15 GLL5        0.0000 
     27 CA          9.0800    5.4630  -21.1210 C.3      10 GLP5        0.0000 
     28 CA          5.6005   10.5760  -16.9175 C.3       5 GLC5        0.0000 
     29 CA          6.5270    8.6340  -17.0220 C.3      15 GLL5        0.0000 
     30 CA          4.6740   12.5180  -16.8130 C.3      10 GLP5        0.0000 
     31 CA         11.7540   10.8720  -16.3680 C.3       5 GLC5        0.0000 
     32 CA         10.3370   10.9390  -15.0190 C.3      15 GLL5        0.0000 
     33 CA         13.1710   10.8050  -17.7170 C.3      10 GLP5        0.0000 
     34 O          12.1230   11.9320  -13.4925 O.2       1 ALC1        0.0000 
     35 O          11.2180   10.9890  -14.0140 O.2      11 ALL1        0.0000 
     36 O          13.0280   12.8750  -12.9710 O.2       6 ALP1        0.0000 
     37 N          11.6670   12.7265  -16.3340 N.am      2 SEC2        0.0000 
     38 N          10.4360   11.8450  -16.0190 N.am     12 SEL2        0.0000 
     39 N          12.8980   13.6080  -16.6490 N.am      7 SEP2        0.0000 
     40 CA          8.0435   12.8870  -16.4760 C.3       5 GLC5        0.0000 
     41 CA          9.5720   11.7800  -17.0400 C.3      15 GLL5        0.0000 
     42 CA          6.5150   13.9940  -15.9120 C.3      10 GLP5        0.0000 
     43 CA         11.3715   11.2925  -17.3785 C.3       5 GLC5        0.0000 
     44 CA          7.5035   12.0150  -16.0705 C.3       5 GLC5        0.0000 
     45 CA          8.4920   10.0360  -16.2290 C.3      15 GLL5        0.0000 
     46 CA          9.6465    8.5285  -17.0025 C.3       5 GLC5        0.0000 
     47 CA         10.8010    7.0210  -17.7760 C.3      10 GLP5        0.0000 
     48 CA          3.3655    7.6770  -16.2515 C.3       5 GLC5        0.0000 
     49 CA          5.1670    6.7630  -16.6290 C.3      15 GLL5        0.0000 
     50 CA          1.8010    8.9570  -16.4860 C.3      10 GLP5        0.0000 
     51 CA          8.7488    6.9625  -17.7052 C.3       5 GLC5        0.0000 
     52 CA          6.4760    6.2790  -17.2520 C.3      15 GLL5        0.0000 
     53 CA          7.3720   10.4090  -14.3410 C.3       5 GLC5        0.0000 
     54 CA          5.8440   10.8100  -13.0130 C.3      10 GLP5        0.0000 
     55 CA          9.5213   11.9082  -13.8565 C.3       5 GLC5        0.0000 
     56 CA          9.3080    9.9800  -15.1090 C.3      15 GLL5        0.0000 
     57 CA          9.2200   13.3570  -12.6490 C.3      10 GLP5        0.0000 
     58 CA         10.9162    8.9803  -15.3455 C.3       5 GLC5        0.0000 
     59 CA         12.0100    7.5010  -15.6270 C.3      10 GLP5        0.0000 
@<TRIPOS>BOND
@<TRIPOS>SUBSTRUCTURE
     1 ALC1       22 GROUP        1 X    ALC  0     ROOT ALC X 1
     2 SEC2        7 GROUP        1 X    SEC  0     **** SEC X 2
     3 LYC4        1 GROUP        1 X    LYC  0     **** LYC X 4
     4 ZIC7        4 GROUP        1 X    ZIC  0     **** ZIC X 5
     5 GLC5       19 GROUP        1 X    GLC  0     **** GLC X 6
     6 ALP1       24 GROUP        1 Y    ALP  0     ROOT ALP Y 8
     7 SEP2        9 GROUP        1 Y    SEP  0     **** SEP Y 9
     8 LYP4        3 GROUP        1 Y    LYP  0     **** LYP Y 11
     9 ZIP7        6 GROUP        1 Y    ZIP  0     **** ZIP Y 12
    10 GLP5       21 GROUP        1 Y    GLP  0     **** GLP Y 13
    11 ALL1       23 GROUP        1 Z    ALL  0     ROOT ALL Z 15
    12 SEL2        8 GROUP        1 Z    SEL  0     **** SEL Z 16
    13 LYL4        2 GROUP        1 Z    LYL  0     **** LYL Z 18
    14 ZIL7        5 GROUP        1 Z    ZIL  0     **** ZIL Z 19
    15 GLL5       20 GROUP        1 Z    GLL  0     **** GLL Z 20
@<TRIPOS>SET

