#    Name: 4gvj_ADP_1_ligand
#    Modification time : Mon Mar 24 23:51:03 2014

@<TRIPOS>MOLECULE
4gvj_ADP_1_ligand
   39    41     1     0     0
SMALL
NO_CHARGES


@<TRIPOS>ATOM
      1 PB          3.7460    3.1010  -12.8210 P.3       1 ADP1201     0.0000 
      2 O1B         4.1980    2.3170  -11.6070 O.co2     1 ADP1201     0.0000 
      3 O2B         2.2860    3.4790  -12.7240 O.co2     1 ADP1201     0.0000 
      4 O3B         3.9990    2.2580  -14.1180 O.co2     1 ADP1201     0.0000 
      5 PA          6.0050    4.8460  -13.5000 P.3       1 ADP1201     0.0000 
      6 O1A         6.9680    5.1650  -12.4220 O.co2     1 ADP1201     0.0000 
      7 O2A         6.5200    3.7050  -14.4050 O.co2     1 ADP1201     0.0000 
      8 O3A         4.5910    4.4580  -12.8580 O.3       1 ADP1201     0.0000 
      9 O5'         5.7220    6.1110  -14.3950 O.3       1 ADP1201     0.0000 
     10 C5'         4.6930    6.0310  -15.4050 C.3       1 ADP1201     0.0000 
     11 C4'         5.1670    6.7630  -16.6290 C.3       1 ADP1201     0.0000 
     12 O4'         5.4210    8.1450  -16.2800 O.3       1 ADP1201     0.0000 
     13 C3'         6.4760    6.2790  -17.2520 C.3       1 ADP1201     0.0000 
     14 O3'         6.3230    5.1380  -18.0970 O.3       1 ADP1201     0.0000 
     15 C2'         6.9170    7.5290  -18.0170 C.3       1 ADP1201     0.0000 
     16 O2'         6.1430    7.6730  -19.2040 O.3       1 ADP1201     0.0000 
     17 C1'         6.5270    8.6340  -17.0220 C.3       1 ADP1201     0.0000 
     18 N9          7.5840    9.0130  -16.0820 N.pl3     1 ADP1201     0.0000 
     19 C8          7.9020    8.4060  -14.8940 C.2       1 ADP1201     0.0000 
     20 N7          8.9230    8.9430  -14.2720 N.2       1 ADP1201     0.0000 
     21 C5          9.3080    9.9800  -15.1090 C.ar      1 ADP1201     0.0000 
     22 C6         10.3370   10.9390  -15.0190 C.ar      1 ADP1201     0.0000 
     23 N6         11.2180   10.9890  -14.0140 N.pl3     1 ADP1201     0.0000 
     24 N1         10.4360   11.8450  -16.0190 N.ar      1 ADP1201     0.0000 
     25 C2          9.5720   11.7800  -17.0400 C.ar      1 ADP1201     0.0000 
     26 N3          8.5770   10.9130  -17.2410 N.ar      1 ADP1201     0.0000 
     27 C4          8.4920   10.0360  -16.2290 C.ar      1 ADP1201     0.0000 
     28 H           3.7653    6.4905  -15.0588 H         1 ADP1201     0.0000 
     29 H           4.4862    4.9936  -15.6748 H         1 ADP1201     0.0000 
     30 H           4.4012    6.7383  -17.3965 H         1 ADP1201     0.0000 
     31 H           7.1761    6.1395  -16.4515 H         1 ADP1201     0.0000 
     32 H           7.9381    7.5225  -18.1361 H         1 ADP1201     0.0000 
     33 H           6.2164    9.4994  -17.6041 H         1 ADP1201     0.0000 
     34 H           7.3765    7.6168  -14.5556 H         1 ADP1201     0.0000 
     35 H          11.5874   11.8927  -13.7972 H         1 ADP1201     0.0000 
     36 H          11.4283   10.1182  -13.5695 H         1 ADP1201     0.0000 
     37 H           9.7018   12.5511  -17.8236 H         1 ADP1201     0.0000 
     38 H           7.2306    4.7197  -18.1337 H         1 ADP1201     0.0000 
     39 H           5.8790    6.7418  -19.4552 H         1 ADP1201     0.0000 
@<TRIPOS>BOND
     1    2    1 ar   
     2    3    1 ar   
     3    4    1 ar   
     4    8    1 1    
     5    6    5 ar   
     6    7    5 ar   
     7    8    5 1    
     8    9    5 1    
     9   10    9 1    
    10   11   10 1    
    11   28   10 1    
    12   29   10 1    
    13   12   11 1    
    14   13   11 1    
    15   30   11 1    
    16   17   12 1    
    17   14   13 1    
    18   15   13 1    
    19   31   13 1    
    20   38   14 1    
    21   16   15 1    
    22   17   15 1    
    23   32   15 1    
    24   39   16 1    
    25   18   17 1    
    26   33   17 1    
    27   19   18 1    
    28   27   18 1    
    29   20   19 2    
    30   34   19 1    
    31   21   20 1    
    32   22   21 ar   
    33   27   21 ar   
    34   23   22 1    
    35   24   22 ar   
    36   35   23 1    
    37   36   23 1    
    38   25   24 ar   
    39   26   25 ar   
    40   37   25 1    
    41   27   26 ar   
@<TRIPOS>SUBSTRUCTURE
     1 ADP1201     1 GROUP   
@<TRIPOS>SET

