#    Name: 3QFF_2_CAVITY_N1_6.mol2
#    Modification time : Mon Mar 10 17:28:36 2014

@<TRIPOS>MOLECULE
3QFF_2_CAVITY_N1_6.mol2
  199     0     6     0     0
SMALL
NO_CHARGES


@<TRIPOS>ATOM
      1 CZ         20.9634  -16.4318   37.7930 C.ar      4 PHE5        0.0000 
      2 CZ         21.6617  -17.5338   37.0527 C.ar      4 PHE5        0.0000 
      3 O          18.7411  -15.2433   40.0064 O.2       1 ALA2        0.0000 
      4 O          19.4394  -16.3453   39.2661 O.2       1 ALA2        0.0000 
      5 CZ         20.1377  -17.4473   38.5258 C.ar      4 PHE5        0.0000 
      6 CZ         20.8360  -18.5493   37.7855 C.ar      4 PHE5        0.0000 
      7 O          18.6137  -17.3608   39.9989 O.2       1 ALA2        0.0000 
      8 N          19.3120  -18.4628   39.2586 N.2       1 ALA2        0.0000 
      9 OD1        20.0103  -19.5648   38.5183 O.3       2 ASP3        0.0000 
     10 CA         18.4863  -19.4783   39.9914 C.3       5 GLY6        0.0000 
     11 CA         18.6547  -12.0440   38.2018 C.3       5 GLY6        0.0000 
     12 NZ         19.3530  -13.1460   37.4615 N.2       3 LYS4        0.0000 
     13 O          17.8290  -13.0595   38.9346 O.2       1 ALA2        0.0000 
     14 O          18.5273  -14.1615   38.1943 O.2       1 ALA2        0.0000 
     15 NZ         19.2256  -15.2634   37.4540 N.2       3 LYS4        0.0000 
     16 O          18.3999  -16.2789   38.1868 O.2       1 ALA2        0.0000 
     17 CZ         19.0982  -17.3809   37.4465 C.ar      4 PHE5        0.0000 
     18 N          17.5742  -17.2944   38.9196 N.2       1 ALA2        0.0000 
     19 OD1        18.2725  -18.3964   38.1793 O.3       2 ASP3        0.0000 
     20 N          18.9708  -19.4984   37.4390 N.2       1 ALA2        0.0000 
     21 OD1        17.4468  -19.4119   38.9120 O.3       2 ASP3        0.0000 
     22 CA         17.4878  -14.0951   37.1150 C.3       5 GLY6        0.0000 
     23 NZ         18.1861  -15.1970   36.3747 N.2       3 LYS4        0.0000 
     24 O          16.6621  -15.1106   37.8477 O.2       1 ALA2        0.0000 
     25 NZ         17.3604  -16.2125   37.1074 N.2       3 LYS4        0.0000 
     26 NZ         18.0587  -17.3145   36.3671 N.2       3 LYS4        0.0000 
     27 O          15.8364  -16.1261   38.5805 O.2       1 ALA2        0.0000 
     28 DU         16.5347  -17.2280   37.8402 H         6 CUB7        0.0000 
     29 O          17.2330  -18.3300   37.0999 O.2       1 ALA2        0.0000 
     30 N          15.0107  -17.1416   39.3133 N.2       1 ALA2        0.0000 
     31 N          15.7090  -18.2435   38.5730 N.2       1 ALA2        0.0000 
     32 OD1        16.4073  -19.3455   37.8327 O.3       2 ASP3        0.0000 
     33 N          17.1055  -20.4475   37.0924 N.2       1 ALA2        0.0000 
     34 CZ         13.4867  -17.0551   40.7864 C.ar      4 PHE5        0.0000 
     35 N          14.1850  -18.1571   40.0461 N.2       1 ALA2        0.0000 
     36 N          14.8833  -19.2591   39.3058 N.2       1 ALA2        0.0000 
     37 O          15.5815  -20.3610   38.5655 O.2       1 ALA2        0.0000 
     38 CZ         12.6610  -18.0706   41.5192 C.ar      4 PHE5        0.0000 
     39 N          13.3593  -19.1726   40.7788 N.2       1 ALA2        0.0000 
     40 O          17.1466  -15.1307   35.2953 O.2       1 ALA2        0.0000 
     41 CA         15.6226  -15.0442   36.7684 C.3       5 GLY6        0.0000 
     42 N          16.3209  -16.1462   36.0281 N.2       1 ALA2        0.0000 
     43 O          17.0191  -17.2481   35.2878 O.2       1 ALA2        0.0000 
     44 N          14.7969  -16.0597   37.5012 N.2       1 ALA2        0.0000 
     45 DU         15.4952  -17.1617   36.7609 H         6 CUB7        0.0000 
     46 O          16.1934  -18.2636   36.0206 O.2       1 ALA2        0.0000 
     47 CA         13.2729  -15.9732   38.9742 C.3       5 GLY6        0.0000 
     48 CA         13.9712  -17.0752   38.2339 C.3       5 GLY6        0.0000 
     49 O          14.6694  -18.1772   37.4936 O.2       1 ALA2        0.0000 
     50 O          15.3677  -19.2791   36.7533 O.2       1 ALA2        0.0000 
     51 CZ         12.4472  -16.9887   39.7070 C.ar      4 PHE5        0.0000 
     52 O          13.1455  -18.0907   38.9667 O.2       1 ALA2        0.0000 
     53 O          13.8437  -19.1927   38.2264 O.2       1 ALA2        0.0000 
     54 OD1        10.7662  -13.6767   33.1913 O.3       2 ASP3        0.0000 
     55 N          11.4645  -14.7786   32.4510 N.2       1 ALA2        0.0000 
     56 OD1         9.9405  -14.6922   33.9241 O.3       2 ASP3        0.0000 
     57 N          10.6388  -15.7941   33.1838 N.2       1 ALA2        0.0000 
     58 N          11.3371  -16.8961   32.4435 N.2       1 ALA2        0.0000 
     59 OD1         8.4165  -14.6057   35.3972 O.3       2 ASP3        0.0000 
     60 OD1         9.1148  -15.7077   34.6569 O.3       2 ASP3        0.0000 
     61 DU          9.8131  -16.8096   33.9166 H         6 CUB7        0.0000 
     62 NZ         10.5114  -17.9116   33.1763 N.2       3 LYS4        0.0000 
     63 NZ         11.2097  -19.0136   32.4360 N.2       3 LYS4        0.0000 
     64 DU          7.5908  -15.6212   36.1299 H         6 CUB7        0.0000 
     65 DU          8.2891  -16.7232   35.3896 H         6 CUB7        0.0000 
     66 DU          8.9874  -17.8251   34.6493 H         6 CUB7        0.0000 
     67 NZ          9.6857  -18.9271   33.9090 N.2       3 LYS4        0.0000 
     68 NZ         10.3839  -20.0291   33.1687 N.2       3 LYS4        0.0000 
     69 N           6.7651  -16.6367   36.8627 N.2       1 ALA2        0.0000 
     70 DU          7.4634  -17.7387   36.1224 H         6 CUB7        0.0000 
     71 DU          8.1617  -18.8406   35.3821 H         6 CUB7        0.0000 
     72 NZ          8.8600  -19.9426   34.6418 N.2       3 LYS4        0.0000 
     73 NZ          9.5582  -21.0446   33.9015 N.2       3 LYS4        0.0000 
     74 N           5.9394  -17.6522   37.5955 N.2       1 ALA2        0.0000 
     75 DU          6.6377  -18.7542   36.8552 H         6 CUB7        0.0000 
     76 DU          7.3360  -19.8561   36.1149 H         6 CUB7        0.0000 
     77 NZ          8.0342  -20.9581   35.3746 N.2       3 LYS4        0.0000 
     78 NZ          8.7325  -22.0601   34.6343 N.2       3 LYS4        0.0000 
     79 NZ          9.4308  -23.1621   33.8940 N.2       3 LYS4        0.0000 
     80 CA          6.5103  -20.8717   36.8477 C.3       5 GLY6        0.0000 
     81 CA          7.2085  -21.9736   36.1074 C.3       5 GLY6        0.0000 
     82 NZ          7.9068  -23.0756   35.3671 N.2       3 LYS4        0.0000 
     83 NZ          8.6051  -24.1776   34.6268 N.2       3 LYS4        0.0000 
     84 N           9.5993  -15.7278   32.1044 N.2       1 ALA2        0.0000 
     85 O           8.7736  -16.7433   32.8372 O.2       1 ALA2        0.0000 
     86 O           9.4718  -17.8452   32.0969 O.2       1 ALA2        0.0000 
     87 O           7.9478  -17.7588   33.5700 O.2       1 ALA2        0.0000 
     88 CZ         22.6854  -14.4270   42.5117 C.ar      4 PHE5        0.0000 
     89 O          21.1614  -14.3405   43.9848 O.2       1 ALA2        0.0000 
     90 CZ         21.8597  -15.4425   43.2445 C.ar      4 PHE5        0.0000 
     91 CZ         22.4716  -13.3451   40.6996 C.ar      4 PHE5        0.0000 
     92 DU         20.9476  -13.2586   42.1726 H         6 CUB7        0.0000 
     93 CZ         21.6459  -14.3606   41.4323 C.ar      4 PHE5        0.0000 
     94 CZ         23.7407  -17.6665   39.2114 C.ar      4 PHE5        0.0000 
     95 CA         20.1219  -14.2741   42.9054 C.3       5 GLY6        0.0000 
     96 CZ         20.8202  -15.3761   42.1651 C.ar      4 PHE5        0.0000 
     97 CZ         21.5185  -16.4781   41.4248 C.ar      4 PHE5        0.0000 
     98 CZ         22.9150  -18.6820   39.9442 C.ar      4 PHE5        0.0000 
     99 O          23.6133  -19.7840   39.2039 O.2       1 ALA2        0.0000 
    100 CA         20.6928  -17.4936   42.1576 C.3       5 GLY6        0.0000 
    101 CA         21.3910  -18.5956   41.4173 C.3       5 GLY6        0.0000 
    102 CA         22.7876  -20.7995   39.9367 C.3       5 GLY6        0.0000 
    103 O          12.3197  -19.1062   39.6995 O.2       1 ALA2        0.0000 
    104 CA         14.5830  -14.9778   35.6890 C.3       5 GLY6        0.0000 
    105 N          15.2813  -16.0798   34.9487 N.2       1 ALA2        0.0000 
    106 NZ         15.9796  -17.1817   34.2084 N.2       3 LYS4        0.0000 
    107 N          13.7573  -15.9933   36.4218 N.2       1 ALA2        0.0000 
    108 NZ         14.4556  -17.0953   35.6815 N.2       3 LYS4        0.0000 
    109 NZ         15.1539  -18.1972   34.9412 N.2       3 LYS4        0.0000 
    110 N          12.2333  -15.9068   37.8949 N.2       1 ALA2        0.0000 
    111 N          12.9316  -17.0088   37.1546 N.2       1 ALA2        0.0000 
    112 NZ         13.6299  -18.1108   36.4143 N.2       3 LYS4        0.0000 
    113 CZ         11.4076  -16.9223   38.6277 C.ar      4 PHE5        0.0000 
    114 O          12.1059  -18.0243   37.8874 O.2       1 ALA2        0.0000 
    115 O          12.8042  -19.1263   37.1471 O.2       1 ALA2        0.0000 
    116 O          11.2802  -19.0398   38.6202 O.2       1 ALA2        0.0000 
    117 CA         12.8452  -13.8094   35.3500 C.3       5 GLY6        0.0000 
    118 N          13.5435  -14.9114   34.6097 N.2       1 ALA2        0.0000 
    119 N          14.2418  -16.0134   33.8694 N.2       1 ALA2        0.0000 
    120 N          12.0195  -14.8249   36.0828 N.2       1 ALA2        0.0000 
    121 N          12.7178  -15.9269   35.3425 N.2       1 ALA2        0.0000 
    122 NZ         13.4161  -17.0289   34.6022 N.2       3 LYS4        0.0000 
    123 N          10.4955  -14.7385   37.5559 N.2       1 ALA2        0.0000 
    124 N          11.1938  -15.8404   36.8156 N.2       1 ALA2        0.0000 
    125 NZ         11.8921  -16.9424   36.0753 N.2       3 LYS4        0.0000 
    126 CZ         10.3681  -16.8559   37.5483 C.ar      4 PHE5        0.0000 
    127 NZ         11.0664  -17.9579   36.8080 N.2       3 LYS4        0.0000 
    128 NZ         11.7647  -19.0599   36.0677 N.2       3 LYS4        0.0000 
    129 CA         10.2407  -18.9734   37.5408 C.3       5 GLY6        0.0000 
    130 NZ         10.9390  -20.0754   36.8005 N.2       3 LYS4        0.0000 
    131 CA          9.4150  -19.9889   38.2736 C.3       5 GLY6        0.0000 
    132 O          10.1133  -21.0909   37.5333 O.2       1 ALA2        0.0000 
    133 O          10.8116  -22.1929   36.7930 O.2       1 ALA2        0.0000 
    134 O           8.5893  -21.0044   39.0064 O.2       1 ALA2        0.0000 
    135 O           9.2876  -22.1064   38.2661 O.2       1 ALA2        0.0000 
    136 O          10.6842  -24.3103   36.7855 O.2       1 ALA2        0.0000 
    137 O          11.1074  -12.6411   35.0109 O.2       1 ALA2        0.0000 
    138 O          11.8057  -13.7430   34.2706 O.2       1 ALA2        0.0000 
    139 N          12.5040  -14.8450   33.5303 N.2       1 ALA2        0.0000 
    140 NZ         13.2023  -15.9470   32.7900 N.2       3 LYS4        0.0000 
    141 N          10.2817  -13.6566   35.7437 N.2       1 ALA2        0.0000 
    142 N          10.9800  -14.7586   35.0034 N.2       1 ALA2        0.0000 
    143 DU         11.6783  -15.8605   34.2631 H         6 CUB7        0.0000 
    144 NZ         12.3766  -16.9625   33.5228 N.2       3 LYS4        0.0000 
    145 CA          8.7577  -13.5701   37.2168 C.3       5 GLY6        0.0000 
    146 N           9.4560  -14.6721   36.4765 N.2       1 ALA2        0.0000 
    147 DU         10.1543  -15.7741   35.7362 H         6 CUB7        0.0000 
    148 NZ         10.8526  -16.8760   34.9959 N.2       3 LYS4        0.0000 
    149 CZ          8.6303  -15.6876   37.2093 C.ar      4 PHE5        0.0000 
    150 DU          9.3286  -16.7896   36.4690 H         6 CUB7        0.0000 
    151 DU         10.0269  -17.8915   35.7287 H         6 CUB7        0.0000 
    152 NZ         10.7252  -18.9935   34.9884 N.2       3 LYS4        0.0000 
    153 CA          8.5029  -17.8051   37.2018 C.3       5 GLY6        0.0000 
    154 DU          9.2012  -18.9070   36.4615 H         6 CUB7        0.0000 
    155 NZ          9.8995  -20.0090   35.7212 N.2       3 LYS4        0.0000 
    156 CA          7.6772  -18.8206   37.9345 C.3       5 GLY6        0.0000 
    157 CA          8.3755  -19.9225   37.1942 C.3       5 GLY6        0.0000 
    158 DU          9.0738  -21.0245   36.4539 H         6 CUB7        0.0000 
    159 NZ          9.7721  -22.1265   35.7136 N.2       3 LYS4        0.0000 
    160 NZ         10.4703  -23.2285   34.9733 N.2       3 LYS4        0.0000 
    161 O           6.8515  -19.8361   38.6673 O.2       1 ALA2        0.0000 
    162 CA          7.5498  -20.9380   37.9270 C.3       5 GLY6        0.0000 
    163 CA          8.2481  -22.0400   37.1867 C.3       5 GLY6        0.0000 
    164 O           8.9463  -23.1420   36.4464 O.2       1 ALA2        0.0000 
    165 N           9.6446  -24.2440   35.7061 N.2       1 ALA2        0.0000 
    166 O           8.1206  -24.1575   37.1792 O.2       1 ALA2        0.0000 
    167 DU         22.2578  -12.2632   38.8874 H         6 CUB7        0.0000 
    168 CZ         22.9561  -13.3652   38.1471 C.ar      4 PHE5        0.0000 
    169 DU         20.7338  -12.1767   40.3605 H         6 CUB7        0.0000 
    170 DU         21.4321  -13.2787   39.6202 H         6 CUB7        0.0000 
    171 CZ         22.1304  -14.3807   38.8799 C.ar      4 PHE5        0.0000 
    172 O          19.2098  -12.0903   41.8336 O.2       1 ALA2        0.0000 
    173 O          19.9081  -13.1923   41.0933 O.2       1 ALA2        0.0000 
    174 DU         20.6064  -14.2942   40.3530 H         6 CUB7        0.0000 
    175 CZ         21.3046  -15.3962   39.6127 C.ar      4 PHE5        0.0000 
    176 CZ         22.0029  -16.4982   38.8724 C.ar      4 PHE5        0.0000 
    177 CZ         22.7012  -17.6001   38.1321 C.ar      4 PHE5        0.0000 
    178 CZ         23.3995  -18.7021   37.3918 C.ar      4 PHE5        0.0000 
    179 O          18.3841  -13.1058   42.5664 O.2       1 ALA2        0.0000 
    180 O          19.0824  -14.2078   41.8261 O.2       1 ALA2        0.0000 
    181 O          19.7807  -15.3097   41.0858 O.2       1 ALA2        0.0000 
    182 CZ         20.4789  -16.4117   40.3455 C.ar      4 PHE5        0.0000 
    183 CZ         21.1772  -17.5137   39.6052 C.ar      4 PHE5        0.0000 
    184 CZ         21.8755  -18.6157   38.8649 C.ar      4 PHE5        0.0000 
    185 CZ         22.5738  -19.7176   38.1246 C.ar      4 PHE5        0.0000 
    186 O          19.6532  -17.4272   41.0783 O.2       1 ALA2        0.0000 
    187 CA         20.3515  -18.5292   40.3380 C.3       5 GLY6        0.0000 
    188 CA         21.0498  -19.6312   39.5977 C.3       5 GLY6        0.0000 
    189 CZ         21.7481  -20.7331   38.8574 C.ar      4 PHE5        0.0000 
    190 CA         19.5258  -19.5447   41.0707 C.3       5 GLY6        0.0000 
    191 CA         20.2241  -20.6467   40.3304 C.3       5 GLY6        0.0000 
    192 NZ         21.2182  -12.1968   37.8081 N.2       3 LYS4        0.0000 
    193 N          18.9960  -11.0084   40.0215 N.2       1 ALA2        0.0000 
    194 N          19.6943  -12.1104   39.2812 N.2       1 ALA2        0.0000 
    195 NZ         20.3925  -13.2123   38.5409 N.2       3 LYS4        0.0000 
    196 NZ         21.0908  -14.3143   37.8006 N.2       3 LYS4        0.0000 
    197 O          18.8685  -13.1259   40.0140 O.2       1 ALA2        0.0000 
    198 O          19.5668  -14.2278   39.2737 O.2       1 ALA2        0.0000 
    199 DU         20.2651  -15.3298   38.5333 H         6 CUB7        0.0000 
@<TRIPOS>BOND
@<TRIPOS>SUBSTRUCTURE
     1 ALA2        3 GROUP   
     2 ASP3        9 GROUP   
     3 LYS4       12 GROUP   
     4 PHE5        1 GROUP   
     5 GLY6       10 GROUP   
     6 CUB7       28 GROUP   
@<TRIPOS>SET

