#    Name: 3qff_ADP_2_INTS_M
#    Modification time : Tue Mar 25 09:42:16 2014

@<TRIPOS>MOLECULE
3qff_ADP_2_INTS_M
   55     0    12     0     0
SMALL
NO_CHARGES


@<TRIPOS>ATOM
      1 NZ         12.5685  -21.4720   37.9730 N.4       3 LYC4        0.0000 
      2 NZ         12.2450  -20.1020   36.9810 N.4      11 LYL4        0.0000 
      3 NZ         12.8920  -22.8420   38.9650 N.4       7 LYP4        0.0000 
      4 N          12.5205  -20.9480   35.8450 N.am      2 SEC2        0.0000 
      5 N          12.2450  -20.1020   36.9810 N.am     10 SEL2        0.0000 
      6 N          12.7960  -21.7940   34.7090 N.am      6 SEP2        0.0000 
      7 N          16.5340  -19.4110   35.2920 N.am      2 SEC2        0.0000 
      8 N          15.5390  -18.7620   36.1930 N.am     10 SEL2        0.0000 
      9 N          17.5290  -20.0600   34.3910 N.am      6 SEP2        0.0000 
     10 NZ         14.6190  -21.2240   38.2520 N.4       3 LYC4        0.0000 
     11 NZ         15.8410  -20.8040   37.7800 N.4      11 LYL4        0.0000 
     12 NZ         16.9715  -21.5325   38.2180 N.4       3 LYC4        0.0000 
     13 NZ         18.1020  -22.2610   38.6560 N.4       7 LYP4        0.0000 
     14 N          14.6190  -21.2240   38.2520 N.am      2 SEC2        0.0000 
     15 N          15.8410  -20.8040   37.7800 N.am     10 SEL2        0.0000 
     16 N          13.3970  -21.6440   38.7240 N.am      6 SEP2        0.0000 
     17 N          16.9715  -21.5325   38.2180 N.am      2 SEC2        0.0000 
     18 N          18.1020  -22.2610   38.6560 N.am      6 SEP2        0.0000 
     19 CA         15.1885  -15.4970   39.5995 C.3       4 GLC5        0.0000 
     20 CA         16.2360  -17.0810   38.6780 C.3      12 GLL5        0.0000 
     21 CA         14.1410  -13.9130   40.5210 C.3       8 GLP5        0.0000 
     22 O          18.6820  -15.7045   35.0610 O.2       1 ALC1        0.0000 
     23 O          17.6190  -15.8120   36.0030 O.2       9 ALL1        0.0000 
     24 O          19.7450  -15.5970   34.1190 O.2       5 ALP1        0.0000 
     25 CA         20.6550  -17.3620   36.0260 C.3       4 GLC5        0.0000 
     26 CA         19.6420  -16.2890   37.3400 C.3      12 GLL5        0.0000 
     27 CA         21.6680  -18.4350   34.7120 C.3       8 GLP5        0.0000 
     28 O          20.0575  -14.2400   36.0305 O.2       1 ALC1        0.0000 
     29 O          19.8820  -14.8850   37.1770 O.2       9 ALL1        0.0000 
     30 O          20.2330  -13.5950   34.8840 O.2       5 ALP1        0.0000 
     31 O          19.8135  -15.2410   35.6480 O.2       1 ALC1        0.0000 
     32 N          19.1355  -21.2950   38.8085 N.am      2 SEC2        0.0000 
     33 N          20.1690  -20.3290   38.9610 N.am     10 SEL2        0.0000 
     34 CA         19.6480  -21.0375   39.5710 C.3       4 GLC5        0.0000 
     35 CA         21.4620  -19.9840   39.0180 C.3      12 GLL5        0.0000 
     36 CA         17.8340  -22.0910   40.1240 C.3       8 GLP5        0.0000 
     37 CA         24.3505  -21.1645   40.2475 C.3       4 GLC5        0.0000 
     38 CA         22.7500  -20.7130   39.1110 C.3      12 GLL5        0.0000 
     39 CA         25.9510  -21.6160   41.3840 C.3       8 GLP5        0.0000 
     40 CA         24.3150  -21.7130   37.8735 C.3       4 GLC5        0.0000 
     41 CA         25.8800  -22.7130   36.6360 C.3       8 GLP5        0.0000 
     42 O          21.5460  -23.1330   39.0660 O.2       1 ALC1        0.0000 
     43 O          22.7880  -22.0680   39.1600 O.2       9 ALL1        0.0000 
     44 O          20.3040  -24.1980   38.9720 O.2       5 ALP1        0.0000 
     45 O          23.8335  -23.0020   39.7040 O.2       1 ALC1        0.0000 
     46 O          24.8790  -23.9360   40.2480 O.2       5 ALP1        0.0000 
     47 N          25.1590  -20.5235   39.1110 N.am      2 SEC2        0.0000 
     48 N          23.8800  -19.9740   39.1440 N.am     10 SEL2        0.0000 
     49 N          26.4380  -21.0730   39.0780 N.am      6 SEP2        0.0000 
     50 CA         24.9025  -20.1210   40.2410 C.3       4 GLC5        0.0000 
     51 CA         23.8540  -18.6260   39.0980 C.3      12 GLL5        0.0000 
     52 CA         25.5480  -19.7965   38.4840 C.3       4 GLC5        0.0000 
     53 CA         27.2420  -20.9670   37.8700 C.3       8 GLP5        0.0000 
     54 CA         21.9555  -20.4542   41.0183 C.3       4 GLC5        0.0000 
     55 CA         21.8050  -20.5600   42.9720 C.3       8 GLP5        0.0000 
@<TRIPOS>BOND
@<TRIPOS>SUBSTRUCTURE
     1 ALC1       22 GROUP        1 X    ALC  0     ROOT ALC X 1
     2 SEC2        4 GROUP        1 X    SEC  0     **** SEC X 2
     3 LYC4        1 GROUP        1 X    LYC  0     **** LYC X 4
     4 GLC5       19 GROUP        1 X    GLC  0     **** GLC X 6
     5 ALP1       24 GROUP        1 Y    ALP  0     ROOT ALP Y 8
     6 SEP2        6 GROUP        1 Y    SEP  0     **** SEP Y 9
     7 LYP4        3 GROUP        1 Y    LYP  0     **** LYP Y 11
     8 GLP5       21 GROUP        1 Y    GLP  0     **** GLP Y 13
     9 ALL1       23 GROUP        1 Z    ALL  0     ROOT ALL Z 15
    10 SEL2        5 GROUP        1 Z    SEL  0     **** SEL Z 16
    11 LYL4        2 GROUP        1 Z    LYL  0     **** LYL Z 18
    12 GLL5       20 GROUP        1 Z    GLL  0     **** GLL Z 20
@<TRIPOS>SET

