#    Name: 3qff_ADP_2_ligand
#    Modification time : Tue Mar 25 09:42:16 2014

@<TRIPOS>MOLECULE
3qff_ADP_2_ligand
   39    41     1     0     0
SMALL
NO_CHARGES


@<TRIPOS>ATOM
      1 PB         12.6880  -18.7430   37.4680 P.3       1 ADP400      0.0000 
      2 O1B        12.2450  -20.1020   36.9810 O.co2     1 ADP400      0.0000 
      3 O2B        13.0670  -17.7840   36.3610 O.co2     1 ADP400      0.0000 
      4 O3B        11.7950  -18.1280   38.5220 O.co2     1 ADP400      0.0000 
      5 PA         15.4940  -19.3500   37.5870 P.3       1 ADP400      0.0000 
      6 O1A        15.5390  -18.7620   36.1930 O.co2     1 ADP400      0.0000 
      7 O2A        15.8410  -20.8040   37.7800 O.co2     1 ADP400      0.0000 
      8 O3A        14.0590  -19.0490   38.2700 O.3       1 ADP400      0.0000 
      9 O5'        16.4660  -18.4810   38.5300 O.3       1 ADP400      0.0000 
     10 C5'        16.2360  -17.0810   38.6780 C.3       1 ADP400      0.0000 
     11 C4'        17.5000  -16.2740   38.3990 C.3       1 ADP400      0.0000 
     12 O4'        18.4870  -16.5180   39.4040 O.3       1 ADP400      0.0000 
     13 C3'        18.1800  -16.5920   37.0710 C.3       1 ADP400      0.0000 
     14 O3'        17.6190  -15.8120   36.0030 O.3       1 ADP400      0.0000 
     15 C2'        19.6420  -16.2890   37.3400 C.3       1 ADP400      0.0000 
     16 O2'        19.8820  -14.8850   37.1770 O.3       1 ADP400      0.0000 
     17 C1'        19.7900  -16.6710   38.8120 C.3       1 ADP400      0.0000 
     18 N9         20.2420  -18.0910   38.8950 N.pl3     1 ADP400      0.0000 
     19 C8         19.4490  -19.1850   38.8850 C.2       1 ADP400      0.0000 
     20 N7         20.1690  -20.3290   38.9610 N.2       1 ADP400      0.0000 
     21 C5         21.4620  -19.9840   39.0180 C.ar      1 ADP400      0.0000 
     22 C6         22.7500  -20.7130   39.1110 C.ar      1 ADP400      0.0000 
     23 N6         22.7880  -22.0680   39.1600 N.pl3     1 ADP400      0.0000 
     24 N1         23.8800  -19.9740   39.1440 N.ar      1 ADP400      0.0000 
     25 C2         23.8540  -18.6260   39.0980 C.ar      1 ADP400      0.0000 
     26 N3         22.7220  -17.8990   39.0180 N.ar      1 ADP400      0.0000 
     27 C4         21.5110  -18.5090   38.9740 C.ar      1 ADP400      0.0000 
     28 H          15.8988  -16.8309   39.6990 H         1 ADP400      0.0000 
     29 H          15.4524  -16.7234   37.9876 H         1 ADP400      0.0000 
     30 H          17.2465  -15.2139   38.3918 H         1 ADP400      0.0000 
     31 H          18.0839  -17.6503   36.9115 H         1 ADP400      0.0000 
     32 H          20.2406  -16.9071   36.7612 H         1 ADP400      0.0000 
     33 H          20.5028  -16.0245   39.2550 H         1 ADP400      0.0000 
     34 H          18.4647  -19.1553   38.8291 H         1 ADP400      0.0000 
     35 H          21.9033  -22.5339   39.1431 H         1 ADP400      0.0000 
     36 H          23.6973  -22.4812   39.2087 H         1 ADP400      0.0000 
     37 H          24.7864  -18.1043   39.1267 H         1 ADP400      0.0000 
     38 H          18.3595  -15.7132   35.3382 H         1 ADP400      0.0000 
     39 H          19.9649  -14.7496   36.1897 H         1 ADP400      0.0000 
@<TRIPOS>BOND
     1    2    1 ar   
     2    3    1 ar   
     3    4    1 ar   
     4    8    1 1    
     5    6    5 ar   
     6    7    5 ar   
     7    8    5 1    
     8    9    5 1    
     9   10    9 1    
    10   11   10 1    
    11   28   10 1    
    12   29   10 1    
    13   12   11 1    
    14   13   11 1    
    15   30   11 1    
    16   17   12 1    
    17   14   13 1    
    18   15   13 1    
    19   31   13 1    
    20   38   14 1    
    21   16   15 1    
    22   17   15 1    
    23   32   15 1    
    24   39   16 1    
    25   18   17 1    
    26   33   17 1    
    27   19   18 1    
    28   27   18 1    
    29   20   19 2    
    30   34   19 1    
    31   21   20 1    
    32   22   21 ar   
    33   27   21 ar   
    34   23   22 1    
    35   24   22 ar   
    36   35   23 1    
    37   36   23 1    
    38   25   24 ar   
    39   26   25 ar   
    40   37   25 1    
    41   27   26 ar   
@<TRIPOS>SUBSTRUCTURE
     1 ADP400      1 GROUP   
@<TRIPOS>SET

