#    Name: 4gue_QCT_1_INTS_M
#    Modification time : Mon Mar 24 23:44:35 2014

@<TRIPOS>MOLECULE
4gue_QCT_1_INTS_M
   61     0     6     0     0
SMALL
NO_CHARGES


@<TRIPOS>ATOM
      1 CA         32.3595   10.4225    9.5990 C.3       2 GLC5        0.0000 
      2 CA         33.2750    8.8010    8.4500 C.3       6 GLL5        0.0000 
      3 CA         31.4440   12.0440   10.7480 C.3       4 GLP5        0.0000 
      4 CA         33.4155   10.5000    7.4430 C.3       2 GLC5        0.0000 
      5 CA         33.5560   12.1990    6.4360 C.3       4 GLP5        0.0000 
      6 CA         34.3510   10.1355    9.1715 C.3       2 GLC5        0.0000 
      7 CA         35.4270   11.4700    9.8930 C.3       4 GLP5        0.0000 
      8 CA         34.3335    2.8205    8.4970 C.3       2 GLC5        0.0000 
      9 CA         34.4640    4.4730    8.9470 C.3       6 GLL5        0.0000 
     10 CA         34.2030    1.1680    8.0470 C.3       4 GLP5        0.0000 
     11 CA         33.7930    2.6200    9.7430 C.3       2 GLC5        0.0000 
     12 CA         33.7940    4.5070   10.1780 C.3       6 GLL5        0.0000 
     13 CA         33.7920    0.7330    9.3080 C.3       4 GLP5        0.0000 
     14 CA         33.5595    3.2980   11.8050 C.3       2 GLC5        0.0000 
     15 CA         33.3250    2.0890   13.4320 C.3       4 GLP5        0.0000 
     16 O          27.7510    4.5365   12.0675 O.2       1 ALC1        0.0000 
     17 O          28.1100    4.7530   10.8110 O.2       5 ALL1        0.0000 
     18 O          27.3920    4.3200   13.3240 O.2       3 ALP1        0.0000 
     19 CA         32.5305    3.5190   12.4970 C.3       2 GLC5        0.0000 
     20 CA         31.7360    4.9490   11.5620 C.3       6 GLL5        0.0000 
     21 CA         36.7995    6.2035   13.0245 C.3       2 GLC5        0.0000 
     22 CA         36.2210    4.2100   12.5970 C.3       6 GLL5        0.0000 
     23 CA         37.3780    8.1970   13.4520 C.3       4 GLP5        0.0000 
     24 O          39.4215    3.8050   13.8900 O.2       1 ALC1        0.0000 
     25 O          38.1650    3.9900   14.0120 O.2       5 ALL1        0.0000 
     26 O          40.6780    3.6200   13.7680 O.2       3 ALP1        0.0000 
     27 CA         40.2565    4.4095   10.8795 C.3       2 GLC5        0.0000 
     28 CA         38.4180    4.0110   11.5910 C.3       6 GLL5        0.0000 
     29 CA         42.0950    4.8080   10.1680 C.3       4 GLP5        0.0000 
     30 CA         34.2390    3.6892    5.7963 C.3       2 GLC5        0.0000 
     31 CA         34.1650    5.5210    6.7870 C.3       6 GLL5        0.0000 
     32 CA         34.8300    1.9110    5.3800 C.3       4 GLP5        0.0000 
     33 CA         35.1750    6.3767    5.4917 C.3       2 GLC5        0.0000 
     34 CA         33.1310    5.4140    5.6380 C.3       6 GLL5        0.0000 
     35 CA         36.7020    7.2860    4.7710 C.3       4 GLP5        0.0000 
     36 CA         31.3932    8.1837    9.3598 C.3       2 GLC5        0.0000 
     37 CA         32.9980    7.4500    7.7670 C.3       6 GLL5        0.0000 
     38 CA         29.6500    8.2420   10.6110 C.3       4 GLP5        0.0000 
     39 CA         31.4985    2.8627   11.1040 C.3       2 GLC5        0.0000 
     40 CA         32.2780    4.6110   10.3070 C.3       6 GLL5        0.0000 
     41 CA         31.1480    1.2890   12.4280 C.3       4 GLP5        0.0000 
     42 CA         29.9295    2.5734    9.5489 C.3       2 GLC5        0.0000 
     43 CA         29.4970    4.7050   10.6720 C.3       6 GLL5        0.0000 
     44 CA         29.7460    0.6430    9.0880 C.3       4 GLP5        0.0000 
     45 CA         30.6031    3.0287   11.6642 C.3       2 GLC5        0.0000 
     46 CA         30.0380    4.3430    9.4420 C.3       6 GLL5        0.0000 
     47 CA         31.5153    4.9315   13.6695 C.3       2 GLC5        0.0000 
     48 CA         30.3490    5.0130   11.7440 C.3       6 GLL5        0.0000 
     49 CA         31.9880    4.8820   15.6860 C.3       4 GLP5        0.0000 
     50 CA         37.0750    6.0633   10.9090 C.3       2 GLC5        0.0000 
     51 CA         35.6520    4.2970   11.3260 C.3       6 GLL5        0.0000 
     52 CA         38.0930    7.8570   11.0620 C.3       4 GLP5        0.0000 
     53 CA         34.6307    3.1712   12.6968 C.3       2 GLC5        0.0000 
     54 CA         36.2140    3.7545   14.6357 C.3       2 GLC5        0.0000 
     55 CA         35.5200    3.3690   16.6120 C.3       4 GLP5        0.0000 
     56 CA         38.7897    5.5983   12.5452 C.3       2 GLC5        0.0000 
     57 CA         37.5950    4.0700   12.7220 C.3       6 GLL5        0.0000 
     58 CA         39.5730    7.1560   12.9340 C.3       4 GLP5        0.0000 
     59 CA         38.4678    1.9543   12.6202 C.3       2 GLC5        0.0000 
     60 CA         38.9290   -0.1320   13.0840 C.3       4 GLP5        0.0000 
     61 CA         30.0614    6.4761   10.6546 C.3       2 GLC5        0.0000 
@<TRIPOS>BOND
@<TRIPOS>SUBSTRUCTURE
     1 ALC1       16 GROUP        1 X    ALC  0     ROOT ALC X 1
     2 GLC5        1 GROUP        1 X    GLC  0     **** GLC X 6
     3 ALP1       18 GROUP        1 Y    ALP  0     ROOT ALP Y 8
     4 GLP5        3 GROUP        1 Y    GLP  0     **** GLP Y 13
     5 ALL1       17 GROUP        1 Z    ALL  0     ROOT ALL Z 15
     6 GLL5        2 GROUP        1 Z    GLL  0     **** GLL Z 20
@<TRIPOS>SET

