#    Name: 4gue_QCT_1_ligand
#    Modification time : Mon Mar 24 23:44:36 2014

@<TRIPOS>MOLECULE
4gue_QCT_1_ligand
   51    54     1     0     0
SMALL
NO_CHARGES


@<TRIPOS>ATOM
      1 O10        31.1700    6.3800    4.6540 O.3       1 QCT401      0.0000 
      2 C23        31.8490    6.2210    5.9150 C.3       1 QCT401      0.0000 
      3 C22        33.1310    5.4140    5.6380 C.3       1 QCT401      0.0000 
      4 O9         33.7130    5.8820    4.4160 O.3       1 QCT401      0.0000 
      5 C24        32.1480    7.6170    6.4970 C.3       1 QCT401      0.0000 
      6 O11        30.9390    8.2870    6.8410 O.3       1 QCT401      0.0000 
      7 C25        32.9980    7.4500    7.7670 C.3       1 QCT401      0.0000 
      8 C26        33.2750    8.8010    8.4500 C.3       1 QCT401      0.0000 
      9 O8         34.1970    6.8350    7.3360 O.3       1 QCT401      0.0000 
     10 C21        34.1650    5.5210    6.7870 C.3       1 QCT401      0.0000 
     11 O7         33.7170    4.5540    7.7330 O.3       1 QCT401      0.0000 
     12 C3         34.4640    4.4730    8.9470 C.2       1 QCT401      0.0000 
     13 C4         35.8490    4.3310    8.9300 C.2       1 QCT401      0.0000 
     14 O2         36.4990    4.3000    7.8560 O.2       1 QCT401      0.0000 
     15 C2         33.7940    4.5070   10.1780 C.2       1 QCT401      0.0000 
     16 C11        32.2780    4.6110   10.3070 C.ar      1 QCT401      0.0000 
     17 C12        31.4200    4.2620    9.2530 C.ar      1 QCT401      0.0000 
     18 C13        30.0380    4.3430    9.4420 C.ar      1 QCT401      0.0000 
     19 O5         29.1390    4.0370    8.3810 O.3       1 QCT401      0.0000 
     20 C14        29.4970    4.7050   10.6720 C.ar      1 QCT401      0.0000 
     21 O6         28.1100    4.7530   10.8110 O.3       1 QCT401      0.0000 
     22 C15        30.3490    5.0130   11.7440 C.ar      1 QCT401      0.0000 
     23 C16        31.7360    4.9490   11.5620 C.ar      1 QCT401      0.0000 
     24 O1         34.4240    4.4420   11.2550 O.3       1 QCT401      0.0000 
     25 C9         35.6520    4.2970   11.3260 C.ar      1 QCT401      0.0000 
     26 C8         36.2210    4.2100   12.5970 C.ar      1 QCT401      0.0000 
     27 C7         37.5950    4.0700   12.7220 C.ar      1 QCT401      0.0000 
     28 O4         38.1650    3.9900   14.0120 O.3       1 QCT401      0.0000 
     29 C6         38.4180    4.0110   11.5910 C.ar      1 QCT401      0.0000 
     30 C5         37.8390    4.1060   10.3210 C.ar      1 QCT401      0.0000 
     31 C10        36.4620    4.2420   10.1860 C.ar      1 QCT401      0.0000 
     32 O3         38.6760    4.0460    9.1800 O.co2     1 QCT401      0.0000 
     33 H          31.2440    5.6759    6.6067 H         1 QCT401      0.0000 
     34 H          32.8488    4.3676    5.5438 H         1 QCT401      0.0000 
     35 H          32.7257    8.1643    5.7816 H         1 QCT401      0.0000 
     36 H          32.4535    6.8180    8.4425 H         1 QCT401      0.0000 
     37 H          35.1104    5.2243    6.3694 H         1 QCT401      0.0000 
     38 H          31.8035    3.9530    8.3599 H         1 QCT401      0.0000 
     39 H          29.9593    5.2813   12.6485 H         1 QCT401      0.0000 
     40 H          32.3662    5.1497   12.3483 H         1 QCT401      0.0000 
     41 H          35.6248    4.2496   13.4294 H         1 QCT401      0.0000 
     42 H          39.4263    3.9002   11.6920 H         1 QCT401      0.0000 
     43 H          33.8270    8.6929    9.2768 H         1 QCT401      0.0000 
     44 H          33.7694    9.4274    7.8473 H         1 QCT401      0.0000 
     45 H          32.4291    9.2608    8.7203 H         1 QCT401      0.0000 
     46 H          30.5838    5.5740    4.5724 H         1 QCT401      0.0000 
     47 H          32.9846    6.3956    3.9625 H         1 QCT401      0.0000 
     48 H          30.2466    7.5667    6.8816 H         1 QCT401      0.0000 
     49 H          29.7185    3.6942    7.6416 H         1 QCT401      0.0000 
     50 H          27.9435    4.6272   11.7890 H         1 QCT401      0.0000 
     51 H          39.0988    4.3312   13.9038 H         1 QCT401      0.0000 
@<TRIPOS>BOND
     1    2    1 1    
     2   46    1 1    
     3    3    2 1    
     4    5    2 1    
     5   33    2 1    
     6    4    3 1    
     7   10    3 1    
     8   34    3 1    
     9   47    4 1    
    10    6    5 1    
    11    7    5 1    
    12   35    5 1    
    13   48    6 1    
    14    8    7 1    
    15    9    7 1    
    16   36    7 1    
    17   43    8 1    
    18   44    8 1    
    19   45    8 1    
    20   10    9 1    
    21   11   10 1    
    22   37   10 1    
    23   12   11 1    
    24   13   12 1    
    25   15   12 2    
    26   14   13 2    
    27   31   13 1    
    28   16   15 1    
    29   24   15 1    
    30   17   16 ar   
    31   23   16 ar   
    32   18   17 ar   
    33   38   17 1    
    34   19   18 1    
    35   20   18 ar   
    36   49   19 1    
    37   21   20 1    
    38   22   20 ar   
    39   50   21 1    
    40   23   22 ar   
    41   39   22 1    
    42   40   23 1    
    43   25   24 1    
    44   26   25 ar   
    45   31   25 ar   
    46   27   26 ar   
    47   41   26 1    
    48   28   27 1    
    49   29   27 ar   
    50   51   28 1    
    51   30   29 ar   
    52   42   29 1    
    53   31   30 ar   
    54   32   30 ar   
@<TRIPOS>SUBSTRUCTURE
     1 QCT401      1 GROUP   
@<TRIPOS>SET

