#    Name: 2ym5_YM5_1_INTS_M
#    Modification time : Tue Mar 25 09:29:34 2014

@<TRIPOS>MOLECULE
2ym5_YM5_1_INTS_M
   75     0    12     0     0
SMALL
NO_CHARGES


@<TRIPOS>ATOM
      1 OD1        20.4395   -3.9535   13.9805 O.co2     3 ASC3        0.0000 
      2 OD1        20.2470   -5.0230   12.9460 O.co2    11 ASL3        0.0000 
      3 OD1        20.6320   -2.8840   15.0150 O.co2     7 ASP3        0.0000 
      4 O          20.4395   -3.9535   13.9805 O.2       1 ALC1        0.0000 
      5 O          20.2470   -5.0230   12.9460 O.2       9 ALL1        0.0000 
      6 O          20.6320   -2.8840   15.0150 O.2       5 ALP1        0.0000 
      7 CA         18.0475   -2.9080    9.0260 C.3       4 GLC5        0.0000 
      8 CA         18.2640   -2.3480   11.0400 C.3      12 GLL5        0.0000 
      9 CA         17.8310   -3.4680    7.0120 C.3       8 GLP5        0.0000 
     10 CA         17.3150   -2.0730    8.6665 C.3       4 GLC5        0.0000 
     11 CA         16.7990   -0.6780   10.3210 C.3      12 GLL5        0.0000 
     12 CA         17.3160   -0.3115    7.3460 C.3       4 GLC5        0.0000 
     13 CA         17.8750    0.8650    8.8060 C.3      12 GLL5        0.0000 
     14 CA         16.7570   -1.4880    5.8860 C.3       8 GLP5        0.0000 
     15 CA         17.9415    3.0210    8.6850 C.3       4 GLC5        0.0000 
     16 CA         18.0080    5.1770    8.5640 C.3       8 GLP5        0.0000 
     17 N          16.8450    3.0375    8.2500 N.am      2 SEC2        0.0000 
     18 N          16.7490    1.5590    8.6730 N.am     10 SEL2        0.0000 
     19 N          16.9410    4.5160    7.8270 N.am      6 SEP2        0.0000 
     20 CA         15.3510    2.7565    7.8060 C.3       4 GLC5        0.0000 
     21 CA         15.5900    1.1810    9.3540 C.3      12 GLL5        0.0000 
     22 CA         15.1120    4.3320    6.2580 C.3       8 GLP5        0.0000 
     23 CA         16.6770    3.1095    9.7125 C.3       4 GLC5        0.0000 
     24 CA         17.7640    5.0380   10.0710 C.3       8 GLP5        0.0000 
     25 O          13.8795    2.9385    8.8680 O.2       1 ALC1        0.0000 
     26 O          14.3850    1.7450    9.3460 O.2       9 ALL1        0.0000 
     27 O          13.3740    4.1320    8.3900 O.2       5 ALP1        0.0000 
     28 CA         12.2910    2.7090   10.9125 C.3       4 GLC5        0.0000 
     29 CA         13.5250    1.0170   10.1900 C.3      12 GLL5        0.0000 
     30 CA         11.0570    4.4010   11.6350 C.3       8 GLP5        0.0000 
     31 CA         11.6040    1.4845    9.4680 C.3       4 GLC5        0.0000 
     32 CA          9.6830    1.9520    8.7460 C.3       8 GLP5        0.0000 
     33 CA         13.7795   -1.6520    9.2430 C.3       4 GLC5        0.0000 
     34 CA         14.2340   -0.0180   10.7050 C.3      12 GLL5        0.0000 
     35 CA         13.3250   -3.2860    7.7810 C.3       8 GLP5        0.0000 
     36 CA         13.0040   -2.0240   16.0705 C.3       4 GLC5        0.0000 
     37 CA         14.7680   -2.5850   14.9630 C.3      12 GLL5        0.0000 
     38 CA         11.2400   -1.4630   17.1780 C.3       8 GLP5        0.0000 
     39 N          14.8540   -1.8240   17.3680 N.am      2 SEC2        0.0000 
     40 N          14.9130   -1.6290   15.9930 N.am     10 SEL2        0.0000 
     41 N          14.7950   -2.0190   18.7430 N.am      6 SEP2        0.0000 
     42 N          14.1830   -0.3015   15.3650 N.am      2 SEC2        0.0000 
     43 N          13.4530    1.0260   14.7370 N.am      6 SEP2        0.0000 
     44 O          16.4630   -1.4735   16.6690 O.2       1 ALC1        0.0000 
     45 O          14.9130   -1.6290   15.9930 O.2       9 ALL1        0.0000 
     46 O          18.0130   -1.3180   17.3450 O.2       5 ALP1        0.0000 
     47 CA         14.1775    0.3230   14.2555 C.3       4 GLC5        0.0000 
     48 CA         14.4590   -1.3060   12.8010 C.3      12 GLL5        0.0000 
     49 CA         13.8960    1.9520   15.7100 C.3       8 GLP5        0.0000 
     50 CA         16.9340   -3.1625    8.8870 C.3       4 GLC5        0.0000 
     51 CA         16.0370   -2.8570   10.7620 C.3      12 GLL5        0.0000 
     52 CA         14.7690   -3.7495    9.6075 C.3       4 GLC5        0.0000 
     53 CA         13.5010   -4.6420    8.4530 C.3       8 GLP5        0.0000 
     54 CA         17.0885   -5.5640   10.7390 C.3       4 GLC5        0.0000 
     55 CA         16.1480   -4.0180   11.7010 C.3      12 GLL5        0.0000 
     56 CA         18.0290   -7.1100    9.7770 C.3       8 GLP5        0.0000 
     57 CA         14.3870   -4.3815   10.6955 C.3       4 GLC5        0.0000 
     58 CA         12.6260   -4.7450    9.6900 C.3       8 GLP5        0.0000 
     59 CA         18.5962   -5.4365   10.8827 C.3       4 GLC5        0.0000 
     60 CA         18.4250   -3.4730   12.0110 C.3      12 GLL5        0.0000 
     61 CA         16.0105    1.3230   11.2981 C.3       4 GLC5        0.0000 
     62 CA         16.1290    2.2130   12.7890 C.3       8 GLP5        0.0000 
     63 CA         15.0043    1.3563   11.6182 C.3       4 GLC5        0.0000 
     64 CA         12.8485   -2.9823   10.6075 C.3       4 GLC5        0.0000 
     65 CA         13.7230   -0.9520   11.6200 C.3      12 GLL5        0.0000 
     66 CA         15.1100    0.5420   12.4997 C.3       4 GLC5        0.0000 
     67 CA         10.7287   -1.0395   10.9787 C.3       4 GLC5        0.0000 
     68 CA         12.4190   -1.4870   11.4300 C.3      12 GLL5        0.0000 
     69 CA          9.2980   -0.1570   10.0770 C.3       8 GLP5        0.0000 
     70 CA         12.4490   -3.6445   11.3003 C.3       4 GLC5        0.0000 
     71 CA         11.9000   -2.3570   12.3310 C.3      12 GLL5        0.0000 
     72 CA         12.2662   -1.9595   15.3857 C.3       4 GLC5        0.0000 
     73 CA         12.6440   -2.7310   13.4900 C.3      12 GLL5        0.0000 
     74 CA         13.9793    0.4540    8.2846 C.3       4 GLC5        0.0000 
     75 CA         13.2240    0.3510    6.4570 C.3       8 GLP5        0.0000 
@<TRIPOS>BOND
@<TRIPOS>SUBSTRUCTURE
     1 ALC1        4 GROUP        1 X    ALC  0     ROOT ALC X 1
     2 SEC2       17 GROUP        1 X    SEC  0     **** SEC X 2
     3 ASC3        1 GROUP        1 X    ASC  0     **** ASC X 3
     4 GLC5        7 GROUP        1 X    GLC  0     **** GLC X 6
     5 ALP1        6 GROUP        1 Y    ALP  0     ROOT ALP Y 8
     6 SEP2       19 GROUP        1 Y    SEP  0     **** SEP Y 9
     7 ASP3        3 GROUP        1 Y    ASP  0     **** ASP Y 10
     8 GLP5        9 GROUP        1 Y    GLP  0     **** GLP Y 13
     9 ALL1        5 GROUP        1 Z    ALL  0     ROOT ALL Z 15
    10 SEL2       18 GROUP        1 Z    SEL  0     **** SEL Z 16
    11 ASL3        2 GROUP        1 Z    ASL  0     **** ASL Z 17
    12 GLL5        8 GROUP        1 Z    GLL  0     **** GLL Z 20
@<TRIPOS>SET

