#    Name: 2ym5_YM5_1_ligand
#    Modification time : Tue Mar 25 09:29:34 2014

@<TRIPOS>MOLECULE
2ym5_YM5_1_ligand
   47    50     1     0     0
SMALL
NO_CHARGES


@<TRIPOS>ATOM
      1 N01        20.2470   -5.0230   12.9460 N.4       1 YM51271     0.0000 
      2 C02        19.9020   -4.0530   11.9660 C.3       1 YM51271     0.0000 
      3 C03        18.4250   -3.4730   12.0110 C.3       1 YM51271     0.0000 
      4 C04        18.2640   -2.3480   11.0400 C.3       1 YM51271     0.0000 
      5 N05        16.9510   -1.8510   11.1470 N.3       1 YM51271     0.0000 
      6 C06        16.7990   -0.6780   10.3210 C.ar      1 YM51271     0.0000 
      7 N07        17.8950   -0.2440    9.6290 N.ar      1 YM51271     0.0000 
      8 C08        17.8750    0.8650    8.8060 C.ar      1 YM51271     0.0000 
      9 N09        16.7490    1.5590    8.6730 N.ar      1 YM51271     0.0000 
     10 C10        15.5900    1.1810    9.3540 C.ar      1 YM51271     0.0000 
     11 N11        14.3850    1.7450    9.3460 N.pl3     1 YM51271     0.0000 
     12 C12        13.5250    1.0170   10.1900 C.2       1 YM51271     0.0000 
     13 C13        14.2340   -0.0180   10.7050 C.2       1 YM51271     0.0000 
     14 C14        13.7230   -0.9520   11.6200 C.ar      1 YM51271     0.0000 
     15 C15        12.4190   -1.4870   11.4300 C.ar      1 YM51271     0.0000 
     16 C16        11.9000   -2.3570   12.3310 C.ar      1 YM51271     0.0000 
     17 C17        12.6440   -2.7310   13.4900 C.ar      1 YM51271     0.0000 
     18 C18        13.9410   -2.1810   13.6970 C.ar      1 YM51271     0.0000 
     19 C19        14.7680   -2.5850   14.9630 C.3       1 YM51271     0.0000 
     20 O20        14.9130   -1.6290   15.9930 O.3       1 YM51271     0.0000 
     21 C21        14.4590   -1.3060   12.8010 C.ar      1 YM51271     0.0000 
     22 C22        15.5890    0.0480   10.2000 C.ar      1 YM51271     0.0000 
     23 C23        16.0370   -2.8570   10.7620 C.3       1 YM51271     0.0000 
     24 C24        16.1480   -4.0180   11.7010 C.3       1 YM51271     0.0000 
     25 O25        17.4700   -4.4970   11.7910 O.3       1 YM51271     0.0000 
     26 H          20.0368   -4.4463   10.9221 H         1 YM51271     0.0000 
     27 H          20.5768   -3.1556   12.0096 H         1 YM51271     0.0000 
     28 H          18.3127   -3.0582   13.0307 H         1 YM51271     0.0000 
     29 H          18.4767   -2.7275   10.0332 H         1 YM51271     0.0000 
     30 H          19.0119   -1.5805   11.2734 H         1 YM51271     0.0000 
     31 H          18.7423    1.1343    8.3069 H         1 YM51271     0.0000 
     32 H          14.1021    2.5263    8.8564 H         1 YM51271     0.0000 
     33 H          12.6164    1.2360   10.3500 H         1 YM51271     0.0000 
     34 H          11.8903   -1.1939   10.5949 H         1 YM51271     0.0000 
     35 H          10.9619   -2.7696   12.2062 H         1 YM51271     0.0000 
     36 H          12.2515   -3.3823   14.1588 H         1 YM51271     0.0000 
     37 H          15.7713   -2.9321   14.5741 H         1 YM51271     0.0000 
     38 H          14.2953   -3.5385   15.3447 H         1 YM51271     0.0000 
     39 H          15.3841   -0.8726   12.9359 H         1 YM51271     0.0000 
     40 H          16.2356   -3.2181    9.7421 H         1 YM51271     0.0000 
     41 H          14.9991   -2.4935   10.7842 H         1 YM51271     0.0000 
     42 H          15.4520   -4.8092   11.3503 H         1 YM51271     0.0000 
     43 H          15.7646   -3.6944   12.6918 H         1 YM51271     0.0000 
     44 H          19.4549   -5.5646   13.2274 H         1 YM51271     0.0000 
     45 H          20.9354   -5.6645   12.6074 H         1 YM51271     0.0000 
     46 H          20.6212   -4.6002   13.7714 H         1 YM51271     0.0000 
     47 H          15.8453   -1.2811   15.8937 H         1 YM51271     0.0000 
@<TRIPOS>BOND
     1    2    1 1    
     2   44    1 1    
     3   45    1 1    
     4   46    1 1    
     5    3    2 1    
     6   26    2 1    
     7   27    2 1    
     8    4    3 1    
     9   25    3 1    
    10   28    3 1    
    11    5    4 1    
    12   29    4 1    
    13   30    4 1    
    14    6    5 1    
    15   23    5 1    
    16    7    6 ar   
    17   22    6 ar   
    18    8    7 ar   
    19    9    8 ar   
    20   31    8 1    
    21   10    9 ar   
    22   11   10 1    
    23   22   10 ar   
    24   12   11 1    
    25   32   11 1    
    26   13   12 2    
    27   33   12 1    
    28   14   13 1    
    29   22   13 1    
    30   15   14 ar   
    31   21   14 ar   
    32   16   15 ar   
    33   34   15 1    
    34   17   16 ar   
    35   35   16 1    
    36   18   17 ar   
    37   36   17 1    
    38   19   18 1    
    39   21   18 ar   
    40   20   19 1    
    41   37   19 1    
    42   38   19 1    
    43   47   20 1    
    44   39   21 1    
    45   24   23 1    
    46   40   23 1    
    47   41   23 1    
    48   25   24 1    
    49   42   24 1    
    50   43   24 1    
@<TRIPOS>SUBSTRUCTURE
     1 YM51271     1 GROUP   
@<TRIPOS>SET

