#    Name: 3bs4_ASN_ILE_PHE_1_INTS_M
#    Modification time : Mon Mar 24 20:00:46 2014

@<TRIPOS>MOLECULE
3bs4_ASN_ILE_PHE_1_INTS_M
   77     0     9     0     0
SMALL
NO_CHARGES


@<TRIPOS>ATOM
      1 CA         17.5405   33.1960    1.2965 C.3       3 GLC5        0.0000 
      2 CA         17.5630   31.5140    0.7610 C.3       9 GLL5        0.0000 
      3 CA         17.5180   34.8780    1.8320 C.3       6 GLP5        0.0000 
      4 CA         16.3950   31.7680    2.5960 C.3       3 GLC5        0.0000 
      5 CA         15.2270   32.0220    4.4310 C.3       6 GLP5        0.0000 
      6 N          18.4720   30.2810    3.5945 N.am      2 SEC2        0.0000 
      7 N          18.8030   31.4260    2.7800 N.am      8 SEL2        0.0000 
      8 N          18.1410   29.1360    4.4090 N.am      5 SEP2        0.0000 
      9 CA         15.7225   29.3760    1.9010 C.3       3 GLC5        0.0000 
     10 CA         17.1100   30.0650    0.7260 C.3       9 GLL5        0.0000 
     11 CA         14.3350   28.6870    3.0760 C.3       6 GLP5        0.0000 
     12 CA         17.7640   28.5155    1.9460 C.3       3 GLC5        0.0000 
     13 CA         18.4180   26.9660    3.1660 C.3       6 GLP5        0.0000 
     14 N          15.0395   28.9145   -1.6180 N.am      2 SEC2        0.0000 
     15 N          15.4170   28.8050   -0.3550 N.am      8 SEL2        0.0000 
     16 N          14.6620   29.0240   -2.8810 N.am      5 SEP2        0.0000 
     17 O          13.8550   30.9790   -0.4635 O.2       1 ALC1        0.0000 
     18 O          14.9440   30.9360    0.1340 O.2       7 ALL1        0.0000 
     19 O          12.7660   31.0220   -1.0610 O.2       4 ALP1        0.0000 
     20 CA         20.0525   33.3800    1.4525 C.3       3 GLC5        0.0000 
     21 CA         21.2680   31.8470    1.5140 C.3       9 GLL5        0.0000 
     22 CA         18.8370   34.9130    1.3910 C.3       6 GLP5        0.0000 
     23 N          22.4380   32.9800   -1.4430 N.am      2 SEC2        0.0000 
     24 N          22.0920   33.2950   -0.2320 N.am      8 SEL2        0.0000 
     25 N          22.7840   32.6650   -2.6540 N.am      5 SEP2        0.0000 
     26 CA         21.8160   30.3910    4.2985 C.3       3 GLC5        0.0000 
     27 CA         21.4330   29.4610    2.3620 C.3       9 GLL5        0.0000 
     28 CA         22.1990   31.3210    6.2350 C.3       6 GLP5        0.0000 
     29 CA         24.2220   31.5200   -0.1145 C.3       3 GLC5        0.0000 
     30 CA         23.5470   30.6420    1.4930 C.3       9 GLL5        0.0000 
     31 CA         24.8970   32.3980   -1.7220 C.3       6 GLP5        0.0000 
     32 CA         21.6490   26.8430    4.1995 C.3       3 GLC5        0.0000 
     33 CA         22.2510   28.1870    2.5920 C.3       9 GLL5        0.0000 
     34 CA         21.0470   25.4990    5.8070 C.3       6 GLP5        0.0000 
     35 CA         22.6225   28.3540    0.5460 C.3       3 GLC5        0.0000 
     36 CA         22.9940   28.5210   -1.5000 C.3       6 GLP5        0.0000 
     37 O          22.4865   33.4365    3.2805 O.2       1 ALC1        0.0000 
     38 O          22.6830   33.7720    1.9090 O.2       7 ALL1        0.0000 
     39 O          22.2900   33.1010    4.6520 O.2       4 ALP1        0.0000 
     40 CA         24.3175   33.5685   -0.0715 C.3       3 GLC5        0.0000 
     41 CA         23.7380   34.7390    1.5790 C.3       9 GLL5        0.0000 
     42 N          26.8455   35.1070    0.2340 N.am      2 SEC2        0.0000 
     43 N          26.1060   34.3980    1.0940 N.am      8 SEL2        0.0000 
     44 N          27.5850   35.8160   -0.6260 N.am      5 SEP2        0.0000 
     45 N          27.0190   34.3325    2.5175 N.am      2 SEC2        0.0000 
     46 N          27.9320   34.2670    3.9410 N.am      5 SEP2        0.0000 
     47 CA         25.2330   37.0700    2.6810 C.3       3 GLC5        0.0000 
     48 CA         23.5490   36.0230    2.4020 C.3       9 GLL5        0.0000 
     49 CA         26.9170   38.1170    2.9600 C.3       6 GLP5        0.0000 
     50 CA         22.3030   35.9815    4.1425 C.3       3 GLC5        0.0000 
     51 CA         21.0570   35.9400    5.8830 C.3       6 GLP5        0.0000 
     52 CA         21.1860   36.4660    3.8550 C.3       3 GLC5        0.0000 
     53 CA         21.3150   36.9920    1.8270 C.3       9 GLL5        0.0000 
     54 CA         25.0515   37.5560    0.1035 C.3       3 GLC5        0.0000 
     55 CA         23.2720   38.0100    0.9020 C.3       9 GLL5        0.0000 
     56 CA         26.8310   37.1020   -0.6950 C.3       6 GLP5        0.0000 
     57 CA         25.0945   38.0635    1.9310 C.3       3 GLC5        0.0000 
     58 N          26.6195   33.7735    3.3120 N.am      2 SEC2        0.0000 
     59 N          25.3070   33.2800    2.6830 N.am      8 SEL2        0.0000 
     60 N          24.6845   32.5025    3.7125 N.am      2 SEC2        0.0000 
     61 N          24.0620   31.7250    4.7420 N.am      5 SEP2        0.0000 
     62 CA         20.1300   27.8950    2.8215 C.3       3 GLC5        0.0000 
     63 CA         22.8161   29.4153    0.0899 C.3       3 GLC5        0.0000 
     64 CA         22.0260   30.4930    1.3710 C.3       9 GLL5        0.0000 
     65 CA         21.0730   38.4958    2.6830 C.3       3 GLC5        0.0000 
     66 CA         22.6950   37.0370    1.7130 C.3       9 GLL5        0.0000 
     67 CA         20.1410   39.9770    3.5960 C.3       6 GLP5        0.0000 
     68 CA         23.3377   37.5170   -1.0525 C.3       3 GLC5        0.0000 
     69 CA         22.4870   38.9460    0.2360 C.3       9 GLL5        0.0000 
     70 CA         23.7960   36.5560   -2.6740 C.3       6 GLP5        0.0000 
     71 CA         21.0560   37.2890   -1.0270 C.3       3 GLC5        0.0000 
     72 CA         20.5130   37.9150    1.1620 C.3       9 GLL5        0.0000 
     73 CA         21.3050   36.1730   -2.8180 C.3       6 GLP5        0.0000 
     74 CA         20.8940   39.3263    2.0480 C.3       3 GLC5        0.0000 
     75 CA         21.1010   38.8950    0.3660 C.3       9 GLL5        0.0000 
     76 CA         21.1915   39.7548   -0.7270 C.3       3 GLC5        0.0000 
     77 CA         20.7360   40.8340   -1.9540 C.3       6 GLP5        0.0000 
@<TRIPOS>BOND
@<TRIPOS>SUBSTRUCTURE
     1 ALC1       17 GROUP        1 X    ALC  0     ROOT ALC X 1
     2 SEC2        6 GROUP        1 X    SEC  0     **** SEC X 2
     3 GLC5        1 GROUP        1 X    GLC  0     **** GLC X 6
     4 ALP1       19 GROUP        1 Y    ALP  0     ROOT ALP Y 8
     5 SEP2        8 GROUP        1 Y    SEP  0     **** SEP Y 9
     6 GLP5        3 GROUP        1 Y    GLP  0     **** GLP Y 13
     7 ALL1       18 GROUP        1 Z    ALL  0     ROOT ALL Z 15
     8 SEL2        7 GROUP        1 Z    SEL  0     **** SEL Z 16
     9 GLL5        2 GROUP        1 Z    GLL  0     **** GLL Z 20
@<TRIPOS>SET

