#    Name: 3bs4_ASN_ILE_PHE_1_ligand
#    Modification time : Mon Mar 24 20:00:46 2014

@<TRIPOS>MOLECULE
3bs4_ASN_ILE_PHE_1_ligand
   57    57     3     0     0
SMALL
NO_CHARGES


@<TRIPOS>ATOM
      1 N          17.7360   32.0680   -0.6070 N.4       1 ASN1        0.0000
      2 CA         17.5630   31.5140    0.7610 C.3       1 ASN1        0.0000
      3 C          18.8430   31.5730    1.5580 C.2       1 ASN1        0.0000
      4 O          18.8030   31.4260    2.7800 O.2       1 ASN1        0.0000
      5 CB         17.1100   30.0650    0.7260 C.3       1 ASN1        0.0000
      6 CG         15.7450   29.8920    0.1170 C.2       1 ASN1        0.0000
      7 OD1        15.4170   28.8050   -0.3550 O.2       1 ASN1        0.0000
      8 ND2        14.9440   30.9360    0.1340 N.am      1 ASN1        0.0000
      9 HA         16.8064   32.0834    1.2973 H         1 ASN1        0.0000
     10 HB2        17.1059   29.6680    1.7533 H         1 ASN1        0.0000
     11 HB3        17.8438   29.4759    0.1538 H         1 ASN1        0.0000
     12 HD21       14.0385   30.8025   -0.2688 H         1 ASN1        0.0000
     13 HD22       15.3138   31.7677    0.5482 H         1 ASN1        0.0000
     14 HNCA       18.0252   33.0250   -0.5863 H         1 ASN1        0.0000
     15 H          18.4259   31.5645   -1.1271 H         1 ASN1        0.0000
     16 H          16.8866   32.0298   -1.1333 H         1 ASN1        0.0000
     17 N          19.9750   31.7550    0.8630 N.am      2 ILE2        0.0000
     18 CA         21.2680   31.8470    1.5140 C.3       2 ILE2        0.0000
     19 C          22.0750   33.0340    0.9800 C.2       2 ILE2        0.0000
     20 O          22.0920   33.2950   -0.2320 O.2       2 ILE2        0.0000
     21 CB         22.0260   30.4930    1.3710 C.3       2 ILE2        0.0000
     22 CG1        21.4330   29.4610    2.3620 C.3       2 ILE2        0.0000
     23 CG2        23.5470   30.6420    1.4930 C.3       2 ILE2        0.0000
     24 CD1        22.2510   28.1870    2.5920 C.3       2 ILE2        0.0000
     25 HNCA       19.9755   31.8383   -0.1749 H         2 ILE2        0.0000
     26 HA         21.1187   32.0062    2.5943 H         2 ILE2        0.0000
     27 HB         21.8000   30.1178    0.3520 H         2 ILE2        0.0000
     28 HG12       20.4204   29.1777    2.0029 H         2 ILE2        0.0000
     29 HG13       21.2761   29.9682    3.3381 H         2 ILE2        0.0000
     30 HG21       24.0148   29.7630    1.4013 H         2 ILE2        0.0000
     31 HG22       23.9186   31.2467    0.7886 H         2 ILE2        0.0000
     32 HG23       23.8129   31.0246    2.3778 H         2 ILE2        0.0000
     33 HD11       23.1598   28.3899    2.9566 H         2 ILE2        0.0000
     34 HD12       21.8051   27.5717    3.2420 H         2 ILE2        0.0000
     35 HD13       22.3832   27.6725    1.7448 H         2 ILE2        0.0000
     36 N          22.6830   33.7720    1.9090 N.am      3 PHE3        0.0000
     37 CA         23.7380   34.7390    1.5790 C.3       3 PHE3        0.0000
     38 C          25.1210   34.1170    1.7990 C.2       3 PHE3        0.0000
     39 O          26.1060   34.3980    1.0940 O.2       3 PHE3        0.0000
     40 CB         23.5490   36.0230    2.4020 C.3       3 PHE3        0.0000
     41 CG         22.6950   37.0370    1.7130 C.ar      3 PHE3        0.0000
     42 CD1        21.3150   36.9920    1.8270 C.ar      3 PHE3        0.0000
     43 CD2        23.2720   38.0100    0.9020 C.ar      3 PHE3        0.0000
     44 CE1        20.5130   37.9150    1.1620 C.ar      3 PHE3        0.0000
     45 CE2        22.4870   38.9460    0.2360 C.ar      3 PHE3        0.0000
     46 CZ         21.1010   38.8950    0.3660 C.ar      3 PHE3        0.0000
     47 OXT        25.3070   33.2800    2.6830 O.3       3 PHE3        0.0000
     48 HNCA       22.4418   33.7022    2.9218 H         3 PHE3        0.0000
     49 HA         23.6586   35.0106    0.5229 H         3 PHE3        0.0000
     50 HB2        24.5426   36.4482    2.6114 H         3 PHE3        0.0000
     51 HB3        23.1014   35.7499    3.3700 H         3 PHE3        0.0000
     52 HD1        20.8718   36.2635    2.4137 H         3 PHE3        0.0000
     53 HD2        24.3009   38.0375    0.7928 H         3 PHE3        0.0000
     54 HE1        19.4923   37.8739    1.2576 H         3 PHE3        0.0000
     55 HE2        22.9239   39.6670   -0.3453 H         3 PHE3        0.0000
     56 HZ         20.5133   39.5796   -0.1248 H         3 PHE3        0.0000
     57 H          26.2209   32.9150    2.5055 H         3 PHE3        0.0000
@<TRIPOS>BOND
     1    2    1 1
     2   14    1 1
     3   15    1 1
     4   16    1 1
     5    3    2 1
     6    5    2 1
     7    9    2 1
     8    4    3 2
     9    6    5 1
    10   10    5 1
    11   11    5 1
    12    7    6 2
    13    8    6 am
    14   12    8 1
    15   13    8 1
    16   18   17 1
    17   25   17 1
    18   19   18 1
    19   21   18 1
    20   26   18 1
    21   20   19 2
    22   22   21 1
    23   23   21 1
    24   27   21 1
    25   24   22 1
    26   28   22 1
    27   29   22 1
    28   30   23 1
    29   31   23 1
    30   32   23 1
    31   33   24 1
    32   34   24 1
    33   35   24 1
    34   37   36 1
    35   48   36 1
    36   38   37 1
    37   40   37 1
    38   49   37 1
    39   39   38 2
    40   47   38 1
    41   41   40 1
    42   50   40 1
    43   51   40 1
    44   42   41 ar
    45   43   41 ar
    46   44   42 ar
    47   52   42 1
    48   45   43 ar
    49   53   43 1
    50   46   44 ar
    51   54   44 1
    52   46   45 ar
    53   55   45 1
    54   56   46 1
    55   57   47 1
    56   17    3 am
    57   36   19 am
@<TRIPOS>SUBSTRUCTURE
     1 ASN1        1 RESIDUE
     2 ILE2       17 RESIDUE
     3 PHE3       36 RESIDUE
@<TRIPOS>SET

