#    Name: 3FRC_2_CAVITY_N1_ALL.mol2
#    Modification time : Mon Mar 10 17:02:13 2014

@<TRIPOS>MOLECULE
3FRC_2_CAVITY_N1_ALL.mol2
  153     0     7     0     0
SMALL
NO_CHARGES


@<TRIPOS>ATOM
      1 CZ         -4.1216   -3.9423  -23.9932 C.ar      5 PHE5        0.0000 
      2 CZ         -4.9942   -4.9824  -24.6310 C.ar      5 PHE5        0.0000 
      3 N          -1.5246   -3.9152  -24.0628 N.2       2 ALA2        0.0000 
      4 CZ         -2.3569   -3.9811  -22.8166 C.ar      5 PHE5        0.0000 
      5 DU         -2.3972   -4.9553  -24.7006 H         7 CUB7        0.0000 
      6 CZ         -3.2295   -5.0211  -23.4544 C.ar      5 PHE5        0.0000 
      7 CZ         -4.0618   -5.0870  -22.2083 C.ar      5 PHE5        0.0000 
      8 CZ         -4.1021   -6.0612  -24.0922 C.ar      5 PHE5        0.0000 
      9 CZ         -4.9344   -6.1271  -22.8461 C.ar      5 PHE5        0.0000 
     10 CA         -0.6325   -4.9940  -23.5240 C.3       6 GLY6        0.0000 
     11 O          -1.4648   -5.0599  -22.2778 O.2       2 ALA2        0.0000 
     12 CA         -1.5051   -6.0341  -24.1617 C.3       6 GLY6        0.0000 
     13 N          -2.3374   -6.1000  -22.9156 N.2       2 ALA2        0.0000 
     14 N          -3.1697   -6.1658  -21.6694 N.2       2 ALA2        0.0000 
     15 DU         -3.2100   -7.1401  -23.5534 H         7 CUB7        0.0000 
     16 N          -4.0423   -7.2059  -22.3072 N.2       2 ALA2        0.0000 
     17 DU         -4.0826   -8.1802  -24.1912 H         7 CUB7        0.0000 
     18 OG         -4.9149   -8.2460  -22.9450 O.2       1 SER1        0.0000 
     19 DU         -4.9552   -9.2202  -24.8290 H         7 CUB7        0.0000 
     20 OG         -5.7875   -9.2861  -23.5828 O.2       1 SER1        0.0000 
     21 CA         -6.6601  -10.3262  -24.2206 C.3       6 GLY6        0.0000 
     22 CA         -8.3651  -11.4321  -23.6123 C.3       6 GLY6        0.0000 
     23 CA         -0.6130   -7.1129  -23.6229 C.3       6 GLY6        0.0000 
     24 N          -1.4453   -7.1788  -22.3768 N.2       2 ALA2        0.0000 
     25 DU         -1.4856   -8.1530  -24.2607 H         7 CUB7        0.0000 
     26 DU         -2.3179   -8.2189  -23.0146 H         7 CUB7        0.0000 
     27 N          -3.1503   -8.2848  -21.7684 N.2       2 ALA2        0.0000 
     28 DU         -3.1905   -9.2590  -23.6524 H         7 CUB7        0.0000 
     29 OG         -4.0229   -9.3248  -22.4062 O.2       1 SER1        0.0000 
     30 DU         -4.0631  -10.2991  -24.2902 H         7 CUB7        0.0000 
     31 OG         -4.8955  -10.3649  -23.0440 O.2       1 SER1        0.0000 
     32 CZ         -4.9357  -11.3392  -24.9279 C.ar      5 PHE5        0.0000 
     33 CA         -5.7681  -11.4050  -23.6818 C.3       6 GLY6        0.0000 
     34 OG         -6.6004  -11.4709  -22.4356 O.2       1 SER1        0.0000 
     35 O           0.2791   -8.1918  -23.0841 O.2       2 ALA2        0.0000 
     36 N          -0.5533   -8.2576  -21.8380 N.2       2 ALA2        0.0000 
     37 O           0.2388   -9.1660  -24.9681 O.2       2 ALA2        0.0000 
     38 O          -0.5935   -9.2319  -23.7219 O.2       2 ALA2        0.0000 
     39 CA         -1.4259   -9.2977  -22.4758 C.3       6 GLY6        0.0000 
     40 CA         -2.2582   -9.3636  -21.2296 C.3       6 GLY6        0.0000 
     41 DU          0.1985  -10.1402  -26.8520 H         7 CUB7        0.0000 
     42 DU         -0.6338  -10.2061  -25.6059 H         7 CUB7        0.0000 
     43 DU         -1.4661  -10.2720  -24.3597 H         7 CUB7        0.0000 
     44 CA         -2.2985  -10.3378  -23.1135 C.3       6 GLY6        0.0000 
     45 DU         -0.6741  -11.1803  -27.4898 H         7 CUB7        0.0000 
     46 DU         -2.3387  -11.3120  -24.9975 H         7 CUB7        0.0000 
     47 OD1        -3.1711  -11.3779  -23.7513 O.3       3 ASP3        0.0000 
     48 CA         -4.0034  -11.4438  -22.5052 C.3       6 GLY6        0.0000 
     49 DU         -2.3790  -12.2863  -26.8814 H         7 CUB7        0.0000 
     50 DU         -3.2113  -12.3521  -25.6353 H         7 CUB7        0.0000 
     51 OD1        -4.0437  -12.4180  -24.3891 O.3       3 ASP3        0.0000 
     52 OD1        -4.8760  -12.4839  -23.1430 O.3       3 ASP3        0.0000 
     53 CA         -5.7083  -12.5497  -21.8968 C.3       6 GLY6        0.0000 
     54 CZ         -4.0839  -13.3922  -26.2731 C.ar      5 PHE5        0.0000 
     55 CA         -4.9163  -13.4581  -25.0269 C.3       6 GLY6        0.0000 
     56 CA         -5.7486  -13.5239  -23.7808 C.3       6 GLY6        0.0000 
     57 CA         -6.5809  -13.5898  -22.5346 C.3       6 GLY6        0.0000 
     58 N          -4.1242  -14.3665  -28.1570 N.2       2 ALA2        0.0000 
     59 CZ         -4.9565  -14.4323  -26.9109 C.ar      5 PHE5        0.0000 
     60 N           1.2517   -7.3221  -18.7774 N.2       2 ALA2        0.0000 
     61 N           1.2114   -8.2964  -20.6614 N.2       2 ALA2        0.0000 
     62 N           0.3791   -8.3622  -19.4152 N.2       2 ALA2        0.0000 
     63 O           1.1712   -9.2706  -22.5453 O.2       2 ALA2        0.0000 
     64 N           0.3388   -9.3365  -21.2991 N.2       2 ALA2        0.0000 
     65 N          -0.4935   -9.4023  -20.0530 N.2       2 ALA2        0.0000 
     66 CA          2.7955  -10.1131  -26.9215 C.3       6 GLY6        0.0000 
     67 O           1.9632  -10.1790  -25.6754 O.2       2 ALA2        0.0000 
     68 O           1.1309  -10.2448  -24.4292 O.2       2 ALA2        0.0000 
     69 O           0.2986  -10.3107  -23.1831 O.2       2 ALA2        0.0000 
     70 OD1        -0.5338  -10.3766  -21.9369 O.3       3 ASP3        0.0000 
     71 OD1         1.9229  -11.1532  -27.5593 O.3       3 ASP3        0.0000 
     72 DU          1.0906  -11.2191  -26.3132 H         7 CUB7        0.0000 
     73 DU          0.2583  -11.2849  -25.0670 H         7 CUB7        0.0000 
     74 OD1        -0.5740  -11.3508  -23.8209 O.3       3 ASP3        0.0000 
     75 DU          0.2180  -12.2592  -26.9510 H         7 CUB7        0.0000 
     76 DU         -0.6143  -12.3250  -25.7048 H         7 CUB7        0.0000 
     77 OD1        -1.4466  -12.3909  -24.4587 O.3       3 ASP3        0.0000 
     78 CZ          0.1777  -13.2334  -28.8349 C.ar      5 PHE5        0.0000 
     79 DU         -0.6546  -13.2992  -27.5888 H         7 CUB7        0.0000 
     80 DU         -1.4869  -13.3651  -26.3426 H         7 CUB7        0.0000 
     81 OD1        -2.3192  -13.4310  -25.0965 O.3       3 ASP3        0.0000 
     82 CA         -4.8162  -13.6285  -21.3580 C.3       6 GLY6        0.0000 
     83 N          -2.3595  -14.4052  -26.9804 N.2       2 ALA2        0.0000 
     84 CA         -3.1918  -14.4711  -25.7343 C.3       6 GLY6        0.0000 
     85 O          -4.0242  -14.5369  -24.4881 O.2       2 ALA2        0.0000 
     86 CA         -4.0644  -15.5111  -26.3721 C.3       6 GLY6        0.0000 
     87 N           2.1035   -9.3752  -20.1225 N.2       2 ALA2        0.0000 
     88 O           1.2712   -9.4411  -18.8764 O.2       2 ALA2        0.0000 
     89 NZ          2.0632  -10.3494  -22.0065 N.2       4 LYS4        0.0000 
     90 N           1.2309  -10.4153  -20.7603 N.2       2 ALA2        0.0000 
     91 OG          0.3986  -10.4811  -19.5142 O.2       1 SER1        0.0000 
     92 CA          3.6876  -11.1919  -26.3827 C.3       6 GLY6        0.0000 
     93 NZ          2.8553  -11.2578  -25.1366 N.2       4 LYS4        0.0000 
     94 NZ          2.0230  -11.3237  -23.8904 N.2       4 LYS4        0.0000 
     95 NZ          1.1906  -11.3895  -22.6443 N.2       4 LYS4        0.0000 
     96 CA          0.3583  -11.4554  -21.3981 C.3       6 GLY6        0.0000 
     97 N           2.8150  -12.2320  -27.0205 N.2       2 ALA2        0.0000 
     98 NZ          1.9827  -12.2979  -25.7744 N.2       4 LYS4        0.0000 
     99 NZ          1.1504  -12.3638  -24.5282 N.2       4 LYS4        0.0000 
    100 OD1         0.3180  -12.4296  -23.2821 O.3       3 ASP3        0.0000 
    101 CZ          1.9424  -13.2721  -27.6583 C.ar      5 PHE5        0.0000 
    102 DU          1.1101  -13.3380  -26.4122 H         7 CUB7        0.0000 
    103 OD1         0.2778  -13.4038  -25.1660 O.3       3 ASP3        0.0000 
    104 CZ          0.2375  -14.3781  -27.0500 C.ar      5 PHE5        0.0000 
    105 DU         -0.5948  -14.4439  -25.8038 H         7 CUB7        0.0000 
    106 OD1        -1.4272  -14.5098  -24.5576 O.3       3 ASP3        0.0000 
    107 OG         -0.6351  -15.4182  -27.6877 O.2       1 SER1        0.0000 
    108 N          -1.4674  -15.4840  -26.4416 N.2       2 ALA2        0.0000 
    109 CZ         -2.2998  -15.5499  -25.1954 C.ar      5 PHE5        0.0000 
    110 N          -2.3400  -16.5241  -27.0794 N.2       2 ALA2        0.0000 
    111 N          -3.1724  -16.5900  -25.8332 N.2       2 ALA2        0.0000 
    112 N           2.1230  -11.4941  -20.2215 N.2       2 ALA2        0.0000 
    113 OG          1.2907  -11.5600  -18.9754 O.2       1 SER1        0.0000 
    114 NZ          2.0827  -12.4684  -22.1055 N.2       4 LYS4        0.0000 
    115 CA          1.2504  -12.5342  -20.8593 C.3       6 GLY6        0.0000 
    116 N           3.7071  -13.3109  -26.4817 N.2       2 ALA2        0.0000 
    117 NZ          2.8748  -13.3767  -25.2356 N.2       4 LYS4        0.0000 
    118 NZ          2.0424  -13.4426  -23.9894 N.2       4 LYS4        0.0000 
    119 OD1         1.2101  -13.5084  -22.7432 O.3       3 ASP3        0.0000 
    120 CZ          2.0022  -14.4168  -25.8733 C.ar      5 PHE5        0.0000 
    121 DU          1.1698  -14.4827  -24.6272 H         7 CUB7        0.0000 
    122 OD1         0.3375  -14.5485  -23.3810 O.3       3 ASP3        0.0000 
    123 CZ          1.1296  -15.4569  -26.5111 C.ar      5 PHE5        0.0000 
    124 CZ          0.2972  -15.5228  -25.2650 C.ar      5 PHE5        0.0000 
    125 CZ         -0.5351  -15.5886  -24.0188 C.ar      5 PHE5        0.0000 
    126 CZ          0.2570  -16.4970  -27.1489 C.ar      5 PHE5        0.0000 
    127 CZ         -0.5754  -16.5629  -25.9028 C.ar      5 PHE5        0.0000 
    128 OG         -0.6156  -17.5371  -27.7867 O.2       1 SER1        0.0000 
    129 CA         -1.4480  -17.6029  -26.5406 C.3       6 GLY6        0.0000 
    130 N           3.0151  -12.5730  -19.6827 N.2       2 ALA2        0.0000 
    131 OG          2.1827  -12.6388  -18.4365 O.2       1 SER1        0.0000 
    132 NZ          2.9748  -13.5472  -21.5666 N.2       4 LYS4        0.0000 
    133 OG          2.1425  -13.6130  -20.3205 O.2       1 SER1        0.0000 
    134 OG          1.3101  -13.6789  -19.0743 O.2       1 SER1        0.0000 
    135 NZ          3.7668  -14.4556  -24.6967 N.2       4 LYS4        0.0000 
    136 NZ          2.9345  -14.5214  -23.4506 N.2       4 LYS4        0.0000 
    137 OG          2.1022  -14.5873  -22.2044 O.2       1 SER1        0.0000 
    138 CZ          2.8942  -15.4956  -25.3345 C.ar      5 PHE5        0.0000 
    139 CZ          2.0619  -15.5615  -24.0884 C.ar      5 PHE5        0.0000 
    140 CZ          2.0216  -16.5357  -25.9723 C.ar      5 PHE5        0.0000 
    141 CZ          1.1893  -16.6016  -24.7262 C.ar      5 PHE5        0.0000 
    142 CZ          1.1490  -17.5758  -26.6101 C.ar      5 PHE5        0.0000 
    143 CA          0.2764  -18.6159  -27.2479 C.3       6 GLY6        0.0000 
    144 OG          0.2362  -19.5902  -29.1318 O.2       1 SER1        0.0000 
    145 CA         -0.5962  -19.6560  -27.8857 C.3       6 GLY6        0.0000 
    146 NZ          4.6992  -14.5602  -22.2740 N.2       4 LYS4        0.0000 
    147 N           4.6589  -15.5344  -24.1579 N.2       2 ALA2        0.0000 
    148 OG          3.8266  -15.6002  -22.9118 O.2       1 SER1        0.0000 
    149 CZ          3.7863  -16.5745  -24.7957 C.ar      5 PHE5        0.0000 
    150 CZ          2.9137  -17.6146  -25.4335 C.ar      5 PHE5        0.0000 
    151 CZ          2.0411  -18.6547  -26.0713 C.ar      5 PHE5        0.0000 
    152 CA          1.1685  -19.6947  -26.7091 C.3       6 GLY6        0.0000 
    153 CZ          1.1282  -20.6690  -28.5930 C.ar      5 PHE5        0.0000 
@<TRIPOS>BOND
@<TRIPOS>SUBSTRUCTURE
     1 SER1       18 GROUP   
     2 ALA2        3 GROUP   
     3 ASP3       47 GROUP   
     4 LYS4       89 GROUP   
     5 PHE5        1 GROUP   
     6 GLY6       10 GROUP   
     7 CUB7        5 GROUP   
@<TRIPOS>SET

