#    Name: 3frc_0HG_2_INTS_M
#    Modification time : Tue Mar 25 06:23:03 2014

@<TRIPOS>MOLECULE
3frc_0HG_2_INTS_M
   58     0    12     0     0
SMALL
NO_CHARGES


@<TRIPOS>ATOM
      1 OD1         3.6955  -10.6630  -21.8480 O.co2     3 ASC3        0.0000 
      2 OD1         2.7730  -11.2820  -20.9530 O.co2    11 ASL3        0.0000 
      3 OD1         4.6180  -10.0440  -22.7430 O.co2     7 ASP3        0.0000 
      4 OD1         3.6680  -11.7430  -22.0280 O.co2     3 ASC3        0.0000 
      5 OD1         4.5630  -12.2040  -23.1030 O.co2     7 ASP3        0.0000 
      6 O           3.6955  -10.6630  -21.8480 O.2       1 ALC1        0.0000 
      7 O           2.7730  -11.2820  -20.9530 O.2       9 ALL1        0.0000 
      8 O           4.6180  -10.0440  -22.7430 O.2       5 ALP1        0.0000 
      9 O           3.6680  -11.7430  -22.0280 O.2       1 ALC1        0.0000 
     10 O           4.5630  -12.2040  -23.1030 O.2       5 ALP1        0.0000 
     11 O           3.7245  -10.9130  -19.9515 O.2       1 ALC1        0.0000 
     12 O           4.6760  -10.5440  -18.9500 O.2       5 ALP1        0.0000 
     13 N           1.5485   -9.9255  -16.9875 N.am      2 SEC2        0.0000 
     14 N           1.2060   -9.5160  -18.3430 N.am     10 SEL2        0.0000 
     15 N           1.8910  -10.3350  -15.6320 N.am      6 SEP2        0.0000 
     16 CA         -0.3495  -11.8200  -20.9230 C.3       4 GLC5        0.0000 
     17 CA          0.7090  -10.1090  -21.4750 C.3      12 GLL5        0.0000 
     18 CA         -1.4080  -13.5310  -20.3710 C.3       8 GLP5        0.0000 
     19 CA         -1.6020  -10.2830  -20.5185 C.3       4 GLC5        0.0000 
     20 CA         -0.0570   -8.8250  -21.1970 C.3      12 GLL5        0.0000 
     21 CA         -3.1470  -11.7410  -19.8400 C.3       8 GLP5        0.0000 
     22 CA          0.6880   -7.0130  -21.3340 C.3       4 GLC5        0.0000 
     23 CA          1.4330   -5.2010  -21.4710 C.3       8 GLP5        0.0000 
     24 N           1.5550  -10.9875  -17.1990 N.am      2 SEC2        0.0000 
     25 N           1.2190  -11.6400  -18.7660 N.am     10 SEL2        0.0000 
     26 N           0.6770  -12.0175  -17.6975 N.am      2 SEC2        0.0000 
     27 N           0.1350  -12.3950  -16.6290 N.am      6 SEP2        0.0000 
     28 N          -1.5215   -4.4235  -21.1235 N.am      2 SEC2        0.0000 
     29 N          -2.1180   -4.7120  -22.4350 N.am     10 SEL2        0.0000 
     30 N          -0.9250   -4.1350  -19.8120 N.am      6 SEP2        0.0000 
     31 O          -1.7305   -7.0405  -20.7595 O.2       1 ALC1        0.0000 
     32 O          -1.7720   -7.4490  -22.1280 O.2       9 ALL1        0.0000 
     33 O          -1.6890   -6.6320  -19.3910 O.2       5 ALP1        0.0000 
     34 CA         -4.7495   -7.2335  -20.6555 C.3       4 GLC5        0.0000 
     35 CA         -4.0890   -6.9750  -22.5550 C.3      12 GLL5        0.0000 
     36 CA         -5.4100   -7.4920  -18.7560 C.3       8 GLP5        0.0000 
     37 CA         -3.9365   -5.4210  -21.0420 C.3       4 GLC5        0.0000 
     38 CA         -3.7840   -3.8670  -19.5290 C.3       8 GLP5        0.0000 
     39 CA         -7.1090  -12.7095  -20.5960 C.3       4 GLC5        0.0000 
     40 CA         -6.0480  -13.1670  -22.3170 C.3      12 GLL5        0.0000 
     41 CA         -8.1700  -12.2520  -18.8750 C.3       8 GLP5        0.0000 
     42 CA         -6.0650  -14.9400  -23.5210 C.3       4 GLC5        0.0000 
     43 CA         -6.0820  -16.7130  -24.7250 C.3       8 GLP5        0.0000 
     44 CA         -3.8565  -11.4675  -21.7760 C.3       4 GLC5        0.0000 
     45 CA         -4.5660  -11.1940  -23.7120 C.3      12 GLL5        0.0000 
     46 CA         -2.2620   -2.1330  -24.5615 C.3       4 GLC5        0.0000 
     47 CA         -1.6550   -3.8020  -25.0620 C.3      12 GLL5        0.0000 
     48 CA         -2.8690   -0.4640  -24.0610 C.3       8 GLP5        0.0000 
     49 CA         -0.3850   -3.7835  -23.2100 C.3       4 GLC5        0.0000 
     50 CA          0.8850   -3.7650  -21.3580 C.3       8 GLP5        0.0000 
     51 CA         -5.3870   -5.1795  -22.6935 C.3       4 GLC5        0.0000 
     52 CA         -6.0820   -3.5880  -22.2130 C.3       8 GLP5        0.0000 
     53 CA         -4.5388  -12.0410  -21.2937 C.3       4 GLC5        0.0000 
     54 CA         -5.8130  -11.5150  -23.1780 C.3      12 GLL5        0.0000 
     55 CA         -7.0563  -12.8945  -23.9887 C.3       4 GLC5        0.0000 
     56 CA         -8.1820  -13.4480  -25.2300 C.3       8 GLP5        0.0000 
     57 CA         -7.4930  -11.7390  -24.4047 C.3       4 GLC5        0.0000 
     58 CA         -6.8900  -10.6410  -23.2630 C.3      12 GLL5        0.0000 
@<TRIPOS>BOND
@<TRIPOS>SUBSTRUCTURE
     1 ALC1        6 GROUP        1 X    ALC  0     ROOT ALC X 1
     2 SEC2       13 GROUP        1 X    SEC  0     **** SEC X 2
     3 ASC3        1 GROUP        1 X    ASC  0     **** ASC X 3
     4 GLC5       16 GROUP        1 X    GLC  0     **** GLC X 6
     5 ALP1        8 GROUP        1 Y    ALP  0     ROOT ALP Y 8
     6 SEP2       15 GROUP        1 Y    SEP  0     **** SEP Y 9
     7 ASP3        3 GROUP        1 Y    ASP  0     **** ASP Y 10
     8 GLP5       18 GROUP        1 Y    GLP  0     **** GLP Y 13
     9 ALL1        7 GROUP        1 Z    ALL  0     ROOT ALL Z 15
    10 SEL2       14 GROUP        1 Z    SEL  0     **** SEL Z 16
    11 ASL3        2 GROUP        1 Z    ASL  0     **** ASL Z 17
    12 GLL5       17 GROUP        1 Z    GLL  0     **** GLL Z 20
@<TRIPOS>SET

