#    Name: 3frc_0HG_2_ligand
#    Modification time : Tue Mar 25 06:23:03 2014

@<TRIPOS>MOLECULE
3frc_0HG_2_ligand
   49    49     1     0     0
SMALL
NO_CHARGES


@<TRIPOS>ATOM
      1 N           2.7730  -11.2820  -20.9530 N.4       1 0HG212      0.0000 
      2 CA          1.8910  -10.2120  -20.5170 C.3       1 0HG212      0.0000 
      3 C           1.4070  -10.4720  -19.1190 C.2       1 0HG212      0.0000 
      4 O           1.2060   -9.5160  -18.3430 O.co2     1 0HG212      0.0000 
      5 CB          0.7090  -10.1090  -21.4750 C.3       1 0HG212      0.0000 
      6 CG         -0.0570   -8.8250  -21.1970 C.3       1 0HG212      0.0000 
      7 CD         -0.9120   -8.4310  -22.3730 C.2       1 0HG212      0.0000 
      8 OE1        -0.7970   -8.9970  -23.4500 O.2       1 0HG212      0.0000 
      9 OXT         1.2190  -11.6400  -18.7660 O.co2     1 0HG212      0.0000 
     10 CA1        -2.6730   -6.9060  -23.1300 C.3       1 0HG212      0.0000 
     11 C1         -2.2670   -5.4860  -23.3710 C.2       1 0HG212      0.0000 
     12 O1         -2.1180   -4.7120  -22.4350 O.2       1 0HG212      0.0000 
     13 N1         -1.7720   -7.4490  -22.1280 N.am      1 0HG212      0.0000 
     14 CB1        -4.0890   -6.9750  -22.5550 C.3       1 0HG212      0.0000 
     15 SG         -5.2950   -6.5670  -23.7930 S.3       1 0HG212      0.0000 
     16 BR         -6.0480  -13.1670  -22.3170 Br        1 0HG212      0.0000 
     17 C11        -5.4750   -9.0940  -24.4380 C.ar      1 0HG212      0.0000 
     18 C2         -4.3950   -9.9700  -24.3460 C.ar      1 0HG212      0.0000 
     19 C3         -4.5660  -11.1940  -23.7120 C.ar      1 0HG212      0.0000 
     20 C4         -5.8130  -11.5150  -23.1780 C.ar      1 0HG212      0.0000 
     21 C5         -6.8900  -10.6410  -23.2630 C.ar      1 0HG212      0.0000 
     22 C6         -6.7180   -9.4190  -23.8960 C.ar      1 0HG212      0.0000 
     23 C7         -5.2960   -7.7570  -25.1010 C.3       1 0HG212      0.0000 
     24 N2         -2.0640   -5.1320  -24.6350 N.am      1 0HG212      0.0000 
     25 CA2        -1.6550   -3.8020  -25.0620 C.3       1 0HG212      0.0000 
     26 C8         -1.7190   -3.6630  -26.5600 C.2       1 0HG212      0.0000 
     27 O2         -1.2310   -2.6250  -27.0560 O.co2     1 0HG212      0.0000 
     28 OXT1       -2.2570   -4.5710  -27.2390 O.co2     1 0HG212      0.0000 
     29 H           2.4165   -9.2653  -20.5346 H         1 0HG212      0.0000 
     30 H           0.0538  -10.9603  -21.3300 H         1 0HG212      0.0000 
     31 H           1.0737  -10.0995  -22.4957 H         1 0HG212      0.0000 
     32 H           0.6559   -8.0247  -20.9769 H         1 0HG212      0.0000 
     33 H          -0.6891   -8.9702  -20.3158 H         1 0HG212      0.0000 
     34 H          -2.6277   -7.4633  -24.0249 H         1 0HG212      0.0000 
     35 H          -1.8438   -7.0067  -21.1741 H         1 0HG212      0.0000 
     36 H          -4.2655   -6.2512  -21.7913 H         1 0HG212      0.0000 
     37 H          -4.3696   -7.9589  -22.2526 H         1 0HG212      0.0000 
     38 H          -3.4876   -9.7126  -24.7415 H         1 0HG212      0.0000 
     39 H          -3.7881  -11.8531  -23.6367 H         1 0HG212      0.0000 
     40 H          -7.7962  -10.8964  -22.8640 H         1 0HG212      0.0000 
     41 H          -7.4974   -8.7568  -23.9667 H         1 0HG212      0.0000 
     42 H          -4.3539   -7.6261  -25.5467 H         1 0HG212      0.0000 
     43 H          -6.1123   -7.4634  -25.6934 H         1 0HG212      0.0000 
     44 H          -2.1954   -5.8287  -25.4241 H         1 0HG212      0.0000 
     45 H          -0.6250   -3.5896  -24.7338 H         1 0HG212      0.0000 
     46 H          -2.3031   -3.0340  -24.6106 H         1 0HG212      0.0000 
     47 H           2.3112  -12.1690  -20.9485 H         1 0HG212      0.0000 
     48 H           3.1087  -11.1310  -21.8828 H         1 0HG212      0.0000 
     49 H           3.5752  -11.3661  -20.3618 H         1 0HG212      0.0000 
@<TRIPOS>BOND
     1    2    1 1    
     2   47    1 1    
     3   48    1 1    
     4   49    1 1    
     5    3    2 1    
     6    5    2 1    
     7   29    2 1    
     8    4    3 ar   
     9    9    3 ar   
    10    6    5 1    
    11   30    5 1    
    12   31    5 1    
    13    7    6 1    
    14   32    6 1    
    15   33    6 1    
    16    8    7 2    
    17   13    7 am   
    18   11   10 1    
    19   13   10 1    
    20   14   10 1    
    21   34   10 1    
    22   12   11 2    
    23   24   11 am   
    24   35   13 1    
    25   15   14 1    
    26   36   14 1    
    27   37   14 1    
    28   23   15 1    
    29   20   16 1    
    30   18   17 ar   
    31   22   17 ar   
    32   23   17 1    
    33   19   18 ar   
    34   38   18 1    
    35   20   19 ar   
    36   39   19 1    
    37   21   20 ar   
    38   22   21 ar   
    39   40   21 1    
    40   41   22 1    
    41   42   23 1    
    42   43   23 1    
    43   25   24 1    
    44   44   24 1    
    45   26   25 1    
    46   45   25 1    
    47   46   25 1    
    48   27   26 ar   
    49   28   26 ar   
@<TRIPOS>SUBSTRUCTURE
     1 0HG212      1 GROUP   
@<TRIPOS>SET

