#    Name: 3ubm_COA_3_INTS_M
#    Modification time : Mon Mar 24 22:08:30 2014

@<TRIPOS>MOLECULE
3ubm_COA_3_INTS_M
  106     0    12     0     0
SMALL
NO_CHARGES


@<TRIPOS>ATOM
      1 N           0.6420   20.8170  101.7220 N.am      2 SEC2        0.0000 
      2 N          -0.8050   20.5890  101.1200 N.am     10 SEL2        0.0000 
      3 N           2.0890   21.0450  102.3240 N.am      6 SEP2        0.0000 
      4 CA          0.4740   21.7080  100.8880 C.3       4 GLC5        0.0000 
      5 CA         -0.5310   20.0710   99.9220 C.3      12 GLL5        0.0000 
      6 CA          1.4790   23.3450  101.8540 C.3       8 GLP5        0.0000 
      7 CA          0.9500   19.0715   98.9340 C.3       4 GLC5        0.0000 
      8 CA          2.4310   18.0720   97.9460 C.3       8 GLP5        0.0000 
      9 CA          0.2870   19.4230  102.7770 C.3       4 GLC5        0.0000 
     10 CA         -1.6200   19.9300  101.9780 C.3      12 GLL5        0.0000 
     11 CA          2.1940   18.9160  103.5760 C.3       8 GLP5        0.0000 
     12 O          -1.2300   21.6430  103.4900 O.2       1 ALC1        0.0000 
     13 O          -1.9220   20.4760  103.2840 O.2       9 ALL1        0.0000 
     14 O          -0.5380   22.8100  103.6960 O.2       5 ALP1        0.0000 
     15 CA         -0.7490   16.4815   97.7235 C.3       4 GLC5        0.0000 
     16 CA         -2.4390   16.2420   99.0730 C.3      12 GLL5        0.0000 
     17 CA          0.9410   16.7210   96.3740 C.3       8 GLP5        0.0000 
     18 CA         -3.6660   13.4310  100.5505 C.3       4 GLC5        0.0000 
     19 CA         -2.4030   14.7620   99.2910 C.3      12 GLL5        0.0000 
     20 CA         -4.9290   12.1000  101.8100 C.3       8 GLP5        0.0000 
     21 NZ          0.3510   14.7265   95.5275 N.4       3 LYC4        0.0000 
     22 NZ          0.3490   12.8100   96.0620 N.4      11 LYL4        0.0000 
     23 NZ          0.3530   16.6430   94.9930 N.4       7 LYP4        0.0000 
     24 NZ          0.6710   11.4180   95.7445 N.4       3 LYC4        0.0000 
     25 NZ          0.0930    9.0660   95.6560 N.4       7 LYP4        0.0000 
     26 N           0.6710   11.4180   95.7445 N.am      2 SEC2        0.0000 
     27 N           0.3490   12.8100   96.0620 N.am     10 SEL2        0.0000 
     28 N           0.9930   10.0260   95.4270 N.am      6 SEP2        0.0000 
     29 NZ         -0.5055   15.3220   94.8555 N.4       3 LYC4        0.0000 
     30 NZ         -1.3640   14.0010   94.7180 N.4      11 LYL4        0.0000 
     31 NZ         -2.5570   13.5940   93.9760 N.4       3 LYC4        0.0000 
     32 NZ         -4.7420   12.4450   93.7060 N.4       7 LYP4        0.0000 
     33 N          -0.5055   15.3220   94.8555 N.am      2 SEC2        0.0000 
     34 N          -1.3640   14.0010   94.7180 N.am     10 SEL2        0.0000 
     35 N           0.3530   16.6430   94.9930 N.am      6 SEP2        0.0000 
     36 N          -2.5570   13.5940   93.9760 N.am      2 SEC2        0.0000 
     37 N          -3.7500   13.1870   93.2340 N.am      6 SEP2        0.0000 
     38 NZ         -3.2735   11.8670   95.4285 N.4       3 LYC4        0.0000 
     39 NZ         -1.9830   12.0250   96.0580 N.4      11 LYL4        0.0000 
     40 NZ         -1.5495   10.7025   96.0800 N.4       3 LYC4        0.0000 
     41 N          -3.2735   11.8670   95.4285 N.am      2 SEC2        0.0000 
     42 N          -1.9830   12.0250   96.0580 N.am     10 SEL2        0.0000 
     43 N          -4.5640   11.7090   94.7990 N.am      6 SEP2        0.0000 
     44 N          -1.5495   10.7025   96.0800 N.am      2 SEC2        0.0000 
     45 N          -1.1160    9.3800   96.1020 N.am      6 SEP2        0.0000 
     46 CA         -5.1955   12.8795   96.1975 C.3       4 GLC5        0.0000 
     47 CA         -4.8010   14.8970   96.9960 C.3      12 GLL5        0.0000 
     48 CA         -5.5900   10.8620   95.3990 C.3       8 GLP5        0.0000 
     49 NZ         -7.2270   16.2470   99.2990 N.4       3 LYC4        0.0000 
     50 NZ         -7.7380   15.0670   98.6010 N.4      11 LYL4        0.0000 
     51 NZ         -6.6420   18.5710   99.3240 N.4       7 LYP4        0.0000 
     52 N          -7.2270   16.2470   99.2990 N.am      2 SEC2        0.0000 
     53 N          -7.7380   15.0670   98.6010 N.am     10 SEL2        0.0000 
     54 N          -6.7160   17.4270   99.9970 N.am      6 SEP2        0.0000 
     55 N          -6.6305   11.3630   99.3390 N.am      2 SEC2        0.0000 
     56 N          -7.2350   12.6660   99.0090 N.am     10 SEL2        0.0000 
     57 N          -6.0260   10.0600   99.6690 N.am      6 SEP2        0.0000 
     58 NZ         -6.6185   12.7345   94.1180 N.4       3 LYC4        0.0000 
     59 NZ         -8.4950   13.0240   94.5300 N.4      11 LYL4        0.0000 
     60 CA        -13.2180   10.0550   95.7860 C.3       4 GLC5        0.0000 
     61 CA        -11.4340   10.1550   97.0070 C.3      12 GLL5        0.0000 
     62 CA        -15.0020    9.9550   94.5650 C.3       8 GLP5        0.0000 
     63 CA         -7.9460    9.8295   98.0455 C.3       4 GLC5        0.0000 
     64 CA         -9.6570   10.3090   98.7890 C.3      12 GLL5        0.0000 
     65 CA         -6.2350    9.3500   97.3020 C.3       8 GLP5        0.0000 
     66 O          -9.1345    9.7000  101.9220 O.2       1 ALC1        0.0000 
     67 O          -9.7140    9.0250  100.9930 O.2       9 ALL1        0.0000 
     68 O          -8.5550   10.3750  102.8510 O.2       5 ALP1        0.0000 
     69 CA         -9.4340    8.7525  103.6015 C.3       4 GLC5        0.0000 
     70 CA         -9.6900    7.7660  101.7240 C.3      12 GLL5        0.0000 
     71 CA         -9.1780    9.7390  105.4790 C.3       8 GLP5        0.0000 
     72 CA        -10.9695    6.5190  104.0615 C.3       4 GLC5        0.0000 
     73 CA        -11.0450    7.1480  102.0440 C.3      12 GLL5        0.0000 
     74 CA        -10.8940    5.8900  106.0790 C.3       8 GLP5        0.0000 
     75 CA        -11.8995    6.0730  100.4230 C.3       4 GLC5        0.0000 
     76 CA        -12.7540    4.9980   98.8020 C.3       8 GLP5        0.0000 
     77 CA        -12.4825    6.2445  102.2495 C.3       4 GLC5        0.0000 
     78 CA        -13.9200    5.3410  102.4550 C.3       8 GLP5        0.0000 
     79 N         -11.5615    9.8020  104.5725 N.am      2 SEC2        0.0000 
     80 N         -11.9380    8.5130  103.7770 N.am     10 SEL2        0.0000 
     81 N         -11.1850   11.0910  105.3680 N.am      6 SEP2        0.0000 
     82 O         -13.6180    8.0475  100.3760 O.2       1 ALC1        0.0000 
     83 O         -12.9450    8.8500  101.7330 O.2       9 ALL1        0.0000 
     84 O         -14.2910    7.2450   99.0190 O.2       5 ALP1        0.0000 
     85 CA        -13.7850   12.0045  102.3190 C.3       4 GLC5        0.0000 
     86 CA        -13.7370    9.9980  102.2240 C.3      12 GLL5        0.0000 
     87 CA        -13.8330   14.0110  102.4140 C.3       8 GLP5        0.0000 
     88 CA        -15.6480   11.9285  102.2725 C.3       4 GLC5        0.0000 
     89 CA        -15.0820   10.1750  101.5440 C.3      12 GLL5        0.0000 
     90 CA        -16.2140   13.6820  103.0010 C.3       8 GLP5        0.0000 
     91 CA        -16.4410    8.0975   99.6915 C.3       4 GLC5        0.0000 
     92 CA        -16.1050    8.7110  101.5890 C.3      12 GLL5        0.0000 
     93 CA        -16.7770    7.4840   97.7940 C.3       8 GLP5        0.0000 
     94 CA        -17.8170    7.7450  100.9630 C.3       4 GLC5        0.0000 
     95 CA        -19.5290    6.7790  100.3370 C.3       8 GLP5        0.0000 
     96 CA        -17.0680    8.9315  103.4880 C.3       4 GLC5        0.0000 
     97 CA        -18.0310    9.1520  105.3870 C.3       8 GLP5        0.0000 
     98 CA        -15.8870    7.0790  101.8710 C.3       4 GLC5        0.0000 
     99 CA        -15.6690    5.4470  102.1530 C.3       8 GLP5        0.0000 
    100 CA         -3.2225   20.6058  101.3645 C.3       4 GLC5        0.0000 
    101 CA         -2.1780   18.7050  101.6120 C.3      12 GLL5        0.0000 
    102 CA         -4.5460   21.8940  100.9340 C.3       8 GLP5        0.0000 
    103 CA         -2.1277   12.7487   99.0955 C.3       4 GLC5        0.0000 
    104 CA         -1.7330   10.9670   99.5650 C.3       8 GLP5        0.0000 
    105 CA         -9.5252    5.7685  102.4810 C.3       4 GLC5        0.0000 
    106 CA         -8.6830    4.0800  103.0780 C.3       8 GLP5        0.0000 
@<TRIPOS>BOND
@<TRIPOS>SUBSTRUCTURE
     1 ALC1       12 GROUP        1 X    ALC  0     ROOT ALC X 1
     2 SEC2        1 GROUP        1 X    SEC  0     **** SEC X 2
     3 LYC4       21 GROUP        1 X    LYC  0     **** LYC X 4
     4 GLC5        4 GROUP        1 X    GLC  0     **** GLC X 6
     5 ALP1       14 GROUP        1 Y    ALP  0     ROOT ALP Y 8
     6 SEP2        3 GROUP        1 Y    SEP  0     **** SEP Y 9
     7 LYP4       23 GROUP        1 Y    LYP  0     **** LYP Y 11
     8 GLP5        6 GROUP        1 Y    GLP  0     **** GLP Y 13
     9 ALL1       13 GROUP        1 Z    ALL  0     ROOT ALL Z 15
    10 SEL2        2 GROUP        1 Z    SEL  0     **** SEL Z 16
    11 LYL4       22 GROUP        1 Z    LYL  0     **** LYL Z 18
    12 GLL5        5 GROUP        1 Z    GLL  0     **** GLL Z 20
@<TRIPOS>SET

