#    Name: 3ubm_COA_3_ligand
#    Modification time : Mon Mar 24 22:08:30 2014

@<TRIPOS>MOLECULE
3ubm_COA_3_ligand
   79    81     1     0     0
SMALL
NO_CHARGES


@<TRIPOS>ATOM
      1 N1A        -0.8050   20.5890  101.1200 N.ar      1 COA2002     0.0000 
      2 C2A        -0.5310   20.0710   99.9220 C.ar      1 COA2002     0.0000 
      3 N3A        -1.0470   18.8900   99.5450 N.ar      1 COA2002     0.0000 
      4 C4A        -1.8690   18.1960  100.3640 C.ar      1 COA2002     0.0000 
      5 C5A        -2.1780   18.7050  101.6120 C.ar      1 COA2002     0.0000 
      6 C6A        -1.6200   19.9300  101.9780 C.ar      1 COA2002     0.0000 
      7 N6A        -1.9220   20.4760  103.2840 N.pl3     1 COA2002     0.0000 
      8 N7A        -3.0070   17.8180  102.2150 N.2       1 COA2002     0.0000 
      9 C8A        -3.2230   16.7930  101.3730 C.2       1 COA2002     0.0000 
     10 N9A        -2.5250   17.0240  100.2570 N.pl3     1 COA2002     0.0000 
     11 C1B        -2.4390   16.2420   99.0730 C.3       1 COA2002     0.0000 
     12 C2B        -2.4030   14.7620   99.2910 C.3       1 COA2002     0.0000 
     13 O2B        -1.1590   14.3580   99.7850 O.3       1 COA2002     0.0000 
     14 C3B        -2.6420   14.2990   97.9610 C.3       1 COA2002     0.0000 
     15 O3B        -1.3850   14.1980   97.2940 O.3       1 COA2002     0.0000 
     16 P3B        -1.0890   13.2540   96.0100 P.3       1 COA2002     0.0000 
     17 O7A         0.3490   12.8100   96.0620 O.co2     1 COA2002     0.0000 
     18 O8A        -1.3640   14.0010   94.7180 O.co2     1 COA2002     0.0000 
     19 O9A        -1.9830   12.0250   96.0580 O.co2     1 COA2002     0.0000 
     20 C4B        -3.4430   15.3690   97.3200 C.3       1 COA2002     0.0000 
     21 O4B        -3.5590   16.3960   98.2850 O.3       1 COA2002     0.0000 
     22 C5B        -4.8010   14.8970   96.9960 C.3       1 COA2002     0.0000 
     23 O5B        -5.3920   14.1340   98.0560 O.3       1 COA2002     0.0000 
     24 P1A        -6.9550   13.8470   98.1120 P.3       1 COA2002     0.0000 
     25 O1A        -7.7380   15.0670   98.6010 O.co2     1 COA2002     0.0000 
     26 O2A        -7.2350   12.6660   99.0090 O.co2     1 COA2002     0.0000 
     27 O3A        -7.2680   13.4740   96.6110 O.3       1 COA2002     0.0000 
     28 P2A        -8.6990   13.3350   95.9950 P.3       1 COA2002     0.0000 
     29 O4A        -8.4950   13.0240   94.5300 O.co2     1 COA2002     0.0000 
     30 O5A        -9.4800   14.6020   96.1990 O.co2     1 COA2002     0.0000 
     31 O6A        -9.4710   12.1400   96.6350 O.3       1 COA2002     0.0000 
     32 CBP       -10.8950   10.9850   98.1960 C.3       1 COA2002     0.0000 
     33 CCP       -10.3580   12.3390   97.6580 C.3       1 COA2002     0.0000 
     34 CDP       -11.4340   10.1550   97.0070 C.3       1 COA2002     0.0000 
     35 CEP       -11.9910   11.1600   99.2140 C.3       1 COA2002     0.0000 
     36 CAP        -9.6570   10.3090   98.7890 C.3       1 COA2002     0.0000 
     37 OAP        -9.0060   11.2390   99.6210 O.3       1 COA2002     0.0000 
     38 C9P        -9.8710    9.0140   99.5490 C.2       1 COA2002     0.0000 
     39 O9P        -9.9170    7.9350   98.9270 O.2       1 COA2002     0.0000 
     40 N8P        -9.7140    9.0250  100.9930 N.am      1 COA2002     0.0000 
     41 C7P        -9.6900    7.7660  101.7240 C.3       1 COA2002     0.0000 
     42 C6P       -11.0450    7.1480  102.0440 C.3       1 COA2002     0.0000 
     43 C5P       -12.0190    8.1740  102.6160 C.2       1 COA2002     0.0000 
     44 O5P       -11.9380    8.5130  103.7770 O.2       1 COA2002     0.0000 
     45 N4P       -12.9450    8.8500  101.7330 N.am      1 COA2002     0.0000 
     46 C3P       -13.7370    9.9980  102.2240 C.3       1 COA2002     0.0000 
     47 C2P       -15.0820   10.1750  101.5440 C.3       1 COA2002     0.0000 
     48 S1P       -16.1050    8.7110  101.5890 S.3       1 COA2002     0.0000 
     49 H           0.0986   20.5925   99.2592 H         1 COA2002     0.0000 
     50 H          -2.5394   19.9350  103.8551 H         1 COA2002     0.0000 
     51 H          -1.4882   21.3490  103.5070 H         1 COA2002     0.0000 
     52 H          -3.7845   16.0266  101.5478 H         1 COA2002     0.0000 
     53 H          -1.5483   16.4950   98.4911 H         1 COA2002     0.0000 
     54 H          -3.2255   14.5104   99.9189 H         1 COA2002     0.0000 
     55 H          -3.1789   13.3972   97.9562 H         1 COA2002     0.0000 
     56 H          -2.9479   15.7160   96.4464 H         1 COA2002     0.0000 
     57 H          -4.7573   14.2932   96.0611 H         1 COA2002     0.0000 
     58 H          -5.4375   15.7773   96.7501 H         1 COA2002     0.0000 
     59 H         -11.2484   12.9253   97.3612 H         1 COA2002     0.0000 
     60 H          -9.9167   12.8609   98.5284 H         1 COA2002     0.0000 
     61 H          -8.9799   10.0799   97.9306 H         1 COA2002     0.0000 
     62 H          -9.6224    9.8953  101.4858 H         1 COA2002     0.0000 
     63 H          -9.1383    7.8910  102.6918 H         1 COA2002     0.0000 
     64 H          -9.0947    7.0021  101.1594 H         1 COA2002     0.0000 
     65 H         -10.9101    6.3392  102.7685 H         1 COA2002     0.0000 
     66 H         -11.4704    6.7200  101.1312 H         1 COA2002     0.0000 
     67 H         -13.0601    8.5486  100.7805 H         1 COA2002     0.0000 
     68 H         -13.1563   10.9377  102.0980 H         1 COA2002     0.0000 
     69 H         -13.9100    9.8962  103.3176 H         1 COA2002     0.0000 
     70 H         -15.0018   10.3774  100.4861 H         1 COA2002     0.0000 
     71 H         -15.7063   10.9169  102.0199 H         1 COA2002     0.0000 
     72 H         -10.7225    9.9731   96.3282 H         1 COA2002     0.0000 
     73 H         -11.7895    9.2687   97.3037 H         1 COA2002     0.0000 
     74 H         -12.1782   10.6254   96.5328 H         1 COA2002     0.0000 
     75 H         -11.6796   11.6802  100.0093 H         1 COA2002     0.0000 
     76 H         -12.7766   11.6481   98.8338 H         1 COA2002     0.0000 
     77 H         -12.3276   10.2812   99.5521 H         1 COA2002     0.0000 
     78 H          -0.6126   14.1526   98.9731 H         1 COA2002     0.0000 
     79 H          -8.7012   11.9667   99.0066 H         1 COA2002     0.0000 
@<TRIPOS>BOND
     1    2    1 ar   
     2    6    1 ar   
     3    3    2 ar   
     4   49    2 1    
     5    4    3 ar   
     6    5    4 ar   
     7   10    4 1    
     8    6    5 ar   
     9    8    5 1    
    10    7    6 1    
    11   50    7 1    
    12   51    7 1    
    13    9    8 2    
    14   10    9 1    
    15   52    9 1    
    16   11   10 1    
    17   12   11 1    
    18   21   11 1    
    19   53   11 1    
    20   13   12 1    
    21   14   12 1    
    22   54   12 1    
    23   78   13 1    
    24   15   14 1    
    25   20   14 1    
    26   55   14 1    
    27   16   15 1    
    28   17   16 ar   
    29   18   16 ar   
    30   19   16 ar   
    31   21   20 1    
    32   22   20 1    
    33   56   20 1    
    34   23   22 1    
    35   57   22 1    
    36   58   22 1    
    37   24   23 1    
    38   25   24 ar   
    39   26   24 ar   
    40   27   24 1    
    41   28   27 1    
    42   29   28 ar   
    43   30   28 ar   
    44   31   28 1    
    45   33   31 1    
    46   33   32 1    
    47   34   32 1    
    48   35   32 1    
    49   36   32 1    
    50   59   33 1    
    51   60   33 1    
    52   72   34 1    
    53   73   34 1    
    54   74   34 1    
    55   75   35 1    
    56   76   35 1    
    57   77   35 1    
    58   37   36 1    
    59   38   36 1    
    60   61   36 1    
    61   79   37 1    
    62   39   38 2    
    63   40   38 am   
    64   41   40 1    
    65   62   40 1    
    66   42   41 1    
    67   63   41 1    
    68   64   41 1    
    69   43   42 1    
    70   65   42 1    
    71   66   42 1    
    72   44   43 2    
    73   45   43 am   
    74   46   45 1    
    75   67   45 1    
    76   47   46 1    
    77   68   46 1    
    78   69   46 1    
    79   48   47 1    
    80   70   47 1    
    81   71   47 1    
@<TRIPOS>SUBSTRUCTURE
     1 COA2002     1 GROUP   
@<TRIPOS>SET

