#    Name: 2ww4_ADP_1_INTS_M
#    Modification time : Tue Mar 25 04:45:20 2014

@<TRIPOS>MOLECULE
2ww4_ADP_1_INTS_M
   49     0     9     0     0
SMALL
NO_CHARGES


@<TRIPOS>ATOM
      1 N          20.9180   40.4250    0.6595 N.am      2 SEC2        0.0000 
      2 N          22.2020   40.9320    0.7130 N.am      8 SEL2        0.0000 
      3 N          19.6340   39.9180    0.6060 N.am      5 SEP2        0.0000 
      4 N          21.3845   40.9760    2.0230 N.am      2 SEC2        0.0000 
      5 N          20.5670   41.0200    3.3330 N.am      5 SEP2        0.0000 
      6 N          24.8005   38.9010   -4.1630 N.am      2 SEC2        0.0000 
      7 N          23.4120   38.6500   -3.5800 N.am      8 SEL2        0.0000 
      8 N          26.1890   39.1520   -4.7460 N.am      5 SEP2        0.0000 
      9 N          21.9345   39.1530   -2.8270 N.am      2 SEC2        0.0000 
     10 N          20.4570   39.6560   -2.0740 N.am      5 SEP2        0.0000 
     11 N          21.6055   39.5995   -1.6740 N.am      2 SEC2        0.0000 
     12 N          22.7540   39.5430   -1.2740 N.am      8 SEL2        0.0000 
     13 CA         25.8515   37.7385   -4.0405 C.3       3 GLC5        0.0000 
     14 CA         25.1300   36.8100   -2.1620 C.3       9 GLL5        0.0000 
     15 CA         26.5730   38.6670   -5.9190 C.3       6 GLP5        0.0000 
     16 CA         26.1140   38.3515   -3.0245 C.3       3 GLC5        0.0000 
     17 CA         27.0980   39.8930   -3.8870 C.3       6 GLP5        0.0000 
     18 CA         25.4595   36.1110    0.7045 C.3       3 GLC5        0.0000 
     19 CA         25.1290   35.6040   -1.2190 C.3       9 GLL5        0.0000 
     20 CA         25.7900   36.6180    2.6280 C.3       6 GLP5        0.0000 
     21 CA         23.5795   32.2260   -3.6985 C.3       3 GLC5        0.0000 
     22 CA         24.5630   33.5440   -2.3240 C.3       9 GLL5        0.0000 
     23 CA         22.5960   30.9080   -5.0730 C.3       6 GLP5        0.0000 
     24 N          18.8420   32.7170   -1.1605 N.am      2 SEC2        0.0000 
     25 N          20.0060   33.1720   -2.1000 N.am      8 SEL2        0.0000 
     26 N          17.6780   32.2620   -0.2210 N.am      5 SEP2        0.0000 
     27 CA         19.8735   34.0895   -5.7115 C.3       3 GLC5        0.0000 
     28 CA         19.3470   35.0590   -3.8040 C.3       9 GLL5        0.0000 
     29 CA         20.4000   33.1200   -7.6190 C.3       6 GLP5        0.0000 
     30 CA         19.6560   36.7835   -2.5655 C.3       3 GLC5        0.0000 
     31 CA         19.9650   38.5080   -1.3270 C.3       6 GLP5        0.0000 
     32 O          17.3460   33.5595   -3.6040 O.2       1 ALC1        0.0000 
     33 O          18.0530   34.7470   -4.0650 O.2       7 ALL1        0.0000 
     34 O          16.6390   32.3720   -3.1430 O.2       4 ALP1        0.0000 
     35 O          17.6190   36.2415   -4.2920 O.2       1 ALC1        0.0000 
     36 O          17.1850   37.7360   -4.5190 O.2       4 ALP1        0.0000 
     37 CA         20.4170   37.2185   -5.8710 C.3       3 GLC5        0.0000 
     38 CA         21.2190   36.4590   -4.1680 C.3       9 GLL5        0.0000 
     39 CA         19.6150   37.9780   -7.5740 C.3       6 GLP5        0.0000 
     40 CA         22.3185   35.7320   -5.5705 C.3       3 GLC5        0.0000 
     41 CA         23.4180   35.0050   -6.9730 C.3       6 GLP5        0.0000 
     42 CA         20.5920   37.4835   -2.7475 C.3       3 GLC5        0.0000 
     43 CA         22.8795   34.2575   -4.2720 C.3       3 GLC5        0.0000 
     44 CA         21.5740   34.6950   -2.6620 C.3       9 GLL5        0.0000 
     45 CA         24.1850   33.8200   -5.8820 C.3       6 GLP5        0.0000 
     46 CA         20.7695   36.6015   -1.9945 C.3       3 GLC5        0.0000 
     47 CA         24.6683   33.8978   -4.0035 C.3       3 GLC5        0.0000 
     48 CA         20.4108   35.0812   -0.7973 C.3       3 GLC5        0.0000 
     49 CA         19.9450   35.6850    1.1700 C.3       6 GLP5        0.0000 
@<TRIPOS>BOND
@<TRIPOS>SUBSTRUCTURE
     1 ALC1       32 GROUP        1 X    ALC  0     ROOT ALC X 1
     2 SEC2        1 GROUP        1 X    SEC  0     **** SEC X 2
     3 GLC5       13 GROUP        1 X    GLC  0     **** GLC X 6
     4 ALP1       34 GROUP        1 Y    ALP  0     ROOT ALP Y 8
     5 SEP2        3 GROUP        1 Y    SEP  0     **** SEP Y 9
     6 GLP5       15 GROUP        1 Y    GLP  0     **** GLP Y 13
     7 ALL1       33 GROUP        1 Z    ALL  0     ROOT ALL Z 15
     8 SEL2        2 GROUP        1 Z    SEL  0     **** SEL Z 16
     9 GLL5       14 GROUP        1 Z    GLL  0     **** GLL Z 20
@<TRIPOS>SET

