#    Name: 2ww4_ADP_1_ligand
#    Modification time : Tue Mar 25 04:45:20 2014

@<TRIPOS>MOLECULE
2ww4_ADP_1_ligand
   39    41     1     0     0
SMALL
NO_CHARGES


@<TRIPOS>ATOM
      1 PB         23.0770   39.7730    0.2910 P.3       1 ADP1284     0.0000 
      2 O1B        22.2020   40.9320    0.7130 O.co2     1 ADP1284     0.0000 
      3 O2B        22.6940   38.4460    0.9190 O.co2     1 ADP1284     0.0000 
      4 O3B        24.5610   40.0920    0.3330 O.co2     1 ADP1284     0.0000 
      5 PA         23.9570   39.1980   -2.2810 P.3       1 ADP1284     0.0000 
      6 O1A        24.8070   40.4470   -2.3170 O.co2     1 ADP1284     0.0000 
      7 O2A        23.4120   38.6500   -3.5800 O.co2     1 ADP1284     0.0000 
      8 O3A        22.7540   39.5430   -1.2740 O.3       1 ADP1284     0.0000 
      9 O5'        24.7200   38.0060   -1.4940 O.3       1 ADP1284     0.0000 
     10 C5'        25.1300   36.8100   -2.1620 C.3       1 ADP1284     0.0000 
     11 C4'        25.1290   35.6040   -1.2190 C.3       1 ADP1284     0.0000 
     12 O4'        23.8070   35.2080   -0.8120 O.3       1 ADP1284     0.0000 
     13 C3'        25.7400   34.4070   -1.9260 C.3       1 ADP1284     0.0000 
     14 O3'        26.6040   33.7010   -1.0300 O.3       1 ADP1284     0.0000 
     15 C2'        24.5630   33.5440   -2.3240 C.3       1 ADP1284     0.0000 
     16 O2'        24.9240   32.1590   -2.3240 O.3       1 ADP1284     0.0000 
     17 C1'        23.5090   33.8810   -1.2760 C.3       1 ADP1284     0.0000 
     18 N9         22.1170   33.8350   -1.7980 N.pl3     1 ADP1284     0.0000 
     19 C8         21.1790   32.9280   -1.4540 C.2       1 ADP1284     0.0000 
     20 N7         20.0060   33.1720   -2.1000 N.2       1 ADP1284     0.0000 
     21 C5         20.1790   34.2600   -2.8670 C.ar      1 ADP1284     0.0000 
     22 C6         19.3470   35.0590   -3.8040 C.ar      1 ADP1284     0.0000 
     23 N6         18.0530   34.7470   -4.0650 N.pl3     1 ADP1284     0.0000 
     24 N1         19.9330   36.1210   -4.3990 N.ar      1 ADP1284     0.0000 
     25 C2         21.2190   36.4590   -4.1680 C.ar      1 ADP1284     0.0000 
     26 N3         22.0260   35.7810   -3.3310 N.ar      1 ADP1284     0.0000 
     27 C4         21.5740   34.6950   -2.6620 C.ar      1 ADP1284     0.0000 
     28 H          26.1487   36.9063   -2.5767 H         1 ADP1284     0.0000 
     29 H          24.4634   36.5699   -3.0088 H         1 ADP1284     0.0000 
     30 H          25.7469   35.8279   -0.3650 H         1 ADP1284     0.0000 
     31 H          26.2314   34.7455   -2.8012 H         1 ADP1284     0.0000 
     32 H          24.2092   33.8892   -3.2715 H         1 ADP1284     0.0000 
     33 H          23.6185   33.1789   -0.4581 H         1 ADP1284     0.0000 
     34 H          21.3173   32.1903   -0.8243 H         1 ADP1284     0.0000 
     35 H          17.4670   35.5047   -4.3523 H         1 ADP1284     0.0000 
     36 H          17.7994   33.7869   -3.9470 H         1 ADP1284     0.0000 
     37 H          21.6153   37.3085   -4.6763 H         1 ADP1284     0.0000 
     38 H          27.5021   33.7182   -1.4694 H         1 ADP1284     0.0000 
     39 H          25.6561   32.0825   -1.6472 H         1 ADP1284     0.0000 
@<TRIPOS>BOND
     1    2    1 ar   
     2    3    1 ar   
     3    4    1 ar   
     4    8    1 1    
     5    6    5 ar   
     6    7    5 ar   
     7    8    5 1    
     8    9    5 1    
     9   10    9 1    
    10   11   10 1    
    11   28   10 1    
    12   29   10 1    
    13   12   11 1    
    14   13   11 1    
    15   30   11 1    
    16   17   12 1    
    17   14   13 1    
    18   15   13 1    
    19   31   13 1    
    20   38   14 1    
    21   16   15 1    
    22   17   15 1    
    23   32   15 1    
    24   39   16 1    
    25   18   17 1    
    26   33   17 1    
    27   19   18 1    
    28   27   18 1    
    29   20   19 2    
    30   34   19 1    
    31   21   20 1    
    32   22   21 ar   
    33   27   21 ar   
    34   23   22 1    
    35   24   22 ar   
    36   35   23 1    
    37   36   23 1    
    38   25   24 ar   
    39   26   25 ar   
    40   37   25 1    
    41   27   26 ar   
@<TRIPOS>SUBSTRUCTURE
     1 ADP1284     1 GROUP   
@<TRIPOS>SET

