#    Name: 1E19_1_CAVITY_N1_6.mol2
#    Modification time : Mon Mar 10 19:24:07 2014

@<TRIPOS>MOLECULE
1E19_1_CAVITY_N1_6.mol2
   31     0     5     0     0
SMALL
NO_CHARGES


@<TRIPOS>ATOM
      1 N           5.1739   31.6554   55.6027 N.2       1 ALA2        0.0000 
      2 N           3.8628   30.0097   55.3333 N.2       1 ALA2        0.0000 
      3 OD1         7.2553   35.7712   53.7378 O.3       2 ASP3        0.0000 
      4 OD1         7.2221   31.4763   55.0804 O.3       2 ASP3        0.0000 
      5 NZ          7.2110   30.0446   55.5280 N.2       3 LYS4        0.0000 
      6 CA          5.9663   36.9887   52.5733 C.3       4 GLY6        0.0000 
      7 OD1         5.9553   35.5571   53.0208 O.3       2 ASP3        0.0000 
      8 OD1         5.9221   31.2622   54.3635 O.3       2 ASP3        0.0000 
      9 N           5.9110   29.8306   54.8110 N.2       1 ALA2        0.0000 
     10 OD1         4.6331   32.4797   53.1990 O.3       2 ASP3        0.0000 
     11 OD1         4.6220   31.0481   53.6465 O.3       2 ASP3        0.0000 
     12 CA          9.2925   34.1604   53.6630 C.3       4 GLY6        0.0000 
     13 OD1         9.2814   32.7288   54.1106 O.3       2 ASP3        0.0000 
     14 O           8.0145   36.8096   52.0510 O.2       1 ALA2        0.0000 
     15 OD1         8.0035   35.3780   52.4985 O.3       2 ASP3        0.0000 
     16 OD1         7.9924   33.9464   52.9461 O.3       2 ASP3        0.0000 
     17 OD1         7.9813   32.5147   53.3936 O.3       2 ASP3        0.0000 
     18 NZ          7.9703   31.0831   53.8412 N.2       3 LYS4        0.0000 
     19 CA          6.7145   36.5955   51.3340 C.3       4 GLY6        0.0000 
     20 DU          6.7034   35.1639   51.7816 H         5 CUB7        0.0000 
     21 OD1         6.6923   33.7323   52.2291 O.3       2 ASP3        0.0000 
     22 OD1         6.6813   32.3006   52.6767 O.3       2 ASP3        0.0000 
     23 OD1         6.6702   30.8690   53.1242 O.3       2 ASP3        0.0000 
     24 CA          5.4034   34.9498   51.0646 C.3       4 GLY6        0.0000 
     25 CA          5.3923   33.5182   51.5122 C.3       4 GLY6        0.0000 
     26 CA          8.7627   36.4164   50.8118 C.3       4 GLY6        0.0000 
     27 CA          8.7516   34.9848   51.2593 C.3       4 GLY6        0.0000 
     28 CA          8.7405   33.5532   51.7069 C.3       4 GLY6        0.0000 
     29 CA          8.7295   32.1215   52.1544 C.3       4 GLY6        0.0000 
     30 O           7.4516   34.7707   50.5424 O.2       1 ALA2        0.0000 
     31 O           7.4405   33.3391   50.9899 O.2       1 ALA2        0.0000 
@<TRIPOS>BOND
@<TRIPOS>SUBSTRUCTURE
     1 ALA2        1 GROUP   
     2 ASP3        3 GROUP   
     3 LYS4        5 GROUP   
     4 GLY6        6 GROUP   
     5 CUB7       20 GROUP   
@<TRIPOS>SET

