#    Name: 1e19_ADP_1_INTS_M
#    Modification time : Mon Mar 24 22:39:30 2014

@<TRIPOS>MOLECULE
1e19_ADP_1_INTS_M
   64     0    15     0     0
SMALL
NO_CHARGES


@<TRIPOS>ATOM
      1 N           7.9290   38.5290   53.6165 N.am      2 SEC2        0.0000 
      2 N           7.3630   37.6910   54.6310 N.am     12 SEL2        0.0000 
      3 N           8.4950   39.3670   52.6020 N.am      7 SEP2        0.0000 
      4 NZ          9.8035   36.8510   56.8735 N.4       3 LYC4        0.0000 
      5 NZ          9.0320   38.3640   56.2520 N.4      13 LYL4        0.0000 
      6 NZ         10.5750   35.3380   57.4950 N.4       8 LYP4        0.0000 
      7 N           9.1840   38.7435   57.5575 N.am      2 SEC2        0.0000 
      8 N           9.0320   38.3640   56.2520 N.am     12 SEL2        0.0000 
      9 N           9.3360   39.1230   58.8630 N.am      7 SEP2        0.0000 
     10 NZ          9.5825   35.6235   56.6795 N.4       3 LYC4        0.0000 
     11 NZ          8.5900   35.9090   55.8640 N.4      13 LYL4        0.0000 
     12 Zn          7.8645   34.9275   55.7425 Zn        4 ZIC7        0.0000 
     13 Zn          8.5900   35.9090   55.8640 Zn       14 ZIL7        0.0000 
     14 Zn          7.1390   33.9460   55.6210 Zn        9 ZIP7        0.0000 
     15 N           9.5825   35.6235   56.6795 N.am      2 SEC2        0.0000 
     16 N           8.5900   35.9090   55.8640 N.am     12 SEL2        0.0000 
     17 N          10.5750   35.3380   57.4950 N.am      7 SEP2        0.0000 
     18 Zn          6.5715   34.4930   56.4550 Zn        4 ZIC7        0.0000 
     19 Zn          6.0040   35.0400   57.2890 Zn       14 ZIL7        0.0000 
     20 CA          8.3380   36.4950   59.5120 C.3       5 GLC5        0.0000 
     21 CA          6.6140   37.4860   60.1350 C.3      15 GLL5        0.0000 
     22 CA         10.0620   35.5040   58.8890 C.3      10 GLP5        0.0000 
     23 O           5.4295   40.3695   60.5320 O.2       1 ALC1        0.0000 
     24 O           4.5350   39.6910   61.2600 O.2      11 ALL1        0.0000 
     25 O           6.3240   41.0480   59.8040 O.2       6 ALP1        0.0000 
     26 CA          3.8850   38.5300   64.9875 C.3       5 GLC5        0.0000 
     27 CA          4.4520   38.1180   63.1820 C.3      15 GLL5        0.0000 
     28 CA          3.3180   38.9420   66.7930 C.3      10 GLP5        0.0000 
     29 O           2.9495   39.1015   64.4440 O.2       1 ALC1        0.0000 
     30 O           3.0100   38.4530   63.0930 O.2      11 ALL1        0.0000 
     31 O           2.8890   39.7500   65.7950 O.2       6 ALP1        0.0000 
     32 CA          3.7055   37.1400   64.9540 C.3       5 GLC5        0.0000 
     33 CA          4.6410   36.6360   63.0630 C.3      15 GLL5        0.0000 
     34 CA          2.7700   37.6440   66.8450 C.3      10 GLP5        0.0000 
     35 CA          4.7105   35.0925   61.7565 C.3       5 GLC5        0.0000 
     36 CA          4.7800   33.5490   60.4500 C.3      10 GLP5        0.0000 
     37 CA          8.0805   34.7100   66.0075 C.3       5 GLC5        0.0000 
     38 CA          6.7470   35.3360   67.2780 C.3      15 GLL5        0.0000 
     39 CA          9.4140   34.0840   64.7370 C.3      10 GLP5        0.0000 
     40 O           7.5830   34.6595   69.5270 O.2       1 ALC1        0.0000 
     41 O           7.0060   34.4190   68.3000 O.2      11 ALL1        0.0000 
     42 O           8.1600   34.9000   70.7540 O.2       6 ALP1        0.0000 
     43 N           8.6235   36.6200   68.3620 N.am      2 SEC2        0.0000 
     44 N           7.5560   36.4200   67.3600 N.am     12 SEL2        0.0000 
     45 N           9.6910   36.8200   69.3640 N.am      7 SEP2        0.0000 
     46 CA          7.9330   38.8400   65.0675 C.3       5 GLC5        0.0000 
     47 CA          7.4530   37.4000   66.3880 C.3      15 GLL5        0.0000 
     48 CA          8.4130   40.2800   63.7470 C.3      10 GLP5        0.0000 
     49 CA          9.3975   37.1175   66.9785 C.3       5 GLC5        0.0000 
     50 CA         11.3420   36.8350   67.5690 C.3      10 GLP5        0.0000 
     51 CA          7.7410   37.7275   68.5555 C.3       5 GLC5        0.0000 
     52 CA          8.0290   38.0550   70.7230 C.3      10 GLP5        0.0000 
     53 CA          8.5155   36.9965   64.9650 C.3       5 GLC5        0.0000 
     54 CA          9.5780   36.5930   63.5420 C.3      10 GLP5        0.0000 
     55 CA          5.4050   35.4928   60.5445 C.3       5 GLC5        0.0000 
     56 CA          5.4460   37.3870   61.1430 C.3      15 GLL5        0.0000 
     57 CA          5.6475   40.0958   63.1137 C.3       5 GLC5        0.0000 
     58 CA          5.2200   38.6630   61.9290 C.3      15 GLL5        0.0000 
     59 CA          6.4590   41.8010   63.6720 C.3      10 GLP5        0.0000 
     60 CA          5.3680   35.7342   68.3270 C.3       5 GLC5        0.0000 
     61 CA          5.9070   35.2630   66.1920 C.3      15 GLL5        0.0000 
     62 CA          4.4090   36.1690   69.9190 C.3      10 GLP5        0.0000 
     63 CA          7.0165   34.7625   64.8517 C.3       5 GLC5        0.0000 
     64 CA          8.1290   33.7430   63.9770 C.3      10 GLP5        0.0000 
@<TRIPOS>BOND
@<TRIPOS>SUBSTRUCTURE
     1 ALC1       23 GROUP        1 X    ALC  0     ROOT ALC X 1
     2 SEC2        1 GROUP        1 X    SEC  0     **** SEC X 2
     3 LYC4        4 GROUP        1 X    LYC  0     **** LYC X 4
     4 ZIC7       12 GROUP        1 X    ZIC  0     **** ZIC X 5
     5 GLC5       20 GROUP        1 X    GLC  0     **** GLC X 6
     6 ALP1       25 GROUP        1 Y    ALP  0     ROOT ALP Y 8
     7 SEP2        3 GROUP        1 Y    SEP  0     **** SEP Y 9
     8 LYP4        6 GROUP        1 Y    LYP  0     **** LYP Y 11
     9 ZIP7       14 GROUP        1 Y    ZIP  0     **** ZIP Y 12
    10 GLP5       22 GROUP        1 Y    GLP  0     **** GLP Y 13
    11 ALL1       24 GROUP        1 Z    ALL  0     ROOT ALL Z 15
    12 SEL2        2 GROUP        1 Z    SEL  0     **** SEL Z 16
    13 LYL4        5 GROUP        1 Z    LYL  0     **** LYL Z 18
    14 ZIL7       13 GROUP        1 Z    ZIL  0     **** ZIL Z 19
    15 GLL5       21 GROUP        1 Z    GLL  0     **** GLL Z 20
@<TRIPOS>SET

