#    Name: 1e19_ADP_1_ligand
#    Modification time : Mon Mar 24 22:39:30 2014

@<TRIPOS>MOLECULE
1e19_ADP_1_ligand
   38    40     1     0     0
SMALL
NO_CHARGES


@<TRIPOS>ATOM
      1 PB          8.0510   37.2990   55.9110 P.3       1 ADP315      0.0000 
      2 O1B         7.3630   37.6910   54.6310 O.co2     1 ADP315      0.0000 
      3 O2B         9.0320   38.3640   56.2520 O.co2     1 ADP315      0.0000 
      4 O3B         8.5900   35.9090   55.8640 O.co2     1 ADP315      0.0000 
      5 PA          5.9930   36.3870   57.8830 P.3       1 ADP315      0.0000 
      6 O1A         4.7280   37.1040   57.9150 O.co2     1 ADP315      0.0000 
      7 O2A         6.0040   35.0400   57.2890 O.co2     1 ADP315      0.0000 
      8 O3A         6.9510   37.3940   57.0780 O.3       1 ADP315      0.0000 
      9 O5'         6.6450   36.3000   59.3220 O.3       1 ADP315      0.0000 
     10 C5'         6.6140   37.4860   60.1350 C.3       1 ADP315      0.0000 
     11 C4'         5.4460   37.3870   61.1430 C.3       1 ADP315      0.0000 
     12 O4'         5.6910   36.3530   62.1350 O.3       1 ADP315      0.0000 
     13 C3'         5.2200   38.6630   61.9290 C.3       1 ADP315      0.0000 
     14 O3'         4.5350   39.6910   61.2600 O.3       1 ADP315      0.0000 
     15 C2'         4.4520   38.1180   63.1820 C.3       1 ADP315      0.0000 
     16 O2'         3.0100   38.4530   63.0930 O.3       1 ADP315      0.0000 
     17 C1'         4.6410   36.6360   63.0630 C.3       1 ADP315      0.0000 
     18 N9          4.9830   35.9810   64.3250 N.pl3     1 ADP315      0.0000 
     19 C8          4.5390   34.7190   64.7020 C.2       1 ADP315      0.0000 
     20 N7          5.0570   34.2870   65.8240 N.2       1 ADP315      0.0000 
     21 C5          5.9070   35.2630   66.1920 C.ar      1 ADP315      0.0000 
     22 C6          6.7470   35.3360   67.2780 C.ar      1 ADP315      0.0000 
     23 N6          7.0060   34.4190   68.3000 N.pl3     1 ADP315      0.0000 
     24 N1          7.5560   36.4200   67.3600 N.ar      1 ADP315      0.0000 
     25 C2          7.4530   37.4000   66.3880 C.ar      1 ADP315      0.0000 
     26 N3          6.6830   37.4070   65.2990 N.ar      1 ADP315      0.0000 
     27 C4          5.9010   36.3010   65.2610 C.ar      1 ADP315      0.0000 
     28 H           6.4561   38.3851   59.5364 H         1 ADP315      0.0000 
     29 H           7.5341   37.6092   60.7094 H         1 ADP315      0.0000 
     30 H           4.5370   37.1593   60.6004 H         1 ADP315      0.0000 
     31 H           6.1967   38.9656   62.3188 H         1 ADP315      0.0000 
     32 H           4.9136   38.4800   64.0373 H         1 ADP315      0.0000 
     33 H           3.7082   36.2010   62.6820 H         1 ADP315      0.0000 
     34 H           3.8804   34.2183   64.1366 H         1 ADP315      0.0000 
     35 H           8.0940   38.2754   66.5507 H         1 ADP315      0.0000 
     36 H           5.2302   40.1450   60.7027 H         1 ADP315      0.0000 
     37 H           2.7650   38.7858   64.0036 H         1 ADP315      0.0000 
     38 H           7.4596   34.9503   69.0155 H         1 ADP315      0.0000 
@<TRIPOS>BOND
     1    2    1 ar   
     2    3    1 ar   
     3    4    1 ar   
     4    8    1 1    
     5    6    5 ar   
     6    7    5 ar   
     7    8    5 1    
     8    9    5 1    
     9   10    9 1    
    10   11   10 1    
    11   28   10 1    
    12   29   10 1    
    13   12   11 1    
    14   13   11 1    
    15   30   11 1    
    16   17   12 1    
    17   14   13 1    
    18   15   13 1    
    19   31   13 1    
    20   36   14 1    
    21   16   15 1    
    22   17   15 1    
    23   32   15 1    
    24   37   16 1    
    25   18   17 1    
    26   33   17 1    
    27   19   18 1    
    28   27   18 1    
    29   20   19 2    
    30   34   19 1    
    31   21   20 1    
    32   22   21 ar   
    33   27   21 ar   
    34   23   22 1    
    35   24   22 ar   
    36   38   23 1    
    37   25   24 ar   
    38   26   25 ar   
    39   35   25 1    
    40   27   26 ar   
@<TRIPOS>SUBSTRUCTURE
     1 ADP315      1 GROUP   
@<TRIPOS>SET

