#    Name: 4edz_0O5_2_INTS_M
#    Modification time : Tue Mar 25 10:55:58 2014

@<TRIPOS>MOLECULE
4edz_0O5_2_INTS_M
   55     0     3     0     0
SMALL
NO_CHARGES


@<TRIPOS>ATOM
      1 CA         38.2455   -7.9035  -12.4010 C.3       1 GLC5        0.0000 
      2 CA         38.3150  -10.1020  -12.2860 C.3       3 GLL5        0.0000 
      3 CA         38.1760   -5.7050  -12.5160 C.3       2 GLP5        0.0000 
      4 CA         36.0030  -12.3290  -13.7790 C.3       1 GLC5        0.0000 
      5 CA         37.7240  -11.2980  -13.0240 C.3       3 GLL5        0.0000 
      6 CA         34.2820  -13.3600  -14.5340 C.3       2 GLP5        0.0000 
      7 CA         36.3010  -13.9900  -14.2865 C.3       1 GLC5        0.0000 
      8 CA         37.7170  -13.6870  -13.2160 C.3       3 GLL5        0.0000 
      9 CA         34.8850  -14.2930  -15.3570 C.3       2 GLP5        0.0000 
     10 CA         36.4680  -15.4760  -13.2015 C.3       1 GLC5        0.0000 
     11 CA         38.3620  -14.9850  -12.7390 C.3       3 GLL5        0.0000 
     12 CA         34.5740  -15.9670  -13.6640 C.3       2 GLP5        0.0000 
     13 CA         38.8675  -16.7540  -12.7695 C.3       1 GLC5        0.0000 
     14 CA         39.3730  -18.5230  -12.8000 C.3       2 GLP5        0.0000 
     15 CA         37.0770   -7.9475   -7.7505 C.3       1 GLC5        0.0000 
     16 CA         35.8030   -7.2700   -9.0590 C.3       3 GLL5        0.0000 
     17 CA         38.3510   -8.6250   -6.4420 C.3       2 GLP5        0.0000 
     18 CA         31.7400   -6.8480  -11.7220 C.3       1 GLC5        0.0000 
     19 CA         33.6580   -7.1090  -10.8030 C.3       3 GLL5        0.0000 
     20 CA         29.8220   -6.5870  -12.6410 C.3       2 GLP5        0.0000 
     21 CA         32.6735   -3.7225   -8.0470 C.3       1 GLC5        0.0000 
     22 CA         32.4880   -5.4880   -9.3690 C.3       3 GLL5        0.0000 
     23 CA         32.8590   -1.9570   -6.7250 C.3       2 GLP5        0.0000 
     24 CA         28.5760   -5.4355   -5.5950 C.3       1 GLC5        0.0000 
     25 CA         29.9680   -5.3070   -6.5990 C.3       3 GLL5        0.0000 
     26 CA         27.1840   -5.5640   -4.5910 C.3       2 GLP5        0.0000 
     27 CA         29.6665   -3.5415   -5.3245 C.3       1 GLC5        0.0000 
     28 CA         29.3650   -1.7760   -4.0500 C.3       2 GLP5        0.0000 
     29 CA         29.1585   -2.5775   -7.5835 C.3       1 GLC5        0.0000 
     30 CA         30.1900   -4.0220   -8.7370 C.3       3 GLL5        0.0000 
     31 CA         28.1270   -1.1330   -6.4300 C.3       2 GLP5        0.0000 
     32 CA         36.1653  -11.0215  -11.6650 C.3       1 GLC5        0.0000 
     33 CA         34.3110  -11.3430  -10.6750 C.3       2 GLP5        0.0000 
     34 CA         36.7220   -6.7476  -11.4466 C.3       1 GLC5        0.0000 
     35 CA         35.8070   -8.0230  -10.2340 C.3       3 GLL5        0.0000 
     36 CA         34.3872   -9.4434  -10.7060 C.3       1 GLC5        0.0000 
     37 CA         32.0124   -7.5223   -9.0868 C.3       1 GLC5        0.0000 
     38 CA         30.9490   -8.9380   -8.3780 C.3       2 GLP5        0.0000 
     39 CA         30.6373   -7.0485   -7.8122 C.3       1 GLC5        0.0000 
     40 CA         30.6830   -5.0110   -7.8940 C.3       3 GLL5        0.0000 
     41 CA         32.2280   -2.3827  -10.2195 C.3       1 GLC5        0.0000 
     42 CA         32.0630   -4.5130  -10.2770 C.3       3 GLL5        0.0000 
     43 CA         32.0690   -0.3990   -9.5630 C.3       2 GLP5        0.0000 
     44 CA         31.1445   -5.1545  -12.2688 C.3       1 GLC5        0.0000 
     45 CA         32.2230   -3.2240  -12.3180 C.3       3 GLL5        0.0000 
     46 CA         31.8588   -1.6315  -10.8575 C.3       1 GLC5        0.0000 
     47 CA         32.6227   -1.2850  -12.9630 C.3       1 GLC5        0.0000 
     48 CA         31.0740   -2.5040  -11.9860 C.3       3 GLL5        0.0000 
     49 CA         33.5970    0.2940  -13.7740 C.3       2 GLP5        0.0000 
     50 CA         30.2758   -4.6100  -12.0175 C.3       1 GLC5        0.0000 
     51 CA         31.3410   -1.8265   -9.9653 C.3       1 GLC5        0.0000 
     52 CA         30.3850   -2.7620  -10.8020 C.3       3 GLL5        0.0000 
     53 CA         30.6901   -5.4801  -11.2595 C.3       1 GLC5        0.0000 
     54 CA         30.8410   -3.7460   -9.9330 C.3       3 GLL5        0.0000 
     55 CA         31.5584   -3.2737   -7.3584 C.3       1 GLC5        0.0000 
@<TRIPOS>BOND
@<TRIPOS>SUBSTRUCTURE
     1 GLC5        1 GROUP        1 X    GLC  0     ROOT GLC X 6
     2 GLP5        3 GROUP        1 Y    GLP  0     ROOT GLP Y 13
     3 GLL5        2 GROUP        1 Z    GLL  0     ROOT GLL Z 20
@<TRIPOS>SET

