#    Name: 4edz_0O5_2_ligand
#    Modification time : Tue Mar 25 10:55:58 2014

@<TRIPOS>MOLECULE
4edz_0O5_2_ligand
   54    57     1     0     0
SMALL
NO_CHARGES


@<TRIPOS>ATOM
      1 O19        37.6710   -9.3110   -9.6320 O.2       1 0O5203      0.0000 
      2 C18        36.9720   -8.9180  -10.5530 C.2       1 0O5203      0.0000 
      3 N20        37.2180   -9.2610  -11.8190 N.am      1 0O5203      0.0000 
      4 C21        38.3150  -10.1020  -12.2860 C.3       1 0O5203      0.0000 
      5 C22        37.7240  -11.2980  -13.0240 C.3       1 0O5203      0.0000 
      6 N23        38.3920  -12.5390  -12.5930 N.4       1 0O5203      0.0000 
      7 C28        37.7170  -13.6870  -13.2160 C.3       1 0O5203      0.0000 
      8 C24        38.3620  -14.9850  -12.7390 C.3       1 0O5203      0.0000 
      9 O26        39.7680  -14.9740  -13.0110 O.3       1 0O5203      0.0000 
     10 C25        40.4460  -13.8510  -12.4440 C.3       1 0O5203      0.0000 
     11 C27        39.8180  -12.5640  -12.9740 C.3       1 0O5203      0.0000 
     12 C13        35.8070   -8.0230  -10.2340 C.ar      1 0O5203      0.0000 
     13 C17        35.8030   -7.2700   -9.0590 C.ar      1 0O5203      0.0000 
     14 C14        34.7330   -6.4320   -8.7580 C.ar      1 0O5203      0.0000 
     15 C16        34.7310   -7.9340  -11.1080 C.ar      1 0O5203      0.0000 
     16 C15        33.6580   -7.1090  -10.8030 C.ar      1 0O5203      0.0000 
     17 C9         33.6690   -6.3410   -9.6410 C.ar      1 0O5203      0.0000 
     18 C4         32.4880   -5.4880   -9.3690 C.ar      1 0O5203      0.0000 
     19 N6         31.7950   -5.7100   -8.2240 N.ar      1 0O5203      0.0000 
     20 C2         30.6830   -5.0110   -7.8940 C.ar      1 0O5203      0.0000 
     21 C1         29.9680   -5.3070   -6.5990 C.3       1 0O5203      0.0000 
     22 C7         32.0630   -4.5130  -10.2770 C.ar      1 0O5203      0.0000 
     23 C12        32.7110   -4.2200  -11.4750 C.ar      1 0O5203      0.0000 
     24 C11        32.2230   -3.2240  -12.3180 C.ar      1 0O5203      0.0000 
     25 C10        31.0740   -2.5040  -11.9860 C.ar      1 0O5203      0.0000 
     26 C8         30.3850   -2.7620  -10.8020 C.ar      1 0O5203      0.0000 
     27 C5         30.8410   -3.7460   -9.9330 C.ar      1 0O5203      0.0000 
     28 C3         30.1900   -4.0220   -8.7370 C.ar      1 0O5203      0.0000 
     29 H          36.5764   -8.9096  -12.6022 H         1 0O5203      0.0000 
     30 H          38.9082  -10.4703  -11.4529 H         1 0O5203      0.0000 
     31 H          38.9604   -9.5589  -12.9717 H         1 0O5203      0.0000 
     32 H          37.8558  -11.1437  -14.0971 H         1 0O5203      0.0000 
     33 H          36.6539  -11.3438  -12.8105 H         1 0O5203      0.0000 
     34 H          38.3098  -12.6348  -11.5134 H         1 0O5203      0.0000 
     35 H          37.7981  -13.6394  -14.3029 H         1 0O5203      0.0000 
     36 H          36.6600  -13.7064  -12.9464 H         1 0O5203      0.0000 
     37 H          37.8584  -15.8175  -13.2492 H         1 0O5203      0.0000 
     38 H          38.1594  -15.0854  -11.6639 H         1 0O5203      0.0000 
     39 H          41.5071  -13.8404  -12.7099 H         1 0O5203      0.0000 
     40 H          40.3676  -13.8376  -11.3529 H         1 0O5203      0.0000 
     41 H          40.3453  -11.7174  -12.5437 H         1 0O5203      0.0000 
     42 H          39.9271  -12.5436  -14.0545 H         1 0O5203      0.0000 
     43 H          36.6009   -7.3361   -8.4087 H         1 0O5203      0.0000 
     44 H          34.7349   -5.8877   -7.8893 H         1 0O5203      0.0000 
     45 H          34.7304   -8.4793  -11.9800 H         1 0O5203      0.0000 
     46 H          32.8474   -7.0625  -11.4380 H         1 0O5203      0.0000 
     47 H          33.5583   -4.7444  -11.7398 H         1 0O5203      0.0000 
     48 H          32.7170   -3.0145  -13.2008 H         1 0O5203      0.0000 
     49 H          30.7304   -1.7703  -12.6270 H         1 0O5203      0.0000 
     50 H          29.5399   -2.2235  -10.5734 H         1 0O5203      0.0000 
     51 H          29.3466   -3.4966   -8.4763 H         1 0O5203      0.0000 
     52 H          30.5602   -5.1623   -5.8063 H         1 0O5203      0.0000 
     53 H          29.1656   -4.7230   -6.4759 H         1 0O5203      0.0000 
     54 H          29.6501   -6.2543   -6.5584 H         1 0O5203      0.0000 
@<TRIPOS>BOND
     1    2    1 2    
     2    3    2 am   
     3   12    2 1    
     4    4    3 1    
     5   29    3 1    
     6    5    4 1    
     7   30    4 1    
     8   31    4 1    
     9    6    5 1    
    10   32    5 1    
    11   33    5 1    
    12    7    6 1    
    13   11    6 1    
    14   34    6 1    
    15    8    7 1    
    16   35    7 1    
    17   36    7 1    
    18    9    8 1    
    19   37    8 1    
    20   38    8 1    
    21   10    9 1    
    22   11   10 1    
    23   39   10 1    
    24   40   10 1    
    25   41   11 1    
    26   42   11 1    
    27   13   12 ar   
    28   15   12 ar   
    29   14   13 ar   
    30   43   13 1    
    31   17   14 ar   
    32   44   14 1    
    33   16   15 ar   
    34   45   15 1    
    35   17   16 ar   
    36   46   16 1    
    37   18   17 1    
    38   19   18 ar   
    39   22   18 ar   
    40   20   19 ar   
    41   21   20 1    
    42   28   20 ar   
    43   52   21 1    
    44   53   21 1    
    45   54   21 1    
    46   23   22 ar   
    47   27   22 ar   
    48   24   23 ar   
    49   47   23 1    
    50   25   24 ar   
    51   48   24 1    
    52   26   25 ar   
    53   49   25 1    
    54   27   26 ar   
    55   50   26 1    
    56   28   27 ar   
    57   51   28 1    
@<TRIPOS>SUBSTRUCTURE
     1 0O5203      1 GROUP   
@<TRIPOS>SET

