#    Name: 2vz0_D64_1_INTS_M
#    Modification time : Tue Mar 25 03:22:12 2014

@<TRIPOS>MOLECULE
2vz0_D64_1_INTS_M
   41     0     6     0     0
SMALL
NO_CHARGES


@<TRIPOS>ATOM
      1 CA          8.9070  -10.9300   13.8295 C.3       2 GLC5        0.0000 
      2 CA          8.4870  -12.4440   14.9770 C.3       6 GLL5        0.0000 
      3 CA          9.3270   -9.4160   12.6820 C.3       4 GLP5        0.0000 
      4 CA         11.7185  -10.0210   14.6755 C.3       2 GLC5        0.0000 
      5 CA         10.7610  -11.9700   14.6120 C.3       6 GLL5        0.0000 
      6 CA         12.6760   -8.0720   14.7390 C.3       4 GLP5        0.0000 
      7 CA         11.0970  -12.4210   16.1780 C.3       2 GLC5        0.0000 
      8 CA         11.4330  -12.8720   17.7440 C.3       4 GLP5        0.0000 
      9 CA         10.0440  -10.6930   13.6470 C.3       2 GLC5        0.0000 
     10 O           7.0400  -10.8770   16.0125 O.2       1 ALC1        0.0000 
     11 O           7.2490  -12.0290   15.3780 O.2       5 ALL1        0.0000 
     12 O           6.8310   -9.7250   16.6470 O.2       3 ALP1        0.0000 
     13 O          11.8065   -9.8325   15.2250 O.2       1 ALC1        0.0000 
     14 O          11.7560  -11.0830   14.6580 O.2       5 ALL1        0.0000 
     15 O          11.8570   -8.5820   15.7920 O.2       3 ALP1        0.0000 
     16 O          12.6575  -12.2390   13.9290 O.2       1 ALC1        0.0000 
     17 O          13.5590  -13.3950   13.2000 O.2       3 ALP1        0.0000 
     18 CA          7.9585  -18.9030   14.9505 C.3       2 GLC5        0.0000 
     19 CA          6.5840  -17.7140   15.2190 C.3       6 GLL5        0.0000 
     20 CA          9.3330  -20.0920   14.6820 C.3       4 GLP5        0.0000 
     21 CA          4.3380  -19.9995   12.3440 C.3       2 GLC5        0.0000 
     22 CA          3.6120  -19.8920   14.2750 C.3       6 GLL5        0.0000 
     23 CA          5.0640  -20.1070   10.4130 C.3       4 GLP5        0.0000 
     24 CA          2.3100  -20.7825   14.5825 C.3       2 GLC5        0.0000 
     25 CA          1.0080  -21.6730   14.8900 C.3       4 GLP5        0.0000 
     26 CA         10.1779  -13.0333   16.1974 C.3       2 GLC5        0.0000 
     27 CA          8.7170  -13.7610   14.5300 C.3       6 GLL5        0.0000 
     28 CA          8.9518  -18.1430   14.2575 C.3       2 GLC5        0.0000 
     29 CA          7.9250  -16.0130   14.0340 C.3       6 GLL5        0.0000 
     30 CA          6.8567  -19.5237   14.0742 C.3       2 GLC5        0.0000 
     31 CA          5.5510  -18.6540   15.3100 C.3       6 GLL5        0.0000 
     32 CA          8.5760  -20.2850   13.3910 C.3       4 GLP5        0.0000 
     33 CA          5.2330  -18.9958   11.8425 C.3       2 GLC5        0.0000 
     34 CA          5.9760  -17.2440   12.9340 C.3       6 GLL5        0.0000 
     35 CA          7.3528  -18.8206   13.4466 C.3       2 GLC5        0.0000 
     36 CA          4.9320  -18.1790   13.0150 C.3       6 GLL5        0.0000 
     37 CA          2.7535  -18.1638   13.1867 C.3       2 GLC5        0.0000 
     38 CA          4.7240  -18.8710   14.2050 C.3       6 GLL5        0.0000 
     39 CA          1.2870  -17.1190   12.4310 C.3       4 GLP5        0.0000 
     40 CA          5.3554  -20.8186   15.1536 C.3       2 GLC5        0.0000 
     41 CA          6.3360  -22.3100   15.7910 C.3       4 GLP5        0.0000 
@<TRIPOS>BOND
@<TRIPOS>SUBSTRUCTURE
     1 ALC1       10 GROUP        1 X    ALC  0     ROOT ALC X 1
     2 GLC5        1 GROUP        1 X    GLC  0     **** GLC X 6
     3 ALP1       12 GROUP        1 Y    ALP  0     ROOT ALP Y 8
     4 GLP5        3 GROUP        1 Y    GLP  0     **** GLP Y 13
     5 ALL1       11 GROUP        1 Z    ALL  0     ROOT ALL Z 15
     6 GLL5        2 GROUP        1 Z    GLL  0     **** GLL Z 20
@<TRIPOS>SET

