#    Name: 2vz0_D64_1_ligand
#    Modification time : Tue Mar 25 03:22:12 2014

@<TRIPOS>MOLECULE
2vz0_D64_1_ligand
   33    35     1     0     0
SMALL
NO_CHARGES


@<TRIPOS>ATOM
      1 C1         10.0000  -14.1290   14.1190 C.ar      1 D64500      0.0000 
      2 C2          8.7170  -13.7610   14.5300 C.ar      1 D64500      0.0000 
      3 C3          8.4870  -12.4440   14.9770 C.ar      1 D64500      0.0000 
      4 N4          9.5260  -11.5930   15.0150 N.ar      1 D64500      0.0000 
      5 C5         10.7610  -11.9700   14.6120 C.ar      1 D64500      0.0000 
      6 N6         11.0020  -13.2320   14.1720 N.ar      1 D64500      0.0000 
      7 N7          7.2490  -12.0290   15.3780 N.pl3     1 D64500      0.0000 
      8 C8         10.2520  -15.4360   13.6690 C.ar      1 D64500      0.0000 
      9 C9          9.2160  -16.3750   13.6320 C.ar      1 D64500      0.0000 
     10 C12         7.9250  -16.0130   14.0340 C.ar      1 D64500      0.0000 
     11 C13         7.6870  -14.6990   14.4880 C.ar      1 D64500      0.0000 
     12 N14        11.7560  -11.0830   14.6580 N.pl3     1 D64500      0.0000 
     13 C26         5.5510  -18.6540   15.3100 C.ar      1 D64500      0.0000 
     14 C27         4.7240  -18.8710   14.2050 C.ar      1 D64500      0.0000 
     15 C22         4.9320  -18.1790   13.0150 C.ar      1 D64500      0.0000 
     16 C23         5.9760  -17.2440   12.9340 C.ar      1 D64500      0.0000 
     17 CAP         6.8050  -17.0010   14.0300 C.ar      1 D64500      0.0000 
     18 C25         6.5840  -17.7140   15.2190 C.ar      1 D64500      0.0000 
     19 CAC         3.6120  -19.8920   14.2750 C.3       1 D64500      0.0000 
     20 H           6.5243  -12.7176   15.3521 H         1 D64500      0.0000 
     21 H           7.1761  -11.0730   15.6623 H         1 D64500      0.0000 
     22 H          11.1957  -15.6985   13.3685 H         1 D64500      0.0000 
     23 H           9.4023  -17.3314   13.3096 H         1 D64500      0.0000 
     24 H           6.7379  -14.4366   14.7906 H         1 D64500      0.0000 
     25 H          11.5108  -10.1620   14.9608 H         1 D64500      0.0000 
     26 H          12.6577  -11.4187   14.3855 H         1 D64500      0.0000 
     27 H           5.4042  -19.1752   16.1755 H         1 D64500      0.0000 
     28 H           4.3327  -18.3465   12.2044 H         1 D64500      0.0000 
     29 H           6.1293  -16.7322   12.0521 H         1 D64500      0.0000 
     30 H           7.1908  -17.5418   16.0337 H         1 D64500      0.0000 
     31 H           3.9614  -20.8091   14.4670 H         1 D64500      0.0000 
     32 H           2.9518  -19.6735   14.9936 H         1 D64500      0.0000 
     33 H           3.1029  -19.9462   13.4160 H         1 D64500      0.0000 
@<TRIPOS>BOND
     1    2    1 ar   
     2    6    1 ar   
     3    8    1 ar   
     4    3    2 ar   
     5   11    2 ar   
     6    4    3 ar   
     7    7    3 1    
     8    5    4 ar   
     9    6    5 ar   
    10   12    5 1    
    11   20    7 1    
    12   21    7 1    
    13    9    8 ar   
    14   22    8 1    
    15   10    9 ar   
    16   23    9 1    
    17   11   10 ar   
    18   17   10 1    
    19   24   11 1    
    20   25   12 1    
    21   26   12 1    
    22   14   13 ar   
    23   18   13 ar   
    24   27   13 1    
    25   15   14 ar   
    26   19   14 1    
    27   16   15 ar   
    28   28   15 1    
    29   17   16 ar   
    30   29   16 1    
    31   18   17 ar   
    32   30   18 1    
    33   31   19 1    
    34   32   19 1    
    35   33   19 1    
@<TRIPOS>SUBSTRUCTURE
     1 D64500      1 GROUP   
@<TRIPOS>SET

