#    Name: 3rm6_18Z_1_INTS_M
#    Modification time : Tue Mar 25 11:41:18 2014

@<TRIPOS>MOLECULE
3rm6_18Z_1_INTS_M
   48     0     9     0     0
SMALL
NO_CHARGES


@<TRIPOS>ATOM
      1 O          94.4045   46.5775  -89.8440 O.2       1 ALC1        0.0000 
      2 O          94.4430   45.9450  -88.5310 O.2       7 ALL1        0.0000 
      3 O          94.3660   47.2100  -91.1570 O.2       4 ALP1        0.0000 
      4 O          90.7830   47.1225  -86.2575 O.2       1 ALC1        0.0000 
      5 O          91.8220   46.3600  -85.3840 O.2       7 ALL1        0.0000 
      6 O          89.7440   47.8850  -87.1310 O.2       4 ALP1        0.0000 
      7 CA         88.3975   45.9180  -84.6800 C.3       3 GLC5        0.0000 
      8 CA         90.5980   46.0250  -84.5880 C.3       9 GLL5        0.0000 
      9 CA         86.1970   45.8110  -84.7720 C.3       6 GLP5        0.0000 
     10 CA         90.5670   44.2310  -85.3710 C.3       3 GLC5        0.0000 
     11 CA         90.5360   42.4370  -86.1540 C.3       6 GLP5        0.0000 
     12 CA         92.1175   48.2590  -81.1725 C.3       3 GLC5        0.0000 
     13 CA         90.2710   48.6910  -81.2850 C.3       9 GLL5        0.0000 
     14 CA         93.9640   47.8270  -81.0600 C.3       6 GLP5        0.0000 
     15 CA         92.4580   48.9420  -83.5625 C.3       3 GLC5        0.0000 
     16 CA         90.4650   48.3620  -83.5720 C.3       9 GLL5        0.0000 
     17 CA         94.4510   49.5220  -83.5530 C.3       6 GLP5        0.0000 
     18 CA         94.1240   45.6370  -81.3795 C.3       3 GLC5        0.0000 
     19 CA         94.2840   43.4470  -81.6990 C.3       9 GLL5        0.0000 
     20 CA         97.2135   42.7075  -79.9820 C.3       3 GLC5        0.0000 
     21 CA         95.1590   42.8170  -80.6060 C.3       9 GLL5        0.0000 
     22 CA         99.2680   42.5980  -79.3580 C.3       6 GLP5        0.0000 
     23 CA         95.7905   37.4290  -80.5395 C.3       3 GLC5        0.0000 
     24 CA         96.1260   39.2930  -80.5890 C.3       9 GLL5        0.0000 
     25 CA         95.4550   35.5650  -80.4900 C.3       6 GLP5        0.0000 
     26 CA         93.4285   39.5090  -80.8955 C.3       3 GLC5        0.0000 
     27 CA         95.3620   40.3610  -81.3850 C.3       9 GLL5        0.0000 
     28 CA         91.4950   38.6570  -80.4060 C.3       6 GLP5        0.0000 
     29 N          91.8215   47.6725  -88.6005 N.am      2 SEC2        0.0000 
     30 N          92.8590   47.2400  -87.6310 N.am      8 SEL2        0.0000 
     31 N          90.7840   48.1050  -89.5700 N.am      5 SEP2        0.0000 
     32 CA         95.5523   47.1790  -86.7055 C.3       3 GLC5        0.0000 
     33 CA         95.3490   45.4460  -85.9090 C.3       9 GLL5        0.0000 
     34 CA         96.4180   48.6690  -87.3650 C.3       6 GLP5        0.0000 
     35 CA         93.9905   47.7235  -84.6065 C.3       3 GLC5        0.0000 
     36 CA         94.0240   45.9320  -86.1830 C.3       9 GLL5        0.0000 
     37 CA         92.8776   44.6782  -86.7763 C.3       3 GLC5        0.0000 
     38 CA         93.0360   45.9180  -85.1370 C.3       9 GLL5        0.0000 
     39 CA         91.8940   43.5530  -87.9610 C.3       6 GLP5        0.0000 
     40 CA         94.0220   46.5030  -82.3805 C.3       3 GLC5        0.0000 
     41 CA         93.4190   45.4180  -83.8330 C.3       9 GLL5        0.0000 
     42 CA         96.5249   46.3957  -83.8252 C.3       3 GLC5        0.0000 
     43 CA         94.7410   44.9400  -83.5690 C.3       9 GLL5        0.0000 
     44 CA         97.9120   47.7230  -83.2340 C.3       6 GLP5        0.0000 
     45 CA         92.1917   47.2873  -81.9102 C.3       3 GLC5        0.0000 
     46 CA         90.4710   46.9730  -83.4210 C.3       9 GLL5        0.0000 
     47 CA         92.9458   39.4588  -79.7355 C.3       3 GLC5        0.0000 
     48 CA         94.0170   40.8140  -79.4470 C.3       9 GLL5        0.0000 
@<TRIPOS>BOND
@<TRIPOS>SUBSTRUCTURE
     1 ALC1        1 GROUP        1 X    ALC  0     ROOT ALC X 1
     2 SEC2       29 GROUP        1 X    SEC  0     **** SEC X 2
     3 GLC5        7 GROUP        1 X    GLC  0     **** GLC X 6
     4 ALP1        3 GROUP        1 Y    ALP  0     ROOT ALP Y 8
     5 SEP2       31 GROUP        1 Y    SEP  0     **** SEP Y 9
     6 GLP5        9 GROUP        1 Y    GLP  0     **** GLP Y 13
     7 ALL1        2 GROUP        1 Z    ALL  0     ROOT ALL Z 15
     8 SEL2       30 GROUP        1 Z    SEL  0     **** SEL Z 16
     9 GLL5        8 GROUP        1 Z    GLL  0     **** GLL Z 20
@<TRIPOS>SET

