#    Name: 3rm6_18Z_1_ligand
#    Modification time : Tue Mar 25 11:41:18 2014

@<TRIPOS>MOLECULE
3rm6_18Z_1_ligand
   55    57     1     0     0
SMALL
NO_CHARGES


@<TRIPOS>ATOM
      1 N01        94.4430   45.9450  -88.5310 N.am      1 18Z478      0.0000 
      2 N02        95.0580   44.5070  -82.3910 N.pl3     1 18Z478      0.0000 
      3 N03        91.8220   46.3600  -85.3840 N.pl3     1 18Z478      0.0000 
      4 N04        90.2650   47.3550  -81.0160 N.ar      1 18Z478      0.0000 
      5 N05        90.3650   49.2440  -82.5290 N.ar      1 18Z478      0.0000 
      6 N06        90.1790   49.4840  -80.2960 N.pl3     1 18Z478      0.0000 
      7 N07        94.8670   41.4080  -80.4850 N.4       1 18Z478      0.0000 
      8 N08        95.2290   38.6890  -79.6180 N.3       1 18Z478      0.0000 
      9 N09        96.9250   44.5180  -84.4180 N.pl3     1 18Z478      0.0000 
     10 C10        95.3490   45.4460  -85.9090 C.ar      1 18Z478      0.0000 
     11 C11        94.0240   45.9320  -86.1830 C.ar      1 18Z478      0.0000 
     12 C12        93.0360   45.9180  -85.1370 C.ar      1 18Z478      0.0000 
     13 C13        93.4190   45.4180  -83.8330 C.ar      1 18Z478      0.0000 
     14 C14        94.7410   44.9400  -83.5690 C.ar      1 18Z478      0.0000 
     15 C15        95.7200   44.9480  -84.6190 C.ar      1 18Z478      0.0000 
     16 C16        93.7360   46.4030  -87.4520 C.2       1 18Z478      0.0000 
     17 C17        90.5980   46.0250  -84.5880 C.3       1 18Z478      0.0000 
     18 C18        90.4710   46.9730  -83.4210 C.ar      1 18Z478      0.0000 
     19 C19        90.3680   46.5220  -82.1000 C.ar      1 18Z478      0.0000 
     20 C20        90.2710   48.6910  -81.2850 C.ar      1 18Z478      0.0000 
     21 C21        90.4650   48.3620  -83.5720 C.ar      1 18Z478      0.0000 
     22 C22        94.2840   43.4470  -81.6990 C.3       1 18Z478      0.0000 
     23 C23        95.1590   42.8170  -80.6060 C.3       1 18Z478      0.0000 
     24 C24        94.0170   40.8140  -79.4470 C.3       1 18Z478      0.0000 
     25 C25        94.7760   39.7070  -78.6830 C.3       1 18Z478      0.0000 
     26 C26        96.1260   39.2930  -80.5890 C.3       1 18Z478      0.0000 
     27 C27        95.3620   40.3610  -81.3850 C.3       1 18Z478      0.0000 
     28 O28        92.8590   47.2400  -87.6310 O.2       1 18Z478      0.0000 
     29 O29        97.9270   44.9530  -85.1520 O.2       1 18Z478      0.0000 
     30 O30        97.1790   43.6160  -83.4920 O.2       1 18Z478      0.0000 
     31 H          95.1305   45.2440  -88.3412 H         1 18Z478      0.0000 
     32 H          94.2101   46.3516  -89.4144 H         1 18Z478      0.0000 
     33 H          95.8755   44.8662  -81.8406 H         1 18Z478      0.0000 
     34 H          91.6186   47.0127  -86.2000 H         1 18Z478      0.0000 
     35 H          90.1174   49.0570  -79.3939 H         1 18Z478      0.0000 
     36 H          90.1769   50.4601  -80.5134 H         1 18Z478      0.0000 
     37 H          96.0145   41.1894  -79.6363 H         1 18Z478      0.0000 
     38 H          96.0477   45.4574  -86.6619 H         1 18Z478      0.0000 
     39 H          92.7190   45.4095  -83.0846 H         1 18Z478      0.0000 
     40 H          90.6680   45.0027  -84.2166 H         1 18Z478      0.0000 
     41 H          89.7133   46.1088  -85.2191 H         1 18Z478      0.0000 
     42 H          90.3708   45.4773  -81.9413 H         1 18Z478      0.0000 
     43 H          90.5429   48.7444  -84.5558 H         1 18Z478      0.0000 
     44 H          93.9914   42.6692  -82.3980 H         1 18Z478      0.0000 
     45 H          93.3964   43.8643  -81.2328 H         1 18Z478      0.0000 
     46 H          96.2065   42.9874  -80.8763 H         1 18Z478      0.0000 
     47 H          94.9601   43.3493  -79.6699 H         1 18Z478      0.0000 
     48 H          93.1199   40.3658  -79.8844 H         1 18Z478      0.0000 
     49 H          93.7016   41.5683  -78.7200 H         1 18Z478      0.0000 
     50 H          95.6151   40.1743  -78.1657 H         1 18Z478      0.0000 
     51 H          94.0965   39.2898  -77.9386 H         1 18Z478      0.0000 
     52 H          96.5041   38.5530  -81.2940 H         1 18Z478      0.0000 
     53 H          96.9717   39.7768  -80.1008 H         1 18Z478      0.0000 
     54 H          96.0406   40.7783  -82.1329 H         1 18Z478      0.0000 
     55 H          94.5355   39.8712  -81.9054 H         1 18Z478      0.0000 
@<TRIPOS>BOND
     1   16    1 am   
     2   31    1 1    
     3   32    1 1    
     4   14    2 1    
     5   22    2 1    
     6   33    2 1    
     7   12    3 1    
     8   17    3 1    
     9   34    3 1    
    10   19    4 ar   
    11   20    4 ar   
    12   20    5 ar   
    13   21    5 ar   
    14   20    6 1    
    15   35    6 1    
    16   36    6 1    
    17   23    7 1    
    18   24    7 1    
    19   27    7 1    
    20   37    7 1    
    21   25    8 1    
    22   26    8 1    
    23   15    9 1    
    24   29    9 2    
    25   30    9 2    
    26   11   10 ar   
    27   15   10 ar   
    28   38   10 1    
    29   12   11 ar   
    30   16   11 1    
    31   13   12 ar   
    32   14   13 ar   
    33   39   13 1    
    34   15   14 ar   
    35   28   16 2    
    36   18   17 1    
    37   40   17 1    
    38   41   17 1    
    39   19   18 ar   
    40   21   18 ar   
    41   42   19 1    
    42   43   21 1    
    43   23   22 1    
    44   44   22 1    
    45   45   22 1    
    46   46   23 1    
    47   47   23 1    
    48   25   24 1    
    49   48   24 1    
    50   49   24 1    
    51   50   25 1    
    52   51   25 1    
    53   27   26 1    
    54   52   26 1    
    55   53   26 1    
    56   54   27 1    
    57   55   27 1    
@<TRIPOS>SUBSTRUCTURE
     1 18Z478      1 GROUP   
@<TRIPOS>SET

