#    Name: 2r2m_I50_1_INTS_M
#    Modification time : Mon Mar 24 23:03:30 2014

@<TRIPOS>MOLECULE
2r2m_I50_1_INTS_M
   73     0     9     0     0
SMALL
NO_CHARGES


@<TRIPOS>ATOM
      1 OD1         9.6540  -10.5650   25.2720 O.co2     2 ASC3        0.0000 
      2 OD1        11.2820  -11.8930   24.1440 O.co2     8 ASL3        0.0000 
      3 OD1         8.2140  -10.3720   25.8900 O.co2     5 ASP3        0.0000 
      4 OD1         9.1935  -12.7550   25.1230 O.co2     2 ASC3        0.0000 
      5 OD1         8.0830  -12.5610   25.9130 O.co2     5 ASP3        0.0000 
      6 CA         12.4750  -12.2410   19.0385 C.3       3 GLC5        0.0000 
      7 CA         13.5960  -11.6280   20.7120 C.3       9 GLL5        0.0000 
      8 CA         11.3540  -12.8540   17.3650 C.3       6 GLP5        0.0000 
      9 CA         18.3420  -11.1980   19.6260 C.3       3 GLC5        0.0000 
     10 CA         17.4290  -12.4680   20.7380 C.3       9 GLL5        0.0000 
     11 CA         19.2550   -9.9280   18.5140 C.3       6 GLP5        0.0000 
     12 O           9.6540  -10.5650   25.2720 O.2       1 ALC1        0.0000 
     13 O          11.0940  -10.7580   24.6540 O.2       7 ALL1        0.0000 
     14 O           8.2140  -10.3720   25.8900 O.2       4 ALP1        0.0000 
     15 O           9.1935  -12.7550   25.1230 O.2       1 ALC1        0.0000 
     16 O          10.3040  -12.9490   24.3330 O.2       7 ALL1        0.0000 
     17 O           8.0830  -12.5610   25.9130 O.2       4 ALP1        0.0000 
     18 O          10.3955  -14.3430   24.3020 O.2       1 ALC1        0.0000 
     19 O          10.4870  -15.7370   24.2710 O.2       4 ALP1        0.0000 
     20 CA         10.9835  -11.1880   20.8465 C.3       3 GLC5        0.0000 
     21 CA         12.9150  -10.4740   21.4530 C.3       9 GLL5        0.0000 
     22 CA          9.0520  -11.9020   20.2400 C.3       6 GLP5        0.0000 
     23 CA         12.6580   -8.6340   21.6370 C.3       3 GLC5        0.0000 
     24 CA         12.4010   -6.7940   21.8210 C.3       6 GLP5        0.0000 
     25 CA         14.4640  -10.6680   23.0255 C.3       3 GLC5        0.0000 
     26 CA         16.0130  -10.8620   24.5980 C.3       6 GLP5        0.0000 
     27 O          15.8345  -10.4345   21.6610 O.2       1 ALC1        0.0000 
     28 O          15.0380  -11.4860   20.8980 O.2       7 ALL1        0.0000 
     29 O          16.6310   -9.3830   22.4240 O.2       4 ALP1        0.0000 
     30 CA         19.7080  -11.5855   19.1050 C.3       3 GLC5        0.0000 
     31 CA         20.1610  -13.2430   19.6960 C.3       9 GLL5        0.0000 
     32 CA         21.5770  -14.3790   19.3090 C.3       3 GLC5        0.0000 
     33 CA         22.9930  -15.5150   18.9220 C.3       6 GLP5        0.0000 
     34 CA         19.5740  -14.3940   18.2915 C.3       3 GLC5        0.0000 
     35 CA         18.9870  -15.5450   16.8870 C.3       6 GLP5        0.0000 
     36 CA         20.5000  -12.2900   21.4180 C.3       3 GLC5        0.0000 
     37 CA         20.8390  -11.3370   23.1400 C.3       6 GLP5        0.0000 
     38 CA         15.0575  -13.7105   24.6135 C.3       3 GLC5        0.0000 
     39 CA         16.1630  -13.9770   22.9160 C.3       9 GLL5        0.0000 
     40 CA         13.9520  -13.4440   26.3110 C.3       6 GLP5        0.0000 
     41 O          16.0265  -15.7455   24.6300 O.2       1 ALC1        0.0000 
     42 O          17.3490  -16.1960   24.1720 O.2       7 ALL1        0.0000 
     43 O          14.7040  -15.2950   25.0880 O.2       4 ALP1        0.0000 
     44 CA         22.2035  -12.8645   24.6430 C.3       3 GLC5        0.0000 
     45 CA         22.1470  -14.5890   25.5970 C.3       9 GLL5        0.0000 
     46 CA         22.2600  -11.1400   23.6890 C.3       6 GLP5        0.0000 
     47 CA         20.8775  -12.6785   24.5780 C.3       3 GLC5        0.0000 
     48 CA         20.9160  -14.0200   26.0160 C.3       9 GLL5        0.0000 
     49 CA         18.8135  -16.3580   28.5310 C.3       3 GLC5        0.0000 
     50 CA         17.6690  -16.4360   26.8250 C.3       9 GLL5        0.0000 
     51 CA         19.9580  -16.2800   30.2370 C.3       6 GLP5        0.0000 
     52 CA         17.4050  -14.7650   27.3075 C.3       3 GLC5        0.0000 
     53 CA         17.1410  -13.0940   27.7900 C.3       6 GLP5        0.0000 
     54 CA         19.9945  -17.6775   28.1245 C.3       3 GLC5        0.0000 
     55 CA         18.8830  -18.3030   26.6480 C.3       9 GLL5        0.0000 
     56 CA         21.1060  -17.0520   29.6010 C.3       6 GLP5        0.0000 
     57 CA         19.2892  -12.2070   22.1125 C.3       3 GLC5        0.0000 
     58 CA         18.0500  -13.6860   21.4320 C.3       9 GLL5        0.0000 
     59 CA         17.5583  -12.2885   22.9895 C.3       3 GLC5        0.0000 
     60 CA         17.3770  -11.5000   24.8940 C.3       6 GLP5        0.0000 
     61 CA         20.2432  -13.0045   22.2267 C.3       3 GLC5        0.0000 
     62 CA         19.3340  -14.1170   21.0090 C.3       9 GLL5        0.0000 
     63 CA         18.8618  -12.9630   25.4940 C.3       3 GLC5        0.0000 
     64 CA         19.7770  -14.8320   26.1720 C.3       9 GLL5        0.0000 
     65 CA         17.1541  -12.9764   23.8710 C.3       3 GLC5        0.0000 
     66 CA         17.3890  -14.3750   22.4770 C.3       9 GLL5        0.0000 
     67 CA         20.7004  -16.6625   27.6944 C.3       3 GLC5        0.0000 
     68 CA         19.8580  -16.2290   25.9150 C.3       9 GLL5        0.0000 
     69 CA         22.8903  -13.3577   26.9043 C.3       3 GLC5        0.0000 
     70 CA         24.2490  -12.4110   28.0020 C.3       6 GLP5        0.0000 
     71 CA         16.7627  -17.4466   27.4590 C.3       3 GLC5        0.0000 
     72 CA         18.5950  -17.1030   26.0710 C.3       9 GLL5        0.0000 
     73 CA         15.0180  -17.3570   28.3700 C.3       6 GLP5        0.0000 
@<TRIPOS>BOND
@<TRIPOS>SUBSTRUCTURE
     1 ALC1       12 GROUP        1 X    ALC  0     ROOT ALC X 1
     2 ASC3        1 GROUP        1 X    ASC  0     **** ASC X 3
     3 GLC5        6 GROUP        1 X    GLC  0     **** GLC X 6
     4 ALP1       14 GROUP        1 Y    ALP  0     ROOT ALP Y 8
     5 ASP3        3 GROUP        1 Y    ASP  0     **** ASP Y 10
     6 GLP5        8 GROUP        1 Y    GLP  0     **** GLP Y 13
     7 ALL1       13 GROUP        1 Z    ALL  0     ROOT ALL Z 15
     8 ASL3        2 GROUP        1 Z    ASL  0     **** ASL Z 17
     9 GLL5        7 GROUP        1 Z    GLL  0     **** GLL Z 20
@<TRIPOS>SET

