#    Name: 2r2m_I50_1_ligand
#    Modification time : Mon Mar 24 23:03:30 2014

@<TRIPOS>MOLECULE
2r2m_I50_1_ligand
   52    53     1     0     0
SMALL
NO_CHARGES


@<TRIPOS>ATOM
      1 C1         11.2820  -11.8930   24.1440 C.cat     1 I505000     0.0000 
      2 O5         12.8320  -10.8210   22.8090 O.3       1 I505000     0.0000 
      3 C7         13.5960  -11.6280   20.7120 C.3       1 I505000     0.0000 
      4 C9         15.9110  -12.6250   20.6430 C.2       1 I505000     0.0000 
      5 C11        17.4290  -12.4680   20.7380 C.3       1 I505000     0.0000 
      6 C12        18.0500  -13.6860   21.4320 C.ar      1 I505000     0.0000 
      7 C13        17.3890  -14.3750   22.4770 C.ar      1 I505000     0.0000 
      8 C14        18.0100  -15.4820   23.0830 C.ar      1 I505000     0.0000 
      9 C15        19.2980  -15.9110   22.6540 C.ar      1 I505000     0.0000 
     10 C16        19.9610  -15.2270   21.6180 C.ar      1 I505000     0.0000 
     11 C21        17.9920  -17.4000   24.6850 C.3       1 I505000     0.0000 
     12 C24        18.5950  -17.1030   26.0710 C.3       1 I505000     0.0000 
     13 C27        22.2290  -15.9830   25.3400 C.ar      1 I505000     0.0000 
     14 C30        19.7770  -14.8320   26.1720 C.ar      1 I505000     0.0000 
     15 N2         11.0940  -10.7580   24.6540 N.pl3     1 I505000     0.0000 
     16 N3         10.3040  -12.9490   24.3330 N.pl3     1 I505000     0.0000 
     17 N4         12.3530  -12.0830   23.1850 N.pl3     1 I505000     0.0000 
     18 C6         12.9150  -10.4740   21.4530 C.3       1 I505000     0.0000 
     19 N8         15.0380  -11.4860   20.8980 N.am      1 I505000     0.0000 
     20 O10        15.4670  -13.6050   20.1460 O.2       1 I505000     0.0000 
     21 C17        19.3340  -14.1170   21.0090 C.ar      1 I505000     0.0000 
     22 CL18       20.1610  -13.2430   19.6960 Cl        1 I505000     0.0000 
     23 F19        16.1630  -13.9770   22.9160 F         1 I505000     0.0000 
     24 N20        17.3490  -16.1960   24.1720 N.pl3     1 I505000     0.0000 
     25 C25        19.8580  -16.2290   25.9150 C.ar      1 I505000     0.0000 
     26 C26        21.0880  -16.7970   25.4930 C.ar      1 I505000     0.0000 
     27 C28        22.1470  -14.5890   25.5970 C.ar      1 I505000     0.0000 
     28 C29        20.9160  -14.0200   26.0160 C.ar      1 I505000     0.0000 
     29 F31        17.6690  -16.4360   26.8250 F         1 I505000     0.0000 
     30 F32        18.8830  -18.3030   26.6480 F         1 I505000     0.0000 
     31 H          13.3275  -11.5673   19.6643 H         1 I505000     0.0000 
     32 H          13.2365  -12.5612   21.1285 H         1 I505000     0.0000 
     33 H          17.6636  -11.5739   21.3084 H         1 I505000     0.0000 
     34 H          17.8448  -12.3759   19.7387 H         1 I505000     0.0000 
     35 H          19.7351  -16.7167   23.1031 H         1 I505000     0.0000 
     36 H          20.8825  -15.5269   21.3090 H         1 I505000     0.0000 
     37 H          17.2766  -18.2136   24.7968 H         1 I505000     0.0000 
     38 H          18.7986  -17.7273   24.0304 H         1 I505000     0.0000 
     39 H          23.1161  -16.3916   25.0446 H         1 I505000     0.0000 
     40 H          18.8898  -14.4251   26.4692 H         1 I505000     0.0000 
     41 H          10.2656  -10.6547   25.2045 H         1 I505000     0.0000 
     42 H          11.7909  -10.0676   24.4601 H         1 I505000     0.0000 
     43 H           9.5053  -12.7150   24.8874 H         1 I505000     0.0000 
     44 H          10.5098  -13.8232   23.8932 H         1 I505000     0.0000 
     45 H          12.6522  -12.9166   22.8864 H         1 I505000     0.0000 
     46 H          13.5151   -9.5776   21.2840 H         1 I505000     0.0000 
     47 H          11.9346  -10.3253   20.9959 H         1 I505000     0.0000 
     48 H          15.4228  -10.6111   21.1988 H         1 I505000     0.0000 
     49 H          16.4932  -15.8727   24.5486 H         1 I505000     0.0000 
     50 H          21.1428  -17.7988   25.3006 H         1 I505000     0.0000 
     51 H          22.9682  -14.0000   25.4811 H         1 I505000     0.0000 
     52 H          20.8619  -13.0166   26.2038 H         1 I505000     0.0000 
@<TRIPOS>BOND
     1   15    1 ar   
     2   16    1 ar   
     3   17    1 ar   
     4   17    2 1    
     5   18    2 1    
     6   18    3 1    
     7   19    3 1    
     8   31    3 1    
     9   32    3 1    
    10    5    4 1    
    11   19    4 am   
    12   20    4 2    
    13    6    5 1    
    14   33    5 1    
    15   34    5 1    
    16    7    6 ar   
    17   21    6 ar   
    18    8    7 ar   
    19   23    7 1    
    20    9    8 ar   
    21   24    8 1    
    22   10    9 ar   
    23   35    9 1    
    24   21   10 ar   
    25   36   10 1    
    26   12   11 1    
    27   24   11 1    
    28   37   11 1    
    29   38   11 1    
    30   25   12 1    
    31   29   12 1    
    32   30   12 1    
    33   26   13 ar   
    34   27   13 ar   
    35   39   13 1    
    36   25   14 ar   
    37   28   14 ar   
    38   40   14 1    
    39   41   15 1    
    40   42   15 1    
    41   43   16 1    
    42   44   16 1    
    43   45   17 1    
    44   46   18 1    
    45   47   18 1    
    46   48   19 1    
    47   22   21 1    
    48   49   24 1    
    49   26   25 ar   
    50   50   26 1    
    51   28   27 ar   
    52   51   27 1    
    53   52   28 1    
@<TRIPOS>SUBSTRUCTURE
     1 I505000     1 GROUP   
@<TRIPOS>SET

