#    Name: 3qup_LUN_1_INTS_M
#    Modification time : Tue Mar 25 10:09:53 2014

@<TRIPOS>MOLECULE
3qup_LUN_1_INTS_M
   82     0    12     0     0
SMALL
NO_CHARGES


@<TRIPOS>ATOM
      1 CA          8.8930   -9.2735   13.3275 C.3       4 GLC5        0.0000 
      2 CA         10.1140   -9.1220   14.7860 C.3      12 GLL5        0.0000 
      3 CA          7.6720   -9.4250   11.8690 C.3       8 GLP5        0.0000 
      4 CA         12.5955   -5.8625   16.9215 C.3       4 GLC5        0.0000 
      5 CA         11.4010   -7.1810   15.6740 C.3      12 GLL5        0.0000 
      6 CA         13.7900   -4.5440   18.1690 C.3       8 GLP5        0.0000 
      7 CA         10.4385   -6.3185   17.3635 C.3       4 GLC5        0.0000 
      8 CA          9.4760   -5.4560   19.0530 C.3       8 GLP5        0.0000 
      9 CA          8.2680   -9.1045   17.0615 C.3       4 GLC5        0.0000 
     10 CA          8.1400   -7.9940   15.2020 C.3      12 GLL5        0.0000 
     11 CA          8.3960  -10.2150   18.9210 C.3       8 GLP5        0.0000 
     12 OD1        12.5225   -5.5270   13.9025 O.co2     3 ASC3        0.0000 
     13 OD1        12.4500   -6.9770   13.5480 O.co2    11 ASL3        0.0000 
     14 OD1        12.5950   -4.0770   14.2570 O.co2     7 ASP3        0.0000 
     15 OD1        12.1490   -5.6720   12.8890 O.co2     3 ASC3        0.0000 
     16 OD1        11.8480   -4.3670   12.2300 O.co2     7 ASP3        0.0000 
     17 O          12.5225   -5.5270   13.9025 O.2       1 ALC1        0.0000 
     18 O          12.4500   -6.9770   13.5480 O.2       9 ALL1        0.0000 
     19 O          12.5950   -4.0770   14.2570 O.2       5 ALP1        0.0000 
     20 O          12.1490   -5.6720   12.8890 O.2       1 ALC1        0.0000 
     21 O          11.8480   -4.3670   12.2300 O.2       5 ALP1        0.0000 
     22 CA         13.7580   -5.6895   16.0105 C.3       4 GLC5        0.0000 
     23 CA         12.7510   -7.1270   14.9920 C.3      12 GLL5        0.0000 
     24 CA         14.7650   -4.2520   17.0290 C.3       8 GLP5        0.0000 
     25 CA          5.0235   -6.0270   16.9900 C.3       4 GLC5        0.0000 
     26 CA          6.4340   -6.3650   15.3650 C.3      12 GLL5        0.0000 
     27 CA          3.6130   -5.6890   18.6150 C.3       8 GLP5        0.0000 
     28 CA          8.4695  -10.9300   16.7915 C.3       4 GLC5        0.0000 
     29 CA          8.5430  -11.6450   14.6620 C.3      12 GLL5        0.0000 
     30 N           5.4880  -10.9000   15.3940 N.am      2 SEC2        0.0000 
     31 N           6.7560  -10.4270   15.4130 N.am     10 SEL2        0.0000 
     32 N           4.2200  -11.3730   15.3750 N.am      6 SEP2        0.0000 
     33 CA         16.1730   -7.6305   14.0820 C.3       4 GLC5        0.0000 
     34 CA         14.8460   -7.0420   12.9640 C.3      12 GLL5        0.0000 
     35 CA         17.5000   -8.2190   15.2000 C.3       8 GLP5        0.0000 
     36 O           6.5740  -12.6365   13.4635 O.2       1 ALC1        0.0000 
     37 O           7.7680  -12.6110   14.0910 O.2       9 ALL1        0.0000 
     38 O           5.3800  -12.6620   12.8360 O.2       5 ALP1        0.0000 
     39 CA         17.1715   -7.6620   13.1315 C.3       4 GLC5        0.0000 
     40 CA         15.8630   -7.5510   11.9460 C.3      12 GLL5        0.0000 
     41 CA         18.4800   -7.7730   14.3170 C.3       8 GLP5        0.0000 
     42 CA         15.1860   -6.9115    8.4605 C.3       4 GLC5        0.0000 
     43 CA         15.4130   -7.2160   10.5330 C.3      12 GLL5        0.0000 
     44 CA         14.9590   -6.6070    6.3880 C.3       8 GLP5        0.0000 
     45 CA         11.5445  -14.6195   15.5690 C.3       4 GLC5        0.0000 
     46 CA         10.7790  -14.3920   13.7520 C.3      12 GLL5        0.0000 
     47 CA         12.3100  -14.8470   17.3860 C.3       8 GLP5        0.0000 
     48 CA          6.0095  -14.9705   12.9940 C.3       4 GLC5        0.0000 
     49 CA          8.0610  -14.8540   13.0850 C.3      12 GLL5        0.0000 
     50 CA          3.9580  -15.0870   12.9030 C.3       8 GLP5        0.0000 
     51 CA         10.2930  -15.9220   15.3065 C.3       4 GLC5        0.0000 
     52 CA         10.3600  -15.5620   13.1450 C.3      12 GLL5        0.0000 
     53 CA         10.2260  -16.2820   17.4680 C.3       8 GLP5        0.0000 
     54 CA          9.6355   -7.7997   12.5018 C.3       4 GLC5        0.0000 
     55 CA         10.4110   -7.6330   14.6510 C.3      12 GLL5        0.0000 
     56 CA          8.5500   -8.1000   11.0310 C.3       8 GLP5        0.0000 
     57 CA          8.1255   -6.5642   13.0385 C.3       4 GLC5        0.0000 
     58 CA          8.6740   -5.7040   14.8030 C.3      12 GLL5        0.0000 
     59 CA          7.3840   -6.7630   11.2350 C.3       8 GLP5        0.0000 
     60 CA         13.2740   -8.3575   16.4390 C.3       4 GLC5        0.0000 
     61 CA         14.4720   -9.5610   17.5450 C.3       8 GLP5        0.0000 
     62 CA          7.5773   -8.6322   13.5965 C.3       4 GLC5        0.0000 
     63 CA          6.8250   -7.6850   15.4460 C.3      12 GLL5        0.0000 
     64 CA          8.1285   -4.3202   13.5105 C.3       4 GLC5        0.0000 
     65 CA          8.2430   -3.1020   12.0950 C.3       8 GLP5        0.0000 
     66 CA          5.2103   -7.2020   14.2628 C.3       4 GLC5        0.0000 
     67 CA          3.7910   -7.3790   13.1200 C.3       8 GLP5        0.0000 
     68 CA          5.8675   -4.3220   14.5685 C.3       4 GLC5        0.0000 
     69 CA          4.8410   -2.7750   13.9300 C.3       8 GLP5        0.0000 
     70 CA          8.0927   -5.4701   16.7847 C.3       4 GLC5        0.0000 
     71 CA          7.3540   -5.3730   15.0490 C.3      12 GLL5        0.0000 
     72 CA          8.0750   -5.0710   18.6240 C.3       8 GLP5        0.0000 
     73 CA          7.1390   -6.3160   13.2210 C.3       4 GLC5        0.0000 
     74 CA          7.0066   -6.6021   17.2287 C.3       4 GLC5        0.0000 
     75 CA          7.0550   -6.1020   19.1130 C.3       8 GLP5        0.0000 
     76 CA          8.4298  -10.6610   13.2600 C.3       4 GLC5        0.0000 
     77 CA          9.9942  -13.3800   16.3590 C.3       4 GLC5        0.0000 
     78 CA          9.8320  -12.1490   14.6400 C.3      12 GLL5        0.0000 
     79 CA         10.1680  -13.9670   18.3800 C.3       8 GLP5        0.0000 
     80 CA          7.9220  -13.4210   11.6025 C.3       4 GLC5        0.0000 
     81 CA          8.4950  -13.6980   13.6990 C.3      12 GLL5        0.0000 
     82 CA          7.5660  -12.5660    9.8130 C.3       8 GLP5        0.0000 
@<TRIPOS>BOND
@<TRIPOS>SUBSTRUCTURE
     1 ALC1       17 GROUP        1 X    ALC  0     ROOT ALC X 1
     2 SEC2       30 GROUP        1 X    SEC  0     **** SEC X 2
     3 ASC3       12 GROUP        1 X    ASC  0     **** ASC X 3
     4 GLC5        1 GROUP        1 X    GLC  0     **** GLC X 6
     5 ALP1       19 GROUP        1 Y    ALP  0     ROOT ALP Y 8
     6 SEP2       32 GROUP        1 Y    SEP  0     **** SEP Y 9
     7 ASP3       14 GROUP        1 Y    ASP  0     **** ASP Y 10
     8 GLP5        3 GROUP        1 Y    GLP  0     **** GLP Y 13
     9 ALL1       18 GROUP        1 Z    ALL  0     ROOT ALL Z 15
    10 SEL2       31 GROUP        1 Z    SEL  0     **** SEL Z 16
    11 ASL3       13 GROUP        1 Z    ASL  0     **** ASL Z 17
    12 GLL5        2 GROUP        1 Z    GLL  0     **** GLL Z 20
@<TRIPOS>SET

