#    Name: 3qup_LUN_1_ligand
#    Modification time : Tue Mar 25 10:09:53 2014

@<TRIPOS>MOLECULE
3qup_LUN_1_ligand
   58    63     1     0     0
SMALL
NO_CHARGES


@<TRIPOS>ATOM
      1 C1         10.4110   -7.6330   14.6510 C.3       1 LUN1        0.0000 
      2 C2          9.0600   -7.0270   14.8810 C.ar      1 LUN1        0.0000 
      3 C3         10.1140   -9.1220   14.7860 C.3       1 LUN1        0.0000 
      4 C4         11.0310   -7.3660   13.2940 C.3       1 LUN1        0.0000 
      5 C5         11.4010   -7.1810   15.6740 C.3       1 LUN1        0.0000 
      6 C6          8.1400   -7.9940   15.2020 C.ar      1 LUN1        0.0000 
      7 C7          8.6740   -5.7040   14.8030 C.ar      1 LUN1        0.0000 
      8 N8          8.7300   -9.2630   15.2120 N.am      1 LUN1        0.0000 
      9 N9         12.4500   -6.9770   13.5480 N.4       1 LUN1        0.0000 
     10 C10        12.7510   -7.1270   14.9920 C.3       1 LUN1        0.0000 
     11 C11         6.8250   -7.6850   15.4460 C.ar      1 LUN1        0.0000 
     12 C12         7.3540   -5.3730   15.0490 C.ar      1 LUN1        0.0000 
     13 C13         7.9510  -10.4290   15.1240 C.2       1 LUN1        0.0000 
     14 C14        13.4640   -7.6100   12.6550 C.3       1 LUN1        0.0000 
     15 C15         6.4340   -6.3650   15.3650 C.ar      1 LUN1        0.0000 
     16 C16         8.5430  -11.6450   14.6620 C.2       1 LUN1        0.0000 
     17 O17         6.7560  -10.4270   15.4130 O.2       1 LUN1        0.0000 
     18 C18        14.8460   -7.0420   12.9640 C.3       1 LUN1        0.0000 
     19 C19        13.1270   -7.2050   11.2400 C.3       1 LUN1        0.0000 
     20 C20         9.8320  -12.1490   14.6400 C.2       1 LUN1        0.0000 
     21 N21         7.7680  -12.6110   14.0910 N.pl3     1 LUN1        0.0000 
     22 C22        15.8630   -7.5510   11.9460 C.3       1 LUN1        0.0000 
     23 N23        14.0820   -7.7900   10.2980 N.3       1 LUN1        0.0000 
     24 C24         9.8090  -13.4370   14.0360 C.ar      1 LUN1        0.0000 
     25 C25         8.4950  -13.6980   13.6990 C.ar      1 LUN1        0.0000 
     26 C26        15.4130   -7.2160   10.5330 C.3       1 LUN1        0.0000 
     27 C27        10.7790  -14.3920   13.7520 C.ar      1 LUN1        0.0000 
     28 C28         8.0610  -14.8540   13.0850 C.ar      1 LUN1        0.0000 
     29 C29        10.3600  -15.5620   13.1450 C.ar      1 LUN1        0.0000 
     30 C30         9.0420  -15.7820   12.8190 C.ar      1 LUN1        0.0000 
     31 F31        11.2700  -16.5290   12.8460 F         1 LUN1        0.0000 
     32 H          10.7960   -9.5435   15.5174 H         1 LUN1        0.0000 
     33 H          10.2796   -9.5941   13.8230 H         1 LUN1        0.0000 
     34 H          10.5037   -6.5616   12.8121 H         1 LUN1        0.0000 
     35 H          10.9899   -8.2619   12.6998 H         1 LUN1        0.0000 
     36 H          11.4400   -7.8840   16.4911 H         1 LUN1        0.0000 
     37 H          11.1420   -6.1980   16.0346 H         1 LUN1        0.0000 
     38 H           9.3555   -4.9760   14.5661 H         1 LUN1        0.0000 
     39 H          12.4971   -5.8519   13.3471 H         1 LUN1        0.0000 
     40 H          13.2792   -8.0422   15.1751 H         1 LUN1        0.0000 
     41 H          13.2991   -6.2793   15.3540 H         1 LUN1        0.0000 
     42 H           6.1486   -8.4145   15.6826 H         1 LUN1        0.0000 
     43 H           7.0494   -4.3898   14.9986 H         1 LUN1        0.0000 
     44 H          13.4657   -8.6477   12.7454 H         1 LUN1        0.0000 
     45 H           5.4477   -6.1064   15.5403 H         1 LUN1        0.0000 
     46 H          15.1482   -7.3522   13.9602 H         1 LUN1        0.0000 
     47 H          14.8071   -5.9573   12.9219 H         1 LUN1        0.0000 
     48 H          13.1430   -6.1104   11.1746 H         1 LUN1        0.0000 
     49 H          12.1076   -7.5392   11.0122 H         1 LUN1        0.0000 
     50 H          10.6130  -11.7248   14.9667 H         1 LUN1        0.0000 
     51 H           6.7920  -12.5338   13.9740 H         1 LUN1        0.0000 
     52 H          15.9631   -8.6296   12.0484 H         1 LUN1        0.0000 
     53 H          16.8272   -7.0852   12.1393 H         1 LUN1        0.0000 
     54 H          16.1390   -7.6247    9.8301 H         1 LUN1        0.0000 
     55 H          15.3906   -6.1318   10.4224 H         1 LUN1        0.0000 
     56 H          11.7509  -14.2340   13.9815 H         1 LUN1        0.0000 
     57 H           7.1008  -15.0061   12.8501 H         1 LUN1        0.0000 
     58 H           8.7767  -16.6820   12.3547 H         1 LUN1        0.0000 
@<TRIPOS>BOND
     1    2    1 1    
     2    3    1 1    
     3    4    1 1    
     4    5    1 1    
     5    6    2 ar   
     6    7    2 ar   
     7    8    3 1    
     8   32    3 1    
     9   33    3 1    
    10    9    4 1    
    11   34    4 1    
    12   35    4 1    
    13   10    5 1    
    14   36    5 1    
    15   37    5 1    
    16    8    6 1    
    17   11    6 ar   
    18   12    7 ar   
    19   38    7 1    
    20   13    8 am   
    21   10    9 1    
    22   14    9 1    
    23   39    9 1    
    24   40   10 1    
    25   41   10 1    
    26   15   11 ar   
    27   42   11 1    
    28   15   12 ar   
    29   43   12 1    
    30   16   13 1    
    31   17   13 2    
    32   18   14 1    
    33   19   14 1    
    34   44   14 1    
    35   45   15 1    
    36   20   16 2    
    37   21   16 1    
    38   22   18 1    
    39   46   18 1    
    40   47   18 1    
    41   23   19 1    
    42   48   19 1    
    43   49   19 1    
    44   24   20 1    
    45   50   20 1    
    46   25   21 1    
    47   51   21 1    
    48   26   22 1    
    49   52   22 1    
    50   53   22 1    
    51   26   23 1    
    52   25   24 ar   
    53   27   24 ar   
    54   28   25 ar   
    55   54   26 1    
    56   55   26 1    
    57   29   27 ar   
    58   56   27 1    
    59   30   28 ar   
    60   57   28 1    
    61   30   29 ar   
    62   31   29 1    
    63   58   30 1    
@<TRIPOS>SUBSTRUCTURE
     1 LUN1        1 GROUP   
@<TRIPOS>SET

