#    Name: 3hmm_855_1_INTS_M
#    Modification time : Tue Mar 25 14:32:08 2014

@<TRIPOS>MOLECULE
3hmm_855_1_INTS_M
   75     0     6     0     0
SMALL
NO_CHARGES


@<TRIPOS>ATOM
      1 CA          9.1155   64.8870    6.3600 C.3       2 GLC5        0.0000 
      2 CA         10.3020   63.9450    5.4270 C.3       6 GLL5        0.0000 
      3 CA          7.9290   65.8290    7.2930 C.3       4 GLP5        0.0000 
      4 CA          8.6195   63.6525    4.2845 C.3       2 GLC5        0.0000 
      5 CA          6.9370   63.3600    3.1420 C.3       4 GLP5        0.0000 
      6 CA         11.7400   66.0860    4.4845 C.3       2 GLC5        0.0000 
      7 CA         11.6880   64.0670    4.8800 C.3       6 GLL5        0.0000 
      8 CA         11.7920   68.1050    4.0890 C.3       4 GLP5        0.0000 
      9 CA         14.6480   62.2685    2.2735 C.3       2 GLC5        0.0000 
     10 CA         13.3770   63.5740    3.2040 C.3       6 GLL5        0.0000 
     11 CA         15.9190   60.9630    1.3430 C.3       4 GLP5        0.0000 
     12 CA         16.4590   64.3750    4.1890 C.3       2 GLC5        0.0000 
     13 CA         14.3050   64.3710    3.9220 C.3       6 GLL5        0.0000 
     14 CA         18.6130   64.3790    4.4560 C.3       4 GLP5        0.0000 
     15 CA         16.5805   64.8160    6.4000 C.3       2 GLC5        0.0000 
     16 CA         14.7430   65.8590    5.9240 C.3       6 GLL5        0.0000 
     17 CA         18.4180   63.7730    6.8760 C.3       4 GLP5        0.0000 
     18 CA         17.5435   65.8975    5.1935 C.3       2 GLC5        0.0000 
     19 CA         16.4740   67.4160    5.9310 C.3       6 GLL5        0.0000 
     20 CA         17.9955   66.4625    4.1330 C.3       2 GLC5        0.0000 
     21 CA         17.3780   68.5460    3.8100 C.3       6 GLL5        0.0000 
     22 CA         16.1085   68.7980   -0.2805 C.3       2 GLC5        0.0000 
     23 CA         16.2750   68.8500    1.6470 C.3       6 GLL5        0.0000 
     24 CA         15.9420   68.7460   -2.2080 C.3       4 GLP5        0.0000 
     25 CA         15.1935   70.6045    0.9625 C.3       2 GLC5        0.0000 
     26 CA         14.1120   72.3590    0.2780 C.3       4 GLP5        0.0000 
     27 CA         17.9250   70.8675    0.3075 C.3       2 GLC5        0.0000 
     28 CA         18.5140   69.5380    1.9100 C.3       6 GLL5        0.0000 
     29 CA         17.3360   72.1970   -1.2950 C.3       4 GLP5        0.0000 
     30 CA         16.9455   70.1735    6.8310 C.3       2 GLC5        0.0000 
     31 CA         17.2160   68.4350    8.1520 C.3       6 GLL5        0.0000 
     32 CA         16.6750   71.9120    5.5100 C.3       4 GLP5        0.0000 
     33 CA         15.1855   64.5535    8.1120 C.3       2 GLC5        0.0000 
     34 CA         15.3920   66.7510    7.9650 C.3       6 GLL5        0.0000 
     35 CA         14.9790   62.3560    8.2590 C.3       4 GLP5        0.0000 
     36 CA         13.9045   68.4000    7.6350 C.3       2 GLC5        0.0000 
     37 CA         12.4170   70.0490    7.3050 C.3       4 GLP5        0.0000 
     38 N          13.9460   64.9155    8.1895 N.am      1 SEC2        0.0000 
     39 N          14.5800   65.9150    7.2720 N.am      5 SEL2        0.0000 
     40 N          13.3120   63.9160    9.1070 N.am      3 SEP2        0.0000 
     41 CA         12.2515   63.3360    6.7297 C.3       2 GLC5        0.0000 
     42 CA         13.5080   62.6660    8.3060 C.3       4 GLP5        0.0000 
     43 CA         11.6030   64.7840    2.7062 C.3       2 GLC5        0.0000 
     44 CA         11.3370   65.8240    1.1310 C.3       4 GLP5        0.0000 
     45 CA         11.1463   61.9457    4.6001 C.3       2 GLC5        0.0000 
     46 CA         12.0500   63.4210    3.6830 C.3       6 GLL5        0.0000 
     47 CA         10.7700   60.1780    4.7820 C.3       4 GLP5        0.0000 
     48 CA         12.0998   62.4128    1.8758 C.3       2 GLC5        0.0000 
     49 CA         11.4860   61.3280    0.3080 C.3       4 GLP5        0.0000 
     50 CA         14.8790   64.7283    2.0830 C.3       2 GLC5        0.0000 
     51 CA         15.9170   65.4840    0.6030 C.3       4 GLP5        0.0000 
     52 CA         12.5890   64.8982    2.3470 C.3       2 GLC5        0.0000 
     53 CA         14.1966   62.5401    4.8419 C.3       2 GLC5        0.0000 
     54 CA         14.8840   61.1460    6.0010 C.3       4 GLP5        0.0000 
     55 CA         13.9078   64.0465    6.9145 C.3       2 GLC5        0.0000 
     56 CA         13.8720   64.9950    5.1220 C.3       6 GLL5        0.0000 
     57 CA         13.0497   66.7660    4.8060 C.3       2 GLC5        0.0000 
     58 CA         17.3170   70.3733    4.5200 C.3       2 GLC5        0.0000 
     59 CA         16.0805   67.0563    1.4578 C.3       2 GLC5        0.0000 
     60 CA         16.2130   68.4070    2.9780 C.3       6 GLL5        0.0000 
     61 CA         15.4465   69.9648    3.2428 C.3       2 GLC5        0.0000 
     62 CA         14.6490   71.3010    4.1730 C.3       4 GLP5        0.0000 
     63 CA         19.6205   67.7578    2.2335 C.3       2 GLC5        0.0000 
     64 CA         18.5400   69.1230    3.2500 C.3       6 GLL5        0.0000 
     65 CA         20.7140   66.1850    1.8870 C.3       4 GLP5        0.0000 
     66 CA         19.5295   71.1208    2.9500 C.3       2 GLC5        0.0000 
     67 CA         20.5320   72.9110    3.3200 C.3       4 GLP5        0.0000 
     68 CA         17.1573   65.4657    7.2633 C.3       2 GLC5        0.0000 
     69 CA         16.4010   67.5660    7.3360 C.3       6 GLL5        0.0000 
     70 CA         15.6822   69.5705   10.7535 C.3       2 GLC5        0.0000 
     71 CA         17.0370   68.4860    9.5570 C.3       6 GLL5        0.0000 
     72 CA         14.8210   71.0590   11.6460 C.3       4 GLP5        0.0000 
     73 CA         14.1932   67.7252   10.6270 C.3       2 GLC5        0.0000 
     74 CA         16.0500   67.6780   10.1650 C.3       6 GLL5        0.0000 
     75 CA         12.7430   68.2010   11.4880 C.3       4 GLP5        0.0000 
@<TRIPOS>BOND
@<TRIPOS>SUBSTRUCTURE
     1 SEC2       38 GROUP        1 X    SEC  0     ROOT SEC X 2
     2 GLC5        1 GROUP        1 X    GLC  0     **** GLC X 6
     3 SEP2       40 GROUP        1 Y    SEP  0     ROOT SEP Y 9
     4 GLP5        3 GROUP        1 Y    GLP  0     **** GLP Y 13
     5 SEL2       39 GROUP        1 Z    SEL  0     ROOT SEL Z 16
     6 GLL5        2 GROUP        1 Z    GLL  0     **** GLL Z 20
@<TRIPOS>SET

