#    Name: 3hmm_855_1_ligand
#    Modification time : Tue Mar 25 14:32:08 2014

@<TRIPOS>MOLECULE
3hmm_855_1_ligand
   40    43     1     0     0
SMALL
NO_CHARGES


@<TRIPOS>ATOM
      1 C1         10.3020   63.9450    5.4270 C.3       1 855857      0.0000 
      2 C2         11.6880   64.0670    4.8800 C.ar      1 855857      0.0000 
      3 C3         12.0500   63.4210    3.6830 C.ar      1 855857      0.0000 
      4 C4         13.3770   63.5740    3.2040 C.ar      1 855857      0.0000 
      5 C5         14.3050   64.3710    3.9220 C.ar      1 855857      0.0000 
      6 C6         13.8720   64.9950    5.1220 C.ar      1 855857      0.0000 
      7 N7         12.5740   64.8380    5.5860 N.ar      1 855857      0.0000 
      8 C8         14.7430   65.8590    5.9240 C.ar      1 855857      0.0000 
      9 N9         15.6620   66.5790    5.2540 N.ar      1 855857      0.0000 
     10 C10        16.4740   67.4160    5.9310 C.ar      1 855857      0.0000 
     11 C12        17.3780   68.5460    3.8100 C.ar      1 855857      0.0000 
     12 C17        16.2130   68.4070    2.9780 C.ar      1 855857      0.0000 
     13 C16        16.2750   68.8500    1.6470 C.ar      1 855857      0.0000 
     14 N15        17.4040   69.4140    1.0990 N.pl3     1 855857      0.0000 
     15 C14        18.5140   69.5380    1.9100 C.ar      1 855857      0.0000 
     16 C13        18.5400   69.1230    3.2500 C.ar      1 855857      0.0000 
     17 C18        16.4010   67.5660    7.3360 C.ar      1 855857      0.0000 
     18 C19        17.2160   68.4350    8.1520 C.ar      1 855857      0.0000 
     19 C20        17.0370   68.4860    9.5570 C.ar      1 855857      0.0000 
     20 C21        16.0500   67.6780   10.1650 C.ar      1 855857      0.0000 
     21 C22        15.2370   66.8210    9.3670 C.ar      1 855857      0.0000 
     22 C23        15.3920   66.7510    7.9650 C.ar      1 855857      0.0000 
     23 N24        14.5800   65.9150    7.2720 N.ar      1 855857      0.0000 
     24 N5         17.3950   68.1280    5.1530 N.pl3     1 855857      0.0000 
     25 H          11.3833   62.8593    3.1719 H         1 855857      0.0000 
     26 H          13.6635   63.1102    2.3424 H         1 855857      0.0000 
     27 H          15.2479   64.4919    3.5897 H         1 855857      0.0000 
     28 H          15.3729   67.9961    3.3588 H         1 855857      0.0000 
     29 H          15.4167   68.7410    1.0540 H         1 855857      0.0000 
     30 H          17.4221   69.7282    0.1334 H         1 855857      0.0000 
     31 H          19.3892   69.9639    1.5121 H         1 855857      0.0000 
     32 H          19.3780   69.2335    3.8121 H         1 855857      0.0000 
     33 H          17.9249   69.0137    7.7014 H         1 855857      0.0000 
     34 H          17.6167   69.1014   10.1229 H         1 855857      0.0000 
     35 H          15.9148   67.7040   11.1750 H         1 855857      0.0000 
     36 H          14.5217   66.2418    9.8289 H         1 855857      0.0000 
     37 H          18.3196   68.4207    5.7010 H         1 855857      0.0000 
     38 H          10.0639   62.9945    5.6267 H         1 855857      0.0000 
     39 H          10.1917   64.4597    6.2773 H         1 855857      0.0000 
     40 H           9.6175   64.2899    4.7847 H         1 855857      0.0000 
@<TRIPOS>BOND
     1    2    1 1    
     2   38    1 1    
     3   39    1 1    
     4   40    1 1    
     5    3    2 ar   
     6    7    2 ar   
     7    4    3 ar   
     8   25    3 1    
     9    5    4 ar   
    10   26    4 1    
    11    6    5 ar   
    12   27    5 1    
    13    7    6 ar   
    14    8    6 1    
    15    9    8 ar   
    16   23    8 ar   
    17   10    9 ar   
    18   17   10 ar   
    19   24   10 1    
    20   12   11 ar   
    21   16   11 ar   
    22   24   11 1    
    23   13   12 ar   
    24   28   12 1    
    25   14   13 ar   
    26   29   13 1    
    27   15   14 ar   
    28   30   14 1    
    29   16   15 ar   
    30   31   15 1    
    31   32   16 1    
    32   18   17 ar   
    33   22   17 ar   
    34   19   18 ar   
    35   33   18 1    
    36   20   19 ar   
    37   34   19 1    
    38   21   20 ar   
    39   35   20 1    
    40   22   21 ar   
    41   36   21 1    
    42   23   22 ar   
    43   37   24 1    
@<TRIPOS>SUBSTRUCTURE
     1 855857      1 GROUP   
@<TRIPOS>SET

