#    Name: 4K6S_1_CAVITY_N1_6.mol2
#    Modification time : Tue Mar 11 10:03:58 2014

@<TRIPOS>MOLECULE
4K6S_1_CAVITY_N1_6.mol2
   87     0     6     0     0
SMALL
NO_CHARGES


@<TRIPOS>ATOM
      1 NZ        -11.4941  -20.7887   -6.0485 N.2       3 LYS4        0.0000 
      2 DU         -6.3593  -21.0351  -10.3582 H         6 CUB7        0.0000 
      3 CA         -9.4121  -20.6578   -5.6637 C.3       5 GLY6        0.0000 
      4 NZ        -10.5888  -21.2468   -4.9437 N.2       3 LYS4        0.0000 
      5 NZ        -11.7655  -21.8359   -4.2237 N.2       3 LYS4        0.0000 
      6 CA         -6.8447  -20.7810   -7.8186 C.3       5 GLY6        0.0000 
      7 CA         -8.0214  -21.3700   -7.0986 C.3       5 GLY6        0.0000 
      8 CA         -9.1981  -21.9591   -6.3786 C.3       5 GLY6        0.0000 
      9 CZ        -10.3748  -22.5481   -5.6586 C.ar      4 PHE5        0.0000 
     10 CZ        -11.5515  -23.1371   -4.9386 C.ar      4 PHE5        0.0000 
     11 CZ         -4.2773  -20.9042   -9.9735 C.ar      4 PHE5        0.0000 
     12 CZ         -5.4540  -21.4932   -9.2534 C.ar      4 PHE5        0.0000 
     13 CA         -6.6307  -22.0822   -8.5334 C.3       5 GLY6        0.0000 
     14 CA         -7.8075  -22.6713   -7.8134 C.3       5 GLY6        0.0000 
     15 CZ        -10.1609  -23.8493   -6.3734 C.ar      4 PHE5        0.0000 
     16 N          -2.8867  -21.6164  -11.4083 N.2       2 ALA2        0.0000 
     17 CZ         -4.0634  -22.2054  -10.6883 C.ar      4 PHE5        0.0000 
     18 DU         -5.2401  -22.7945   -9.9683 H         6 CUB7        0.0000 
     19 DU         -6.4168  -23.3835   -9.2483 H         6 CUB7        0.0000 
     20 N          -2.6727  -22.9177  -12.1232 N.2       2 ALA2        0.0000 
     21 DU         -5.0261  -24.0957  -10.6832 H         6 CUB7        0.0000 
     22 DU         -6.2028  -24.6847   -9.9632 H         6 CUB7        0.0000 
     23 NZ         -9.8974  -20.4037   -3.1241 N.2       3 LYS4        0.0000 
     24 N          -8.5067  -21.1159   -4.5589 N.2       2 ALA2        0.0000 
     25 CZ         -9.6835  -21.7049   -3.8389 C.ar      4 PHE5        0.0000 
     26 CZ        -10.8602  -22.2939   -3.1189 C.ar      4 PHE5        0.0000 
     27 CZ         -4.7627  -20.6501   -7.4338 C.ar      4 PHE5        0.0000 
     28 O          -5.9394  -21.2391   -6.7138 O.2       2 ALA2        0.0000 
     29 CA         -7.1161  -21.8281   -5.9938 C.3       5 GLY6        0.0000 
     30 CZ         -8.2928  -22.4171   -5.2738 C.ar      4 PHE5        0.0000 
     31 CZ         -4.5487  -21.9513   -8.1487 C.ar      4 PHE5        0.0000 
     32 DU         -5.7254  -22.5403   -7.4286 H         6 CUB7        0.0000 
     33 OG         -6.9021  -23.1294   -6.7086 O.2       1 SER1        0.0000 
     34 CZ         -3.1581  -22.6635   -9.5835 C.ar      4 PHE5        0.0000 
     35 CZ         -4.3348  -23.2526   -8.8635 C.ar      4 PHE5        0.0000 
     36 DU         -5.5115  -23.8416   -8.1435 H         6 CUB7        0.0000 
     37 OG         -6.6882  -24.4306   -7.4235 O.2       1 SER1        0.0000 
     38 N          -2.9441  -23.9648  -10.2984 N.2       2 ALA2        0.0000 
     39 N          -4.1208  -24.5538   -9.5784 N.2       2 ALA2        0.0000 
     40 OG         -5.2975  -25.1428   -8.8584 O.2       1 SER1        0.0000 
     41 OG         -6.4743  -25.7318   -8.1384 O.2       1 SER1        0.0000 
     42 N          -3.9069  -25.8550  -10.2932 N.2       2 ALA2        0.0000 
     43 CA         -5.0836  -26.4440   -9.5732 C.3       5 GLY6        0.0000 
     44 CA         -6.2603  -27.0331   -8.8532 C.3       5 GLY6        0.0000 
     45 N          -7.8154  -20.2728   -2.7393 N.2       2 ALA2        0.0000 
     46 N          -8.9921  -20.8618   -2.0193 N.2       2 ALA2        0.0000 
     47 N          -5.2480  -20.3960   -4.8941 N.2       2 ALA2        0.0000 
     48 N          -6.4247  -20.9850   -4.1741 N.2       2 ALA2        0.0000 
     49 N          -7.6014  -21.5740   -3.4541 N.2       2 ALA2        0.0000 
     50 CZ         -8.7782  -22.1630   -2.7341 C.ar      4 PHE5        0.0000 
     51 CZ         -5.0341  -21.6972   -5.6090 C.ar      4 PHE5        0.0000 
     52 CZ         -6.2108  -22.2862   -4.8890 C.ar      4 PHE5        0.0000 
     53 CZ         -7.3875  -22.8752   -4.1690 C.ar      4 PHE5        0.0000 
     54 CZ         -3.6434  -22.4094   -7.0439 C.ar      4 PHE5        0.0000 
     55 DU         -4.8201  -22.9984   -6.3239 H         6 CUB7        0.0000 
     56 CZ         -5.9968  -23.5874   -5.6038 C.ar      4 PHE5        0.0000 
     57 N          -2.2528  -23.1216   -8.4787 N.2       2 ALA2        0.0000 
     58 N          -3.4295  -23.7106   -7.7587 N.2       2 ALA2        0.0000 
     59 DU         -4.6062  -24.2997   -7.0387 H         6 CUB7        0.0000 
     60 OG         -5.7829  -24.8887   -6.3187 O.2       1 SER1        0.0000 
     61 N          -3.2155  -25.0119   -8.4736 N.2       2 ALA2        0.0000 
     62 DU         -4.3922  -25.6009   -7.7536 H         6 CUB7        0.0000 
     63 OG         -5.5689  -26.1899   -7.0336 O.2       1 SER1        0.0000 
     64 N          -3.0016  -26.3131   -9.1884 N.2       2 ALA2        0.0000 
     65 O          -4.1783  -26.9021   -8.4684 O.2       2 ALA2        0.0000 
     66 OG         -5.3550  -27.4911   -7.7484 O.2       1 SER1        0.0000 
     67 CA         -5.7334  -20.1418   -2.3545 C.3       5 GLY6        0.0000 
     68 O          -6.9101  -20.7309   -1.6345 O.2       2 ALA2        0.0000 
     69 CA         -4.3427  -20.8541   -3.7893 C.3       5 GLY6        0.0000 
     70 N          -5.5194  -21.4431   -3.0693 N.2       2 ALA2        0.0000 
     71 CZ         -6.6961  -22.0321   -2.3493 C.ar      4 PHE5        0.0000 
     72 CA         -4.1288  -22.1553   -4.5042 C.3       5 GLY6        0.0000 
     73 CZ         -5.3055  -22.7443   -3.7842 C.ar      4 PHE5        0.0000 
     74 NZ         -2.7381  -22.8675   -5.9391 N.2       3 LYS4        0.0000 
     75 O          -3.9148  -23.4565   -5.2191 O.2       2 ALA2        0.0000 
     76 CZ         -5.0915  -24.0455   -4.4991 C.ar      4 PHE5        0.0000 
     77 NZ         -2.5242  -24.1687   -6.6539 N.2       3 LYS4        0.0000 
     78 O          -3.7009  -24.7578   -5.9339 O.2       2 ALA2        0.0000 
     79 CZ         -4.8776  -25.3468   -5.2139 C.ar      4 PHE5        0.0000 
     80 N          -2.3102  -25.4700   -7.3688 N.2       2 ALA2        0.0000 
     81 CZ         -3.4869  -26.0590   -6.6488 C.ar      4 PHE5        0.0000 
     82 CZ         -4.6636  -26.6480   -5.9288 C.ar      4 PHE5        0.0000 
     83 CZ         -3.2730  -27.3602   -7.3636 C.ar      4 PHE5        0.0000 
     84 CA         -4.6141  -21.9012   -1.9645 C.3       5 GLY6        0.0000 
     85 CA         -5.7908  -22.4902   -1.2445 C.3       5 GLY6        0.0000 
     86 CA         -3.2235  -22.6134   -3.3994 C.3       5 GLY6        0.0000 
     87 O          -4.4002  -23.2024   -2.6794 O.2       2 ALA2        0.0000 
@<TRIPOS>BOND
@<TRIPOS>SUBSTRUCTURE
     1 SER1       33 GROUP   
     2 ALA2       16 GROUP   
     3 LYS4        1 GROUP   
     4 PHE5        9 GROUP   
     5 GLY6        3 GROUP   
     6 CUB7        2 GROUP   
@<TRIPOS>SET

