#    Name: 4k6s_CTP_1_INTS_M
#    Modification time : Tue Mar 25 07:22:50 2014

@<TRIPOS>MOLECULE
4k6s_CTP_1_INTS_M
   45     0     9     0     0
SMALL
NO_CHARGES


@<TRIPOS>ATOM
      1 CA         -8.5020  -22.6990   -2.1665 C.3       3 GLC5        0.0000 
      2 CA         -8.6960  -20.9490   -3.5180 C.3       9 GLL5        0.0000 
      3 CA         -8.3080  -24.4490   -0.8150 C.3       6 GLP5        0.0000 
      4 N          -6.2125  -21.9625    0.0670 N.am      2 SEC2        0.0000 
      5 N          -5.5920  -21.5020   -1.1160 N.am      8 SEL2        0.0000 
      6 N          -6.8330  -22.4230    1.2500 N.am      5 SEP2        0.0000 
      7 O          -9.3920  -20.5455   -0.2455 O.2       1 ALC1        0.0000 
      8 O          -9.9410  -20.5010   -1.5980 O.2       7 ALL1        0.0000 
      9 O          -8.8430  -20.5900    1.1070 O.2       4 ALP1        0.0000 
     10 O         -11.2470  -19.8375   -2.4110 O.2       1 ALC1        0.0000 
     11 O         -12.5530  -19.1740   -3.2240 O.2       4 ALP1        0.0000 
     12 N          -2.5435  -24.4515   -3.7410 N.am      2 SEC2        0.0000 
     13 N          -3.2130  -23.2970   -3.8640 N.am      8 SEL2        0.0000 
     14 N          -1.8740  -25.6060   -3.6180 N.am      5 SEP2        0.0000 
     15 N          -3.4990  -24.8535   -3.2860 N.am      2 SEC2        0.0000 
     16 N          -3.7850  -26.4100   -2.7080 N.am      5 SEP2        0.0000 
     17 CA         -7.4905  -24.3190   -5.6255 C.3       3 GLC5        0.0000 
     18 CA         -6.8690  -22.7940   -6.3650 C.3       9 GLL5        0.0000 
     19 CA         -8.1120  -25.8440   -4.8860 C.3       6 GLP5        0.0000 
     20 N          -5.3375  -19.3515   -7.6840 N.am      2 SEC2        0.0000 
     21 N          -4.9630  -20.7530   -7.6440 N.am      8 SEL2        0.0000 
     22 N          -5.7120  -17.9500   -7.7240 N.am      5 SEP2        0.0000 
     23 N          -6.2115  -19.0840   -8.4405 N.am      2 SEC2        0.0000 
     24 N          -6.7110  -20.2180   -9.1570 N.am      8 SEL2        0.0000 
     25 N          -8.0350  -17.9685  -10.1930 N.am      2 SEC2        0.0000 
     26 N          -7.0920  -18.5630  -10.8310 N.am      8 SEL2        0.0000 
     27 N          -8.9780  -17.3740   -9.5550 N.am      5 SEP2        0.0000 
     28 N          -6.4355  -17.4200  -10.4090 N.am      2 SEC2        0.0000 
     29 N          -5.7790  -16.2770   -9.9870 N.am      5 SEP2        0.0000 
     30 N          -5.3000  -17.9095  -10.3885 N.am      2 SEC2        0.0000 
     31 N          -4.8210  -19.5420  -10.7900 N.am      8 SEL2        0.0000 
     32 CA         -8.5867  -19.2797   -3.5805 C.3       3 GLC5        0.0000 
     33 CA         -7.4690  -21.2620   -4.0320 C.3       9 GLL5        0.0000 
     34 CA         -9.0910  -17.4540   -3.3860 C.3       6 GLP5        0.0000 
     35 CA         -7.9807  -19.7363   -5.2260 C.3       3 GLC5        0.0000 
     36 CA         -7.8790  -18.3670   -6.6770 C.3       6 GLP5        0.0000 
     37 CA         -5.9710  -24.0508   -3.2835 C.3       3 GLC5        0.0000 
     38 CA         -5.0740  -21.7960   -3.8760 C.3       9 GLL5        0.0000 
     39 CA         -7.1000  -25.5770   -2.7340 C.3       6 GLP5        0.0000 
     40 CA         -3.3065  -21.4763   -2.9340 C.3       3 GLC5        0.0000 
     41 CA         -4.6100  -23.2530   -3.7900 C.3       9 GLL5        0.0000 
     42 CA         -1.7710  -20.4280   -2.0350 C.3       6 GLP5        0.0000 
     43 CA         -6.1547  -24.7120   -4.7635 C.3       3 GLC5        0.0000 
     44 CA         -5.1410  -23.9510   -5.0180 C.3       9 GLL5        0.0000 
     45 CA         -7.0380  -26.0490   -4.0490 C.3       6 GLP5        0.0000 
@<TRIPOS>BOND
@<TRIPOS>SUBSTRUCTURE
     1 ALC1        7 GROUP        1 X    ALC  0     ROOT ALC X 1
     2 SEC2        4 GROUP        1 X    SEC  0     **** SEC X 2
     3 GLC5        1 GROUP        1 X    GLC  0     **** GLC X 6
     4 ALP1        9 GROUP        1 Y    ALP  0     ROOT ALP Y 8
     5 SEP2        6 GROUP        1 Y    SEP  0     **** SEP Y 9
     6 GLP5        3 GROUP        1 Y    GLP  0     **** GLP Y 13
     7 ALL1        8 GROUP        1 Z    ALL  0     ROOT ALL Z 15
     8 SEL2        5 GROUP        1 Z    SEL  0     **** SEL Z 16
     9 GLL5        2 GROUP        1 Z    GLL  0     **** GLL Z 20
@<TRIPOS>SET

