#    Name: 4k6s_CTP_1_ligand
#    Modification time : Tue Mar 25 07:22:50 2014

@<TRIPOS>MOLECULE
4k6s_CTP_1_ligand
   41    42     1     0     0
SMALL
NO_CHARGES


@<TRIPOS>ATOM
      1 N1         -6.3870  -21.4550   -3.2800 N.am      1 CTP304      0.0000 
      2 C2         -6.5220  -21.3160   -1.8840 C.2       1 CTP304      0.0000 
      3 N3         -7.7190  -21.0030   -1.3930 N.2       1 CTP304      0.0000 
      4 C4         -8.7940  -20.8130   -2.1550 C.2       1 CTP304      0.0000 
      5 C5         -8.6960  -20.9490   -3.5180 C.2       1 CTP304      0.0000 
      6 C6         -7.4690  -21.2620   -4.0320 C.2       1 CTP304      0.0000 
      7 O2         -5.5920  -21.5020   -1.1160 O.2       1 CTP304      0.0000 
      8 N4         -9.9410  -20.5010   -1.5980 N.pl3     1 CTP304      0.0000 
      9 C1'        -5.0740  -21.7960   -3.8760 C.3       1 CTP304      0.0000 
     10 C2'        -4.6100  -23.2530   -3.7900 C.3       1 CTP304      0.0000 
     11 O2'        -3.2130  -23.2970   -3.8640 O.3       1 CTP304      0.0000 
     12 C3'        -5.1410  -23.9510   -5.0180 C.3       1 CTP304      0.0000 
     13 C4'        -5.4020  -22.7990   -5.9380 C.3       1 CTP304      0.0000 
     14 O4'        -5.0850  -21.5920   -5.2470 O.3       1 CTP304      0.0000 
     15 O3'        -4.2140  -24.8330   -5.6400 O.3       1 CTP304      0.0000 
     16 C5'        -6.8690  -22.7940   -6.3650 C.3       1 CTP304      0.0000 
     17 O5'        -7.0650  -22.2430   -7.6620 O.3       1 CTP304      0.0000 
     18 PA         -5.9730  -21.3900   -8.4490 P.3       1 CTP304      0.0000 
     19 O1A        -5.5530  -22.2720   -9.5640 O.co2     1 CTP304      0.0000 
     20 O2A        -4.9630  -20.7530   -7.6440 O.co2     1 CTP304      0.0000 
     21 O3A        -6.7110  -20.2180   -9.1570 O.3       1 CTP304      0.0000 
     22 PB         -6.3730  -19.8280  -10.6610 P.3       1 CTP304      0.0000 
     23 O1B        -7.0920  -18.5630  -10.8310 O.co2     1 CTP304      0.0000 
     24 O2B        -6.7810  -21.0430  -11.4310 O.co2     1 CTP304      0.0000 
     25 O3B        -4.8210  -19.5420  -10.7900 O.3       1 CTP304      0.0000 
     26 PG         -4.1510  -19.2930  -12.2210 P.3       1 CTP304      0.0000 
     27 O1G        -3.0180  -18.3200  -12.0730 O.co2     1 CTP304      0.0000 
     28 O2G        -3.7180  -20.6780  -12.5470 O.co2     1 CTP304      0.0000 
     29 O3G        -5.2950  -18.6750  -12.9560 O.co2     1 CTP304      0.0000 
     30 H          -9.5068  -20.8211   -4.1188 H         1 CTP304      0.0000 
     31 H          -7.3890  -21.3530   -5.0905 H         1 CTP304      0.0000 
     32 H          -9.9346  -20.4027   -0.6029 H         1 CTP304      0.0000 
     33 H         -10.7163  -20.3901   -2.2197 H         1 CTP304      0.0000 
     34 H          -4.2812  -21.1908   -3.4300 H         1 CTP304      0.0000 
     35 H          -5.0099  -23.6971   -2.9313 H         1 CTP304      0.0000 
     36 H          -6.0738  -24.3992   -4.7836 H         1 CTP304      0.0000 
     37 H          -4.7936  -22.9139   -6.8189 H         1 CTP304      0.0000 
     38 H          -7.4358  -22.2317   -5.5940 H         1 CTP304      0.0000 
     39 H          -7.2334  -23.8408   -6.3082 H         1 CTP304      0.0000 
     40 H          -3.0035  -23.2322   -4.8396 H         1 CTP304      0.0000 
     41 H          -4.7754  -25.4570   -6.1835 H         1 CTP304      0.0000 
@<TRIPOS>BOND
     1    2    1 am   
     2    6    1 1    
     3    9    1 1    
     4    3    2 1    
     5    7    2 2    
     6    4    3 2    
     7    5    4 1    
     8    8    4 1    
     9    6    5 2    
    10   30    5 1    
    11   31    6 1    
    12   32    8 1    
    13   33    8 1    
    14   10    9 1    
    15   14    9 1    
    16   34    9 1    
    17   11   10 1    
    18   12   10 1    
    19   35   10 1    
    20   40   11 1    
    21   13   12 1    
    22   15   12 1    
    23   36   12 1    
    24   14   13 1    
    25   16   13 1    
    26   37   13 1    
    27   41   15 1    
    28   17   16 1    
    29   38   16 1    
    30   39   16 1    
    31   18   17 1    
    32   19   18 ar   
    33   20   18 ar   
    34   21   18 1    
    35   22   21 1    
    36   23   22 ar   
    37   24   22 ar   
    38   25   22 1    
    39   26   25 1    
    40   27   26 ar   
    41   28   26 ar   
    42   29   26 ar   
@<TRIPOS>SUBSTRUCTURE
     1 CTP304      1 GROUP   
@<TRIPOS>SET

