#    Name: 3d8v_UD1_1_INTS_M
#    Modification time : Mon Mar 24 22:53:18 2014

@<TRIPOS>MOLECULE
3d8v_UD1_1_INTS_M
   74     0     9     0     0
SMALL
NO_CHARGES


@<TRIPOS>ATOM
      1 CA         32.2690  -31.3750   43.6625 C.3       3 GLC5        0.0000 
      2 CA         31.1600  -32.0960   41.9860 C.3       9 GLL5        0.0000 
      3 CA         33.3780  -30.6540   45.3390 C.3       6 GLP5        0.0000 
      4 CA         32.3355  -35.8960   40.1665 C.3       3 GLC5        0.0000 
      5 CA         33.2990  -34.0860   39.4290 C.3       9 GLL5        0.0000 
      6 CA         31.3720  -37.7060   40.9040 C.3       6 GLP5        0.0000 
      7 CA         26.3145  -32.7760   39.9065 C.3       3 GLC5        0.0000 
      8 CA         27.2080  -32.9220   41.2380 C.3       9 GLL5        0.0000 
      9 CA         25.4210  -32.6300   38.5750 C.3       6 GLP5        0.0000 
     10 CA         25.4920  -34.1790   41.8620 C.3       3 GLC5        0.0000 
     11 CA         23.7760  -35.4360   42.4860 C.3       6 GLP5        0.0000 
     12 CA         27.6730  -33.1730   43.0740 C.3       3 GLC5        0.0000 
     13 CA         28.1380  -33.4240   44.9100 C.3       6 GLP5        0.0000 
     14 O          29.3405  -30.2600   42.2195 O.2       1 ALC1        0.0000 
     15 O          28.8960  -31.3120   41.6480 O.2       7 ALL1        0.0000 
     16 O          29.7850  -29.2080   42.7910 O.2       4 ALP1        0.0000 
     17 N          30.8920  -33.6370   43.7555 N.am      2 SEC2        0.0000 
     18 N          30.9860  -32.2440   43.3980 N.am      8 SEL2        0.0000 
     19 N          30.7980  -35.0300   44.1130 N.am      5 SEP2        0.0000 
     20 O          30.3855  -30.7260   43.0945 O.2       1 ALC1        0.0000 
     21 O          30.9860  -32.2440   43.3980 O.2       7 ALL1        0.0000 
     22 O          30.4415  -31.3290   44.0145 O.2       1 ALC1        0.0000 
     23 O          29.8970  -30.4140   44.6310 O.2       4 ALP1        0.0000 
     24 N          33.7240  -31.7105   43.0965 N.am      2 SEC2        0.0000 
     25 N          33.4260  -32.8390   42.1490 N.am      8 SEL2        0.0000 
     26 N          34.0220  -30.5820   44.0440 N.am      5 SEP2        0.0000 
     27 O          34.0995  -33.9100   42.3900 O.2       1 ALC1        0.0000 
     28 O          33.4260  -32.8390   42.1490 O.2       7 ALL1        0.0000 
     29 O          34.7730  -34.9810   42.6310 O.2       4 ALP1        0.0000 
     30 O          21.1945  -32.7765   33.5765 O.2       1 ALC1        0.0000 
     31 O          22.5210  -32.3510   34.0710 O.2       7 ALL1        0.0000 
     32 O          19.8680  -33.2020   33.0820 O.2       4 ALP1        0.0000 
     33 CA         22.5210  -30.4720   36.8775 C.3       3 GLC5        0.0000 
     34 CA         23.8920  -30.9480   35.4010 C.3       9 GLL5        0.0000 
     35 CA         21.1500  -29.9960   38.3540 C.3       6 GLP5        0.0000 
     36 N          23.6240  -34.4650   31.7740 N.am      2 SEC2        0.0000 
     37 N          23.4310  -34.1900   33.1290 N.am      8 SEL2        0.0000 
     38 N          23.8170  -34.7400   30.4190 N.am      5 SEP2        0.0000 
     39 N          20.2390  -31.4090   34.9450 N.am      2 SEC2        0.0000 
     40 N          21.6640  -30.5240   35.0450 N.am      8 SEL2        0.0000 
     41 N          18.8140  -32.2940   34.8450 N.am      5 SEP2        0.0000 
     42 N          20.9165  -30.0270   36.2205 N.am      2 SEC2        0.0000 
     43 N          20.1690  -29.5300   37.3960 N.am      5 SEP2        0.0000 
     44 CA         25.4930  -35.6100   34.3955 C.3       3 GLC5        0.0000 
     45 CA         25.9160  -33.7810   34.1070 C.3       9 GLL5        0.0000 
     46 CA         25.0700  -37.4390   34.6840 C.3       6 GLP5        0.0000 
     47 N          25.6170  -32.7055   31.3365 N.am      2 SEC2        0.0000 
     48 N          26.8330  -33.2880   31.8880 N.am      8 SEL2        0.0000 
     49 N          24.4010  -32.1230   30.7850 N.am      5 SEP2        0.0000 
     50 CA         26.4890  -35.8980   34.9295 C.3       3 GLC5        0.0000 
     51 CA         27.9080  -34.3570   35.1750 C.3       9 GLL5        0.0000 
     52 O          29.1755  -35.8840   33.4140 O.2       1 ALC1        0.0000 
     53 O          28.3540  -35.0970   32.9130 O.2       7 ALL1        0.0000 
     54 O          29.9970  -36.6710   33.9150 O.2       4 ALP1        0.0000 
     55 CA         26.9635  -32.9955   37.3600 C.3       3 GLC5        0.0000 
     56 CA         28.5060  -33.3610   36.1450 C.3       9 GLL5        0.0000 
     57 N          32.8710  -30.0850   36.2660 N.am      2 SEC2        0.0000 
     58 N          31.8360  -30.5100   37.3260 N.am      8 SEL2        0.0000 
     59 N          33.9060  -29.6600   35.2060 N.am      5 SEP2        0.0000 
     60 CA         29.3212  -32.8165   43.2642 C.3       3 GLC5        0.0000 
     61 CA         29.8490  -32.3220   41.2510 C.3       9 GLL5        0.0000 
     62 CA         32.3435  -33.6767   43.3640 C.3       3 GLC5        0.0000 
     63 CA         33.0130  -34.7550   44.9930 C.3       6 GLP5        0.0000 
     64 CA         34.4000  -32.4585   39.7380 C.3       3 GLC5        0.0000 
     65 CA         32.3390  -33.0200   39.9610 C.3       9 GLL5        0.0000 
     66 CA         35.9810  -31.3640   39.7810 C.3       6 GLP5        0.0000 
     67 CA         24.6588  -31.0733   33.1660 C.3       3 GLC5        0.0000 
     68 CA         24.9850  -31.7830   35.1630 C.3       9 GLL5        0.0000 
     69 CA         24.8790  -30.7810   31.0500 C.3       6 GLP5        0.0000 
     70 CA         24.9297  -31.9978   36.9285 C.3       3 GLC5        0.0000 
     71 CA         25.6768  -32.1205   32.3765 C.3       3 GLC5        0.0000 
     72 CA         29.1833  -35.9657   34.5968 C.3       3 GLC5        0.0000 
     73 CA         28.2350  -33.9400   33.7480 C.3       9 GLL5        0.0000 
     74 CA         30.2950  -37.7830   34.7320 C.3       6 GLP5        0.0000 
@<TRIPOS>BOND
@<TRIPOS>SUBSTRUCTURE
     1 ALC1       14 GROUP        1 X    ALC  0     ROOT ALC X 1
     2 SEC2       17 GROUP        1 X    SEC  0     **** SEC X 2
     3 GLC5        1 GROUP        1 X    GLC  0     **** GLC X 6
     4 ALP1       16 GROUP        1 Y    ALP  0     ROOT ALP Y 8
     5 SEP2       19 GROUP        1 Y    SEP  0     **** SEP Y 9
     6 GLP5        3 GROUP        1 Y    GLP  0     **** GLP Y 13
     7 ALL1       15 GROUP        1 Z    ALL  0     ROOT ALL Z 15
     8 SEL2       18 GROUP        1 Z    SEL  0     **** SEL Z 16
     9 GLL5        2 GROUP        1 Z    GLL  0     **** GLL Z 20
@<TRIPOS>SET

