#    Name: 3d8v_UD1_1_ligand
#    Modification time : Mon Mar 24 22:53:18 2014

@<TRIPOS>MOLECULE
3d8v_UD1_1_ligand
   64    66     1     0     0
SMALL
NO_CHARGES


@<TRIPOS>ATOM
      1 C1'        30.0920  -32.2170   39.7500 C.3       1 UD1496      0.0000 
      2 C2'        29.8490  -32.3220   41.2510 C.3       1 UD1496      0.0000 
      3 C3'        31.1600  -32.0960   41.9860 C.3       1 UD1496      0.0000 
      4 C4'        32.1880  -33.1010   41.4840 C.3       1 UD1496      0.0000 
      5 C5'        32.3390  -33.0200   39.9610 C.3       1 UD1496      0.0000 
      6 C6'        33.2990  -34.0860   39.4290 C.3       1 UD1496      0.0000 
      7 C7'        27.6020  -31.5890   41.7670 C.2       1 UD1496      0.0000 
      8 C8'        27.2080  -32.9220   41.2380 C.3       1 UD1496      0.0000 
      9 N2'        28.8960  -31.3120   41.6480 N.am      1 UD1496      0.0000 
     10 O1'        30.6310  -30.9260   39.4920 O.3       1 UD1496      0.0000 
     11 O3'        30.9860  -32.2440   43.3980 O.3       1 UD1496      0.0000 
     12 O4'        33.4260  -32.8390   42.1490 O.3       1 UD1496      0.0000 
     13 O5'        31.0510  -33.1990   39.3560 O.3       1 UD1496      0.0000 
     14 O6'        33.7050  -33.7650   38.0890 O.3       1 UD1496      0.0000 
     15 O7'        26.7950  -30.8220   42.2740 O.2       1 UD1496      0.0000 
     16 N1         24.8210  -32.8640   34.3950 N.am      1 UD1496      0.0000 
     17 C2         23.5600  -33.1620   33.8410 C.2       1 UD1496      0.0000 
     18 N3         22.5210  -32.3510   34.0710 N.am      1 UD1496      0.0000 
     19 C4         22.6560  -31.2590   34.8350 C.2       1 UD1496      0.0000 
     20 C5         23.8920  -30.9480   35.4010 C.2       1 UD1496      0.0000 
     21 C6         24.9850  -31.7830   35.1630 C.2       1 UD1496      0.0000 
     22 O2         23.4310  -34.1900   33.1290 O.2       1 UD1496      0.0000 
     23 O4         21.6640  -30.5240   35.0450 O.2       1 UD1496      0.0000 
     24 C1B        25.9160  -33.7810   34.1070 C.3       1 UD1496      0.0000 
     25 C2B        27.0330  -33.1390   33.2990 C.3       1 UD1496      0.0000 
     26 O2'        26.8330  -33.2880   31.8880 O.3       1 UD1496      0.0000 
     27 C3B        28.2350  -33.9400   33.7480 C.3       1 UD1496      0.0000 
     28 C4B        27.9080  -34.3570   35.1750 C.3       1 UD1496      0.0000 
     29 O4B        26.4910  -34.2520   35.3250 O.3       1 UD1496      0.0000 
     30 O3B        28.3540  -35.0970   32.9130 O.3       1 UD1496      0.0000 
     31 C5B        28.5060  -33.3610   36.1450 C.3       1 UD1496      0.0000 
     32 O5B        28.1170  -32.1140   35.5790 O.3       1 UD1496      0.0000 
     33 PA         29.0540  -30.8490   35.8070 P.3       1 UD1496      0.0000 
     34 O1A        28.2790  -29.5680   35.5880 O.co2     1 UD1496      0.0000 
     35 O2A        30.2740  -31.2070   34.9970 O.co2     1 UD1496      0.0000 
     36 O3A        29.3580  -31.0480   37.3690 O.3       1 UD1496      0.0000 
     37 PB         30.5320  -30.2160   38.0580 P.3       1 UD1496      0.0000 
     38 O1B        30.0590  -28.7960   38.2700 O.co2     1 UD1496      0.0000 
     39 O2B        31.8360  -30.5100   37.3260 O.co2     1 UD1496      0.0000 
     40 H          29.1600  -32.3549   39.2519 H         1 UD1496      0.0000 
     41 H          29.4918  -33.3043   41.4729 H         1 UD1496      0.0000 
     42 H          31.5186  -31.1056   41.7369 H         1 UD1496      0.0000 
     43 H          31.8232  -34.0943   41.7346 H         1 UD1496      0.0000 
     44 H          32.7420  -32.0472   39.7145 H         1 UD1496      0.0000 
     45 H          32.7835  -35.0532   39.4731 H         1 UD1496      0.0000 
     46 H          34.1578  -34.1334   40.1098 H         1 UD1496      0.0000 
     47 H          29.2806  -30.3627   41.8336 H         1 UD1496      0.0000 
     48 H          21.5848  -32.5734   33.6463 H         1 UD1496      0.0000 
     49 H          23.9974  -30.1154   35.9855 H         1 UD1496      0.0000 
     50 H          25.8940  -31.5453   35.5861 H         1 UD1496      0.0000 
     51 H          25.5474  -34.6309   33.5296 H         1 UD1496      0.0000 
     52 H          27.1543  -32.1439   33.6195 H         1 UD1496      0.0000 
     53 H          29.0829  -33.3271   33.7480 H         1 UD1496      0.0000 
     54 H          28.2643  -35.3154   35.3670 H         1 UD1496      0.0000 
     55 H          29.5673  -33.4893   36.1558 H         1 UD1496      0.0000 
     56 H          28.0744  -33.5221   37.1098 H         1 UD1496      0.0000 
     57 H          27.4166  -33.0115   40.2641 H         1 UD1496      0.0000 
     58 H          27.6845  -33.6642   41.7093 H         1 UD1496      0.0000 
     59 H          26.2278  -33.0888   41.3443 H         1 UD1496      0.0000 
     60 H          30.1571  -31.7270   43.6120 H         1 UD1496      0.0000 
     61 H          33.5905  -33.6457   42.7167 H         1 UD1496      0.0000 
     62 H          32.8551  -33.5616   37.6029 H         1 UD1496      0.0000 
     63 H          27.2945  -34.1426   31.6502 H         1 UD1496      0.0000 
     64 H          28.5837  -35.8439   33.5371 H         1 UD1496      0.0000 
@<TRIPOS>BOND
     1    2    1 1    
     2   10    1 1    
     3   13    1 1    
     4   40    1 1    
     5    3    2 1    
     6    9    2 1    
     7   41    2 1    
     8    4    3 1    
     9   11    3 1    
    10   42    3 1    
    11    5    4 1    
    12   12    4 1    
    13   43    4 1    
    14    6    5 1    
    15   13    5 1    
    16   44    5 1    
    17   14    6 1    
    18   45    6 1    
    19   46    6 1    
    20    8    7 1    
    21    9    7 am   
    22   15    7 2    
    23   57    8 1    
    24   58    8 1    
    25   59    8 1    
    26   47    9 1    
    27   37   10 1    
    28   60   11 1    
    29   61   12 1    
    30   62   14 1    
    31   17   16 1    
    32   21   16 1    
    33   24   16 1    
    34   18   17 1    
    35   22   17 2    
    36   19   18 1    
    37   48   18 1    
    38   20   19 1    
    39   23   19 2    
    40   21   20 2    
    41   49   20 1    
    42   50   21 1    
    43   25   24 1    
    44   29   24 1    
    45   51   24 1    
    46   26   25 1    
    47   27   25 1    
    48   52   25 1    
    49   63   26 1    
    50   28   27 1    
    51   30   27 1    
    52   53   27 1    
    53   29   28 1    
    54   31   28 1    
    55   54   28 1    
    56   64   30 1    
    57   32   31 1    
    58   55   31 1    
    59   56   31 1    
    60   33   32 1    
    61   34   33 ar   
    62   35   33 ar   
    63   36   33 1    
    64   37   36 1    
    65   38   37 ar   
    66   39   37 ar   
@<TRIPOS>SUBSTRUCTURE
     1 UD1496      1 GROUP   
@<TRIPOS>SET

