#    Name: 1t3z_CAO_1_INTS_M
#    Modification time : Tue Mar 25 04:18:01 2014

@<TRIPOS>MOLECULE
1t3z_CAO_1_INTS_M
  107     0    12     0     0
SMALL
NO_CHARGES


@<TRIPOS>ATOM
      1 CA        -48.4850   12.7190   31.5665 C.3       4 GLC5        0.0000 
      2 CA        -46.6300   13.3780   32.3530 C.3      12 GLL5        0.0000 
      3 CA        -50.3400   12.0600   30.7800 C.3       8 GLP5        0.0000 
      4 CA        -46.0725   12.2375   33.8055 C.3       4 GLC5        0.0000 
      5 CA        -45.5150   11.0970   35.2580 C.3       8 GLP5        0.0000 
      6 CA        -46.8450   12.0435   31.0390 C.3       4 GLC5        0.0000 
      7 CA        -47.0600   10.7090   29.7250 C.3       8 GLP5        0.0000 
      8 O         -48.8825   16.5705   31.1015 O.2       1 ALC1        0.0000 
      9 O         -47.3920   16.3630   30.4760 O.2       9 ALL1        0.0000 
     10 O         -50.3730   16.7780   31.7270 O.2       5 ALP1        0.0000 
     11 NZ        -41.2735    6.2550   29.3170 N.4       3 LYC4        0.0000 
     12 NZ        -41.8410    6.6910   30.6640 N.4      11 LYL4        0.0000 
     13 NZ        -40.2490    4.5800   28.0450 N.4       7 LYP4        0.0000 
     14 N         -41.2735    6.2550   29.3170 N.am      2 SEC2        0.0000 
     15 N         -41.8410    6.6910   30.6640 N.am     10 SEL2        0.0000 
     16 N         -40.7060    5.8190   27.9700 N.am      6 SEP2        0.0000 
     17 NZ        -39.9235    6.1445   28.9250 N.4       3 LYC4        0.0000 
     18 NZ        -39.5980    7.7090   29.8050 N.4      11 LYL4        0.0000 
     19 N         -40.4795   13.9240   28.8950 N.am      2 SEC2        0.0000 
     20 N         -40.0490   12.3890   28.1910 N.am     10 SEL2        0.0000 
     21 N         -40.9100   15.4590   29.5990 N.am      6 SEP2        0.0000 
     22 N         -39.8440   11.6350   24.6885 N.am      2 SEC2        0.0000 
     23 N         -39.6820   12.8920   25.6820 N.am     10 SEL2        0.0000 
     24 N         -40.0060   10.3780   23.6950 N.am      6 SEP2        0.0000 
     25 NZ        -36.5045   10.6585   27.5750 N.4       3 LYC4        0.0000 
     26 NZ        -37.9780   11.3120   26.8950 N.4      11 LYL4        0.0000 
     27 NZ        -35.0310   10.0050   28.2550 N.4       7 LYP4        0.0000 
     28 N         -36.5045   10.6585   27.5750 N.am      2 SEC2        0.0000 
     29 N         -37.9780   11.3120   26.8950 N.am     10 SEL2        0.0000 
     30 N         -35.0310   10.0050   28.2550 N.am      6 SEP2        0.0000 
     31 NZ        -35.3835   11.3320   27.9425 N.4       3 LYC4        0.0000 
     32 NZ        -35.7360   12.6590   27.6300 N.4      11 LYL4        0.0000 
     33 N         -35.3835   11.3320   27.9425 N.am      2 SEC2        0.0000 
     34 N         -35.7360   12.6590   27.6300 N.am     10 SEL2        0.0000 
     35 N         -35.2240   15.5180   29.2770 N.am      2 SEC2        0.0000 
     36 N         -35.9110   15.2490   27.8970 N.am     10 SEL2        0.0000 
     37 N         -34.5370   15.7870   30.6570 N.am      6 SEP2        0.0000 
     38 CA        -34.9740   12.2745   25.2950 C.3       4 GLC5        0.0000 
     39 CA        -35.6070   14.1970   24.7470 C.3      12 GLL5        0.0000 
     40 CA        -34.3410   10.3520   25.8430 C.3       8 GLP5        0.0000 
     41 CA        -37.3305   17.3445   22.7585 C.3       4 GLC5        0.0000 
     42 CA        -36.5870   15.4310   22.7630 C.3      12 GLL5        0.0000 
     43 CA        -38.0740   19.2580   22.7540 C.3       8 GLP5        0.0000 
     44 CA        -33.9835   12.0840   23.0295 C.3       4 GLC5        0.0000 
     45 CA        -34.7560   13.8050   22.5100 C.3      12 GLL5        0.0000 
     46 CA        -33.2110   10.3630   23.5490 C.3       8 GLP5        0.0000 
     47 CA        -33.3315   13.0445   21.0145 C.3       4 GLC5        0.0000 
     48 CA        -31.9070   12.2840   19.5190 C.3       8 GLP5        0.0000 
     49 CA        -33.5665   14.9890   23.0800 C.3       4 GLC5        0.0000 
     50 CA        -32.3770   16.1730   23.6500 C.3       8 GLP5        0.0000 
     51 CA        -38.0860   11.1565   23.3475 C.3       4 GLC5        0.0000 
     52 CA        -37.1190   13.0190   23.1360 C.3      12 GLL5        0.0000 
     53 CA        -39.0530    9.2940   23.5590 C.3       8 GLP5        0.0000 
     54 N         -39.3810   14.6940   23.5720 N.am      2 SEC2        0.0000 
     55 N         -38.3990   13.5660   23.4480 N.am     10 SEL2        0.0000 
     56 N         -40.3630   15.8220   23.6960 N.am      6 SEP2        0.0000 
     57 O         -39.4780   13.4140   21.0510 O.2       1 ALC1        0.0000 
     58 O         -38.0330   12.8670   20.8790 O.2       9 ALL1        0.0000 
     59 O         -40.9230   13.9610   21.2230 O.2       5 ALP1        0.0000 
     60 CA        -39.9740   13.4375   19.0905 C.3       4 GLC5        0.0000 
     61 CA        -38.0770   12.4590   19.4830 C.3      12 GLL5        0.0000 
     62 CA        -41.8710   14.4160   18.6980 C.3       8 GLP5        0.0000 
     63 CA        -38.3205   10.9395   17.9235 C.3       4 GLC5        0.0000 
     64 CA        -38.5640    9.4200   16.3640 C.3       8 GLP5        0.0000 
     65 CA        -36.1610   13.4940   17.2385 C.3       4 GLC5        0.0000 
     66 CA        -37.1130   13.3520   18.6950 C.3      12 GLL5        0.0000 
     67 CA        -35.2090   13.6360   15.7820 C.3       8 GLP5        0.0000 
     68 N         -39.7450   15.6800   18.5715 N.am      2 SEC2        0.0000 
     69 N         -38.7920   14.8320   17.9770 N.am     10 SEL2        0.0000 
     70 N         -40.6980   16.5280   19.1660 N.am      6 SEP2        0.0000 
     71 CA        -37.7150   18.5860   19.8035 C.3       4 GLC5        0.0000 
     72 CA        -37.3290   17.1930   18.2140 C.3      12 GLL5        0.0000 
     73 CA        -38.1010   19.9790   21.3930 C.3       8 GLP5        0.0000 
     74 CA        -35.8795   16.1395   16.8545 C.3       4 GLC5        0.0000 
     75 CA        -34.4300   15.0860   15.4950 C.3       8 GLP5        0.0000 
     76 CA        -37.0475   20.1670   17.8355 C.3       4 GLC5        0.0000 
     77 CA        -36.5580   18.4300   18.6250 C.3      12 GLL5        0.0000 
     78 CA        -37.5370   21.9040   17.0460 C.3       8 GLP5        0.0000 
     79 CA        -33.3680   17.1630   18.6770 C.3       4 GLC5        0.0000 
     80 CA        -34.8160   18.3040   18.3500 C.3      12 GLL5        0.0000 
     81 CA        -31.9200   16.0220   19.0040 C.3       8 GLP5        0.0000 
     82 CA        -33.0410   18.2250   17.1105 C.3       4 GLC5        0.0000 
     83 CA        -31.2660   18.1460   15.8710 C.3       8 GLP5        0.0000 
     84 CA        -35.2155   18.7445   16.5555 C.3       4 GLC5        0.0000 
     85 CA        -35.6150   19.1850   14.7610 C.3       8 GLP5        0.0000 
     86 CA        -34.6230   16.6950   16.9225 C.3       4 GLC5        0.0000 
     87 N         -32.8650   18.6055   17.7170 N.am      2 SEC2        0.0000 
     88 N         -34.0430   19.6470   18.2910 N.am     10 SEL2        0.0000 
     89 N         -31.6870   17.5640   17.1430 N.am      6 SEP2        0.0000 
     90 CA        -46.2013   12.3920   30.0460 C.3       4 GLC5        0.0000 
     91 CA        -45.6280   14.6850   30.1200 C.3      12 GLL5        0.0000 
     92 CA        -45.2867   16.5710   30.6763 C.3       4 GLC5        0.0000 
     93 CA        -44.3650   18.1910   30.8580 C.3       8 GLP5        0.0000 
     94 CA        -47.5592   13.9880   29.3207 C.3       4 GLC5        0.0000 
     95 CA        -48.9100   13.0250   28.1470 C.3       8 GLP5        0.0000 
     96 CA        -45.1550   11.0310   29.6640 C.3       4 GLC5        0.0000 
     97 CA        -43.2830   11.8630   30.1740 C.3      12 GLL5        0.0000 
     98 CA        -42.6430    9.4155   27.5718 C.3       4 GLC5        0.0000 
     99 CA        -43.2170   10.8430   29.0320 C.3      12 GLL5        0.0000 
    100 CA        -42.7830    8.2460   26.1140 C.3       8 GLP5        0.0000 
    101 CA        -34.7674   15.9814   23.6190 C.3       4 GLC5        0.0000 
    102 CA        -33.3310   17.1720   23.8490 C.3       8 GLP5        0.0000 
    103 CA        -38.0532   17.5483   16.7877 C.3       4 GLC5        0.0000 
    104 CA        -39.1630   17.2850   15.1560 C.3       8 GLP5        0.0000 
    105 CA        -36.2793   18.4982   16.5902 C.3       4 GLC5        0.0000 
    106 CA        -36.2020   19.4770   19.8042 C.3       4 GLC5        0.0000 
    107 CA        -36.7170   20.5870   21.1210 C.3       8 GLP5        0.0000 
@<TRIPOS>BOND
@<TRIPOS>SUBSTRUCTURE
     1 ALC1        8 GROUP        1 X    ALC  0     ROOT ALC X 1
     2 SEC2       14 GROUP        1 X    SEC  0     **** SEC X 2
     3 LYC4       11 GROUP        1 X    LYC  0     **** LYC X 4
     4 GLC5        1 GROUP        1 X    GLC  0     **** GLC X 6
     5 ALP1       10 GROUP        1 Y    ALP  0     ROOT ALP Y 8
     6 SEP2       16 GROUP        1 Y    SEP  0     **** SEP Y 9
     7 LYP4       13 GROUP        1 Y    LYP  0     **** LYP Y 11
     8 GLP5        3 GROUP        1 Y    GLP  0     **** GLP Y 13
     9 ALL1        9 GROUP        1 Z    ALL  0     ROOT ALL Z 15
    10 SEL2       15 GROUP        1 Z    SEL  0     **** SEL Z 16
    11 LYL4       12 GROUP        1 Z    LYL  0     **** LYL Z 18
    12 GLL5        2 GROUP        1 Z    GLL  0     **** GLL Z 20
@<TRIPOS>SET

