#    Name: 1t3z_CAO_1_ligand
#    Modification time : Tue Mar 25 04:18:01 2014

@<TRIPOS>MOLECULE
1t3z_CAO_1_ligand
   81    83     1     0     0
SMALL
NO_CHARGES


@<TRIPOS>ATOM
      1 N1A       -47.2220   14.5200   31.9520 N.ar      1 CAO429      0.0000 
      2 C2A       -46.6300   13.3780   32.3530 C.ar      1 CAO429      0.0000 
      3 N3A       -45.5670   12.8480   31.7090 N.ar      1 CAO429      0.0000 
      4 C4A       -45.0570   13.4650   30.6140 C.ar      1 CAO429      0.0000 
      5 C5A       -45.6280   14.6850   30.1200 C.ar      1 CAO429      0.0000 
      6 C6A       -46.7890   15.2170   30.8690 C.ar      1 CAO429      0.0000 
      7 N6A       -47.3920   16.3630   30.4760 N.pl3     1 CAO429      0.0000 
      8 N7A       -44.9060   15.0760   29.0080 N.2       1 CAO429      0.0000 
      9 C8A       -43.9380   14.0820   28.8820 C.2       1 CAO429      0.0000 
     10 N9A       -44.0310   13.1190   29.8460 N.pl3     1 CAO429      0.0000 
     11 C1B       -43.2830   11.8630   30.1740 C.3       1 CAO429      0.0000 
     12 C2B       -43.2170   10.8430   29.0320 C.3       1 CAO429      0.0000 
     13 O2B       -44.1870    9.8040   29.1080 O.3       1 CAO429      0.0000 
     14 C3B       -41.7890   10.3270   29.0270 C.3       1 CAO429      0.0000 
     15 O3B       -41.8810    8.9230   29.3380 O.3       1 CAO429      0.0000 
     16 P3B       -41.0390    8.0380   30.4050 P.3       1 CAO429      0.0000 
     17 O7A       -41.8410    6.6910   30.6640 O.co2     1 CAO429      0.0000 
     18 O8A       -40.8760    8.7730   31.8050 O.co2     1 CAO429      0.0000 
     19 O9A       -39.5980    7.7090   29.8050 O.co2     1 CAO429      0.0000 
     20 C4B       -41.0100   11.1560   30.0560 C.3       1 CAO429      0.0000 
     21 O4B       -41.9430   12.0670   30.6570 O.3       1 CAO429      0.0000 
     22 C5B       -39.7690   11.8510   29.4850 C.3       1 CAO429      0.0000 
     23 O5B       -40.0490   12.3890   28.1910 O.3       1 CAO429      0.0000 
     24 P1A       -38.9290   12.5670   27.0380 P.3       1 CAO429      0.0000 
     25 O1A       -39.6820   12.8920   25.6820 O.co2     1 CAO429      0.0000 
     26 O2A       -37.9780   11.3120   26.8950 O.co2     1 CAO429      0.0000 
     27 O3A       -38.1050   13.8220   27.5980 O.3       1 CAO429      0.0000 
     28 P2A       -36.5590   13.9590   27.2350 P.3       1 CAO429      0.0000 
     29 O4A       -35.7360   12.6590   27.6300 O.co2     1 CAO429      0.0000 
     30 O5A       -35.9110   15.2490   27.8970 O.co2     1 CAO429      0.0000 
     31 O6A       -36.7120   14.1600   25.6390 O.3       1 CAO429      0.0000 
     32 CBP       -36.0340   14.1040   23.2830 C.3       1 CAO429      0.0000 
     33 CCP       -35.6070   14.1970   24.7470 C.3       1 CAO429      0.0000 
     34 CDP       -36.5870   15.4310   22.7630 C.3       1 CAO429      0.0000 
     35 CEP       -34.7560   13.8050   22.5100 C.3       1 CAO429      0.0000 
     36 CAP       -37.1190   13.0190   23.1360 C.3       1 CAO429      0.0000 
     37 OAP       -38.3990   13.5660   23.4480 O.3       1 CAO429      0.0000 
     38 C9P       -37.1400   12.4040   21.7530 C.2       1 CAO429      0.0000 
     39 O9P       -36.3400   11.5280   21.4800 O.2       1 CAO429      0.0000 
     40 N8P       -38.0330   12.8670   20.8790 N.am      1 CAO429      0.0000 
     41 C7P       -38.0770   12.4590   19.4830 C.3       1 CAO429      0.0000 
     42 C6P       -37.1130   13.3520   18.6950 C.3       1 CAO429      0.0000 
     43 C5P       -37.6670   14.7500   18.4500 C.2       1 CAO429      0.0000 
     44 O5P       -38.7920   14.8320   17.9770 O.2       1 CAO429      0.0000 
     45 N4P       -36.8920   15.8440   18.6870 N.am      1 CAO429      0.0000 
     46 C3P       -37.3290   17.1930   18.2140 C.3       1 CAO429      0.0000 
     47 C2P       -36.5580   18.4300   18.6250 C.3       1 CAO429      0.0000 
     48 S1P       -34.8160   18.3040   18.3500 S.3       1 CAO429      0.0000 
     49 O1P       -34.0430   19.6470   18.2910 O.3       1 CAO429      0.0000 
     50 H         -47.0106   12.8762   33.2040 H         1 CAO429      0.0000 
     51 H         -48.3642   16.4462   30.6952 H         1 CAO429      0.0000 
     52 H         -46.8120   17.0249   30.0013 H         1 CAO429      0.0000 
     53 H         -43.2620   14.0862   28.1659 H         1 CAO429      0.0000 
     54 H         -43.8571   11.3346   30.9944 H         1 CAO429      0.0000 
     55 H         -43.3296   11.4288   28.0983 H         1 CAO429      0.0000 
     56 H         -41.3870   10.4995   28.0548 H         1 CAO429      0.0000 
     57 H         -40.6663   10.4383   30.8298 H         1 CAO429      0.0000 
     58 H         -38.9595   11.1093   29.4509 H         1 CAO429      0.0000 
     59 H         -39.4707   12.6339   30.1954 H         1 CAO429      0.0000 
     60 H         -34.8998   13.3649   24.9383 H         1 CAO429      0.0000 
     61 H         -35.0209   15.1311   24.8615 H         1 CAO429      0.0000 
     62 H         -36.8720   12.2226   23.8524 H         1 CAO429      0.0000 
     63 H         -38.7667   13.5670   21.1646 H         1 CAO429      0.0000 
     64 H         -39.0718   12.5820   19.0661 H         1 CAO429      0.0000 
     65 H         -37.7604   11.4276   19.3622 H         1 CAO429      0.0000 
     66 H         -36.8956   12.8755   17.7305 H         1 CAO429      0.0000 
     67 H         -36.1683   13.4297   19.2483 H         1 CAO429      0.0000 
     68 H         -36.0023   15.8045   19.1827 H         1 CAO429      0.0000 
     69 H         -38.4147   17.3459   18.5106 H         1 CAO429      0.0000 
     70 H         -37.3830   17.1783   17.0796 H         1 CAO429      0.0000 
     71 H         -36.6252   18.6384   19.6845 H         1 CAO429      0.0000 
     72 H         -36.8336   19.3089   18.0575 H         1 CAO429      0.0000 
     73 H         -35.9115   16.1655   22.8272 H         1 CAO429      0.0000 
     74 H         -36.8616   15.3684   21.8035 H         1 CAO429      0.0000 
     75 H         -37.3909   15.7262   23.2793 H         1 CAO429      0.0000 
     76 H         -34.0716   14.5239   22.6316 H         1 CAO429      0.0000 
     77 H         -34.3355   12.9471   22.8052 H         1 CAO429      0.0000 
     78 H         -34.9261   13.7254   21.5278 H         1 CAO429      0.0000 
     79 H         -43.6854    9.0056   29.4411 H         1 CAO429      0.0000 
     80 H         -38.4493   13.5533   24.4467 H         1 CAO429      0.0000 
     81 H         -33.1072   19.4189   18.5597 H         1 CAO429      0.0000 
@<TRIPOS>BOND
     1    2    1 ar   
     2    6    1 ar   
     3    3    2 ar   
     4   50    2 1    
     5    4    3 ar   
     6    5    4 ar   
     7   10    4 1    
     8    6    5 ar   
     9    8    5 1    
    10    7    6 1    
    11   51    7 1    
    12   52    7 1    
    13    9    8 2    
    14   10    9 1    
    15   53    9 1    
    16   11   10 1    
    17   12   11 1    
    18   21   11 1    
    19   54   11 1    
    20   13   12 1    
    21   14   12 1    
    22   55   12 1    
    23   79   13 1    
    24   15   14 1    
    25   20   14 1    
    26   56   14 1    
    27   16   15 1    
    28   17   16 ar   
    29   18   16 ar   
    30   19   16 ar   
    31   21   20 1    
    32   22   20 1    
    33   57   20 1    
    34   23   22 1    
    35   58   22 1    
    36   59   22 1    
    37   24   23 1    
    38   25   24 ar   
    39   26   24 ar   
    40   27   24 1    
    41   28   27 1    
    42   29   28 ar   
    43   30   28 ar   
    44   31   28 1    
    45   33   31 1    
    46   33   32 1    
    47   34   32 1    
    48   35   32 1    
    49   36   32 1    
    50   60   33 1    
    51   61   33 1    
    52   73   34 1    
    53   74   34 1    
    54   75   34 1    
    55   76   35 1    
    56   77   35 1    
    57   78   35 1    
    58   37   36 1    
    59   38   36 1    
    60   62   36 1    
    61   80   37 1    
    62   39   38 2    
    63   40   38 am   
    64   41   40 1    
    65   63   40 1    
    66   42   41 1    
    67   64   41 1    
    68   65   41 1    
    69   43   42 1    
    70   66   42 1    
    71   67   42 1    
    72   44   43 2    
    73   45   43 am   
    74   46   45 1    
    75   68   45 1    
    76   47   46 1    
    77   69   46 1    
    78   70   46 1    
    79   48   47 1    
    80   71   47 1    
    81   72   47 1    
    82   49   48 1    
    83   81   49 1    
@<TRIPOS>SUBSTRUCTURE
     1 CAO429      1 GROUP   
@<TRIPOS>SET

