#    Name: 1qwj_NCC_1_INTS_M
#    Modification time : Tue Mar 25 00:00:31 2014

@<TRIPOS>MOLECULE
1qwj_NCC_1_INTS_M
   65     0    12     0     0
SMALL
NO_CHARGES


@<TRIPOS>ATOM
      1 CA        117.6015   -0.0785   12.0705 C.3       4 GLC5        0.0000 
      2 CA        116.1570    1.3890   12.1840 C.3      12 GLL5        0.0000 
      3 CA        119.0460   -1.5460   11.9570 C.3       8 GLP5        0.0000 
      4 CA        117.9835    0.1020   10.8945 C.3       4 GLC5        0.0000 
      5 CA        116.9210    1.7500    9.8320 C.3      12 GLL5        0.0000 
      6 CA        118.5030   -0.0365    9.1900 C.3       4 GLC5        0.0000 
      7 CA        117.9200    2.0800    8.8740 C.3      12 GLL5        0.0000 
      8 CA        119.0860   -2.1530    9.5060 C.3       8 GLP5        0.0000 
      9 CA        118.2515    0.8465    7.3460 C.3       4 GLC5        0.0000 
     10 CA        118.5830   -0.3870    5.8180 C.3       8 GLP5        0.0000 
     11 O         121.5725    3.2830    8.8740 O.2       1 ALC1        0.0000 
     12 O         120.2300    2.7270    8.5050 O.2       9 ALL1        0.0000 
     13 O         122.9150    3.8390    9.2430 O.2       5 ALP1        0.0000 
     14 O         120.3060    2.2150    6.9815 O.2       1 ALC1        0.0000 
     15 O         120.3820    1.7030    5.4580 O.2       5 ALP1        0.0000 
     16 N         119.1145    2.4450   14.2455 N.am      2 SEC2        0.0000 
     17 N         118.7500    2.1100   12.8380 N.am     10 SEL2        0.0000 
     18 N         119.4790    2.7800   15.6530 N.am      6 SEP2        0.0000 
     19 N         120.2555    1.3290   12.7715 N.am      2 SEC2        0.0000 
     20 N         121.7610    0.5480   12.7050 N.am      6 SEP2        0.0000 
     21 N         120.1725    2.4635   12.5890 N.am      2 SEC2        0.0000 
     22 N         121.5950    2.8170   12.3400 N.am      6 SEP2        0.0000 
     23 CA        117.2855    3.8420   13.3585 C.3       4 GLC5        0.0000 
     24 CA        115.4810    2.5900   12.8820 C.3      12 GLL5        0.0000 
     25 CA        119.0900    5.0940   13.8350 C.3       8 GLP5        0.0000 
     26 N         116.1550    2.7795   15.4770 N.am      2 SEC2        0.0000 
     27 N         116.1110    2.9120   14.1150 N.am     10 SEL2        0.0000 
     28 N         116.1990    2.6470   16.8390 N.am      6 SEP2        0.0000 
     29 NZ        108.8970    4.7400    8.5570 N.4       3 LYC4        0.0000 
     30 NZ        110.4140    5.5460    8.1720 N.4      11 LYL4        0.0000 
     31 NZ        107.3800    3.9340    8.9420 N.4       7 LYP4        0.0000 
     32 N         110.2655    6.0100    5.1445 N.am      2 SEC2        0.0000 
     33 N         110.9820    5.2040    6.0510 N.am     10 SEL2        0.0000 
     34 N         109.5490    6.8160    4.2380 N.am      6 SEP2        0.0000 
     35 N         110.1380   -0.5400    3.8805 N.am      2 SEC2        0.0000 
     36 N         109.7650    0.8300    4.8640 N.am     10 SEL2        0.0000 
     37 N         110.5110   -1.9100    2.8970 N.am      6 SEP2        0.0000 
     38 N         109.8875   -0.9310    9.1440 N.am      2 SEC2        0.0000 
     39 N         108.7970   -0.5190    8.1390 N.am     10 SEL2        0.0000 
     40 N         110.9780   -1.3430   10.1490 N.am      6 SEP2        0.0000 
     41 CA        107.9135   -0.0900    3.9810 C.3       4 GLC5        0.0000 
     42 CA        107.6070   -0.7300    6.0650 C.3      12 GLL5        0.0000 
     43 CA        108.2200    0.5500    1.8970 C.3       8 GLP5        0.0000 
     44 O         112.3785   -1.4685    7.5710 O.2       1 ALC1        0.0000 
     45 O         112.8410   -0.5200    6.7090 O.2       9 ALL1        0.0000 
     46 O         111.9160   -2.4170    8.4330 O.2       5 ALP1        0.0000 
     47 N         113.0130   -1.2350    3.2120 N.am      2 SEC2        0.0000 
     48 N         113.3890   -0.6140    4.4160 N.am     10 SEL2        0.0000 
     49 N         112.6370   -1.8560    2.0080 N.am      6 SEP2        0.0000 
     50 CA        115.5320   -1.9115    5.7545 C.3       4 GLC5        0.0000 
     51 CA        113.7640   -2.5980    5.6320 C.3      12 GLL5        0.0000 
     52 CA        117.3000   -1.2250    5.8770 C.3       8 GLP5        0.0000 
     53 CA        112.5560   -3.7765    6.1075 C.3       4 GLC5        0.0000 
     54 CA        111.3480   -4.9550    6.5830 C.3       8 GLP5        0.0000 
     55 CA        114.8670   -3.4870    4.4085 C.3       4 GLC5        0.0000 
     56 CA        115.9700   -4.3760    3.1850 C.3       8 GLP5        0.0000 
     57 O         115.5265    0.5120    6.8520 O.2       1 ALC1        0.0000 
     58 O         114.7250    1.6480    6.9780 O.2       9 ALL1        0.0000 
     59 O         116.3280   -0.6240    6.7260 O.2       5 ALP1        0.0000 
     60 CA        112.0837    1.4500   13.7155 C.3       4 GLC5        0.0000 
     61 CA        113.8380    0.8970   12.2310 C.3      12 GLL5        0.0000 
     62 CA        110.2490    1.3460   14.8080 C.3       8 GLP5        0.0000 
     63 CA        107.9640   -2.0168    7.4372 C.3       4 GLC5        0.0000 
     64 CA        108.6110    0.0990    6.8680 C.3      12 GLL5        0.0000 
     65 CA        107.8190   -3.7180    8.4080 C.3       8 GLP5        0.0000 
@<TRIPOS>BOND
@<TRIPOS>SUBSTRUCTURE
     1 ALC1       11 GROUP        1 X    ALC  0     ROOT ALC X 1
     2 SEC2       16 GROUP        1 X    SEC  0     **** SEC X 2
     3 LYC4       29 GROUP        1 X    LYC  0     **** LYC X 4
     4 GLC5        1 GROUP        1 X    GLC  0     **** GLC X 6
     5 ALP1       13 GROUP        1 Y    ALP  0     ROOT ALP Y 8
     6 SEP2       18 GROUP        1 Y    SEP  0     **** SEP Y 9
     7 LYP4       31 GROUP        1 Y    LYP  0     **** LYP Y 11
     8 GLP5        3 GROUP        1 Y    GLP  0     **** GLP Y 13
     9 ALL1       12 GROUP        1 Z    ALL  0     ROOT ALL Z 15
    10 SEL2       17 GROUP        1 Z    SEL  0     **** SEL Z 16
    11 LYL4       30 GROUP        1 Z    LYL  0     **** LYL Z 18
    12 GLL5        2 GROUP        1 Z    GLL  0     **** GLL Z 20
@<TRIPOS>SET

