#    Name: 1qwj_NCC_1_ligand
#    Modification time : Tue Mar 25 00:00:31 2014

@<TRIPOS>MOLECULE
1qwj_NCC_1_ligand
   70    72     1     0     0
SMALL
NO_CHARGES


@<TRIPOS>ATOM
      1 O3P       111.1560    3.8670   11.4300 O.co2     1 NCC2002     0.0000 
      2 P         112.0320    3.6190   10.2640 P.3       1 NCC2002     0.0000 
      3 O2P       111.1600    3.0810    9.0120 O.3       1 NCC2002     0.0000 
      4 O1P       112.7180    4.8870    9.9010 O.co2     1 NCC2002     0.0000 
      5 O5'       113.1370    2.5210   10.5720 O.3       1 NCC2002     0.0000 
      6 C5'       112.8930    1.1580   11.0160 C.3       1 NCC2002     0.0000 
      7 C4'       113.8380    0.8970   12.2310 C.3       1 NCC2002     0.0000 
      8 O4'       115.1170    0.5350   11.6770 O.3       1 NCC2002     0.0000 
      9 C1'       116.1570    1.3890   12.1840 C.3       1 NCC2002     0.0000 
     10 N1        117.1990    1.7600   11.1840 N.am      1 NCC2002     0.0000 
     11 C6        116.9210    1.7500    9.8320 C.2       1 NCC2002     0.0000 
     12 C5        117.9200    2.0800    8.8740 C.2       1 NCC2002     0.0000 
     13 C4        119.2160    2.4140    9.3690 C.2       1 NCC2002     0.0000 
     14 N4        120.2300    2.7270    8.5050 N.pl3     1 NCC2002     0.0000 
     15 N3        119.4450    2.4160   10.7180 N.2       1 NCC2002     0.0000 
     16 C2        118.4730    2.0890   11.6310 C.2       1 NCC2002     0.0000 
     17 O2        118.7500    2.1100   12.8380 O.2       1 NCC2002     0.0000 
     18 C2'       115.4810    2.5900   12.8820 C.3       1 NCC2002     0.0000 
     19 O2'       116.1110    2.9120   14.1150 O.3       1 NCC2002     0.0000 
     20 C3'       113.9990    2.2110   13.0150 C.3       1 NCC2002     0.0000 
     21 O3'       113.6770    1.9400   14.3820 O.3       1 NCC2002     0.0000 
     22 C9        110.8750    4.8050    7.3160 C.2       1 NCC2002     0.0000 
     23 O1B       110.4140    5.5460    8.1720 O.co2     1 NCC2002     0.0000 
     24 O1A       110.9820    5.2040    6.0510 O.co2     1 NCC2002     0.0000 
     25 C10       111.3480    3.3870    7.5850 C.3       1 NCC2002     0.0000 
     26 O6        110.5240    2.4710    6.8080 O.3       1 NCC2002     0.0000 
     27 C12       110.9180    1.0790    6.9730 C.3       1 NCC2002     0.0000 
     28 C13       109.9550    0.2110    6.1390 C.3       1 NCC2002     0.0000 
     29 O7        109.7650    0.8300    4.8640 O.3       1 NCC2002     0.0000 
     30 C14       108.6110    0.0990    6.8680 C.3       1 NCC2002     0.0000 
     31 O8        108.7970   -0.5190    8.1390 O.3       1 NCC2002     0.0000 
     32 C15       107.6070   -0.7300    6.0650 C.3       1 NCC2002     0.0000 
     33 O9        106.5300    0.1220    5.6580 O.3       1 NCC2002     0.0000 
     34 C16       112.4270    0.8650    6.5250 C.3       1 NCC2002     0.0000 
     35 N5        112.8410   -0.5200    6.7090 N.am      1 NCC2002     0.0000 
     36 C17       113.3240   -1.1660    5.5060 C.2       1 NCC2002     0.0000 
     37 O10       113.3890   -0.6140    4.4160 O.2       1 NCC2002     0.0000 
     38 C18       113.7640   -2.5980    5.6320 C.3       1 NCC2002     0.0000 
     39 C19       113.3460    1.7990    7.3660 C.3       1 NCC2002     0.0000 
     40 O4        114.7250    1.6480    6.9780 O.3       1 NCC2002     0.0000 
     41 C20       112.8610    3.2530    7.1440 C.3       1 NCC2002     0.0000 
     42 H         113.1361    0.4358   10.2528 H         1 NCC2002     0.0000 
     43 H         111.8789    1.0204   11.3562 H         1 NCC2002     0.0000 
     44 H         113.4250    0.1594   12.8336 H         1 NCC2002     0.0000 
     45 H         116.6714    0.8312   13.0220 H         1 NCC2002     0.0000 
     46 H         115.9784    1.5015    9.4916 H         1 NCC2002     0.0000 
     47 H         117.7243    2.0785    7.8959 H         1 NCC2002     0.0000 
     48 H         120.0163    2.6539    7.5308 H         1 NCC2002     0.0000 
     49 H         121.0957    3.0014    8.9235 H         1 NCC2002     0.0000 
     50 H         115.5299    3.4178   12.1666 H         1 NCC2002     0.0000 
     51 H         113.4048    2.9451   12.5731 H         1 NCC2002     0.0000 
     52 H         110.8385    0.7785    8.0024 H         1 NCC2002     0.0000 
     53 H         110.3793   -0.7660    6.0497 H         1 NCC2002     0.0000 
     54 H         108.2045    1.0960    6.9811 H         1 NCC2002     0.0000 
     55 H         107.2607   -1.5455    6.7017 H         1 NCC2002     0.0000 
     56 H         108.1328   -1.1560    5.2092 H         1 NCC2002     0.0000 
     57 H         112.5017    1.1679    5.4980 H         1 NCC2002     0.0000 
     58 H         112.7953   -0.9671    7.5657 H         1 NCC2002     0.0000 
     59 H         113.1873    1.5569    8.4022 H         1 NCC2002     0.0000 
     60 H         113.4499    3.9273    7.7416 H         1 NCC2002     0.0000 
     61 H         112.9340    3.5045    6.1000 H         1 NCC2002     0.0000 
     62 H         114.0837   -2.9665    4.7591 H         1 NCC2002     0.0000 
     63 H         114.5140   -2.6999    6.2855 H         1 NCC2002     0.0000 
     64 H         113.0203   -3.1889    5.9448 H         1 NCC2002     0.0000 
     65 H         117.0269    2.5162   14.0486 H         1 NCC2002     0.0000 
     66 H         114.4856    2.2211   14.8989 H         1 NCC2002     0.0000 
     67 H         109.6233    1.7991    5.0655 H         1 NCC2002     0.0000 
     68 H         107.8731   -0.6755    8.4882 H         1 NCC2002     0.0000 
     69 H         105.8975   -0.4771    5.1671 H         1 NCC2002     0.0000 
     70 H         114.9013    0.6649    7.0268 H         1 NCC2002     0.0000 
@<TRIPOS>BOND
     1    2    1 ar   
     2    3    2 1    
     3    4    2 ar   
     4    5    2 1    
     5   25    3 1    
     6    6    5 1    
     7    7    6 1    
     8   42    6 1    
     9   43    6 1    
    10    8    7 1    
    11   20    7 1    
    12   44    7 1    
    13    9    8 1    
    14   10    9 1    
    15   18    9 1    
    16   45    9 1    
    17   11   10 1    
    18   16   10 am   
    19   12   11 2    
    20   46   11 1    
    21   13   12 1    
    22   47   12 1    
    23   14   13 1    
    24   15   13 2    
    25   48   14 1    
    26   49   14 1    
    27   16   15 1    
    28   17   16 2    
    29   19   18 1    
    30   20   18 1    
    31   50   18 1    
    32   65   19 1    
    33   21   20 1    
    34   51   20 1    
    35   66   21 1    
    36   23   22 ar   
    37   24   22 ar   
    38   25   22 1    
    39   26   25 1    
    40   41   25 1    
    41   27   26 1    
    42   28   27 1    
    43   34   27 1    
    44   52   27 1    
    45   29   28 1    
    46   30   28 1    
    47   53   28 1    
    48   67   29 1    
    49   31   30 1    
    50   32   30 1    
    51   54   30 1    
    52   68   31 1    
    53   33   32 1    
    54   55   32 1    
    55   56   32 1    
    56   69   33 1    
    57   35   34 1    
    58   39   34 1    
    59   57   34 1    
    60   36   35 am   
    61   58   35 1    
    62   37   36 2    
    63   38   36 1    
    64   62   38 1    
    65   63   38 1    
    66   64   38 1    
    67   40   39 1    
    68   41   39 1    
    69   59   39 1    
    70   70   40 1    
    71   60   41 1    
    72   61   41 1    
@<TRIPOS>SUBSTRUCTURE
     1 NCC2002     1 GROUP   
@<TRIPOS>SET

