#    Name: 3caq_NDP_2_INTS_M
#    Modification time : Mon Mar 24 20:35:29 2014

@<TRIPOS>MOLECULE
3caq_NDP_2_INTS_M
  109     0    12     0     0
SMALL
NO_CHARGES


@<TRIPOS>ATOM
      1 N          -6.8095  -40.2520   71.7020 N.am      2 SEC2        0.0000 
      2 N          -7.0540  -39.5500   70.4040 N.am     10 SEL2        0.0000 
      3 N          -6.5650  -40.9540   73.0000 N.am      6 SEP2        0.0000 
      4 N          -8.2040  -38.6460   70.7500 N.am      2 SEC2        0.0000 
      5 N          -9.3540  -37.7420   71.0960 N.am      6 SEP2        0.0000 
      6 N          -3.8820  -40.5785   68.1495 N.am      2 SEC2        0.0000 
      7 N          -5.1710  -40.2280   68.8250 N.am     10 SEL2        0.0000 
      8 N          -2.5930  -40.9290   67.4740 N.am      6 SEP2        0.0000 
      9 CA         -7.7545  -36.7920   69.2805 C.3       4 GLC5        0.0000 
     10 CA         -5.9540  -36.5810   68.7240 C.3      12 GLL5        0.0000 
     11 CA         -9.5550  -37.0030   69.8370 C.3       8 GLP5        0.0000 
     12 CA         -6.0310  -34.3180   67.3100 C.3       4 GLC5        0.0000 
     13 CA         -4.0250  -35.1620   67.7060 C.3      12 GLL5        0.0000 
     14 CA         -8.0370  -33.4740   66.9140 C.3       8 GLP5        0.0000 
     15 CA         -3.4235  -36.2980   66.1230 C.3       4 GLC5        0.0000 
     16 CA         -2.8220  -37.4340   64.5400 C.3       8 GLP5        0.0000 
     17 N           0.5610  -38.4415   70.9700 N.am      2 SEC2        0.0000 
     18 N          -0.2320  -37.0460   71.2210 N.am     10 SEL2        0.0000 
     19 N           1.3540  -39.8370   70.7190 N.am      6 SEP2        0.0000 
     20 CA         -0.2040  -37.0865   74.8975 C.3       4 GLC5        0.0000 
     21 CA          0.2940  -35.8500   73.4320 C.3      12 GLL5        0.0000 
     22 CA         -0.7020  -38.3230   76.3630 C.3       8 GLP5        0.0000 
     23 O           2.1615  -36.7050   75.1115 O.2       1 ALC1        0.0000 
     24 O           1.2380  -36.6870   73.8870 O.2       9 ALL1        0.0000 
     25 O           3.0850  -36.7230   76.3360 O.2       5 ALP1        0.0000 
     26 O           1.4445  -38.1470   73.4120 O.2       1 ALC1        0.0000 
     27 O           1.6510  -39.6070   72.9370 O.2       5 ALP1        0.0000 
     28 CA         -2.4085  -34.5190   74.6090 C.3       4 GLC5        0.0000 
     29 CA         -1.0610  -33.8720   73.7030 C.3      12 GLL5        0.0000 
     30 CA         -3.7560  -35.1660   75.5150 C.3       8 GLP5        0.0000 
     31 CA          0.4730  -33.6330   72.0775 C.3       4 GLC5        0.0000 
     32 CA          2.0070  -33.3940   70.4520 C.3       8 GLP5        0.0000 
     33 CA         -2.5475  -35.1485   73.6560 C.3       4 GLC5        0.0000 
     34 CA         -1.3390  -35.1310   71.7970 C.3      12 GLL5        0.0000 
     35 CA          0.3340  -34.2625   71.1245 C.3       4 GLC5        0.0000 
     36 N          -9.8845  -40.5995   67.4720 N.am      2 SEC2        0.0000 
     37 N          -8.9370  -40.1680   66.7140 N.am     10 SEL2        0.0000 
     38 N         -10.8320  -41.0310   68.2300 N.am      6 SEP2        0.0000 
     39 CA         -8.0330  -43.9120   67.5435 C.3       4 GLC5        0.0000 
     40 CA         -6.8670  -42.3310   66.7370 C.3      12 GLL5        0.0000 
     41 CA         -9.1990  -45.4930   68.3500 C.3       8 GLP5        0.0000 
     42 CA         -7.9520  -42.1135   68.1900 C.3       4 GLC5        0.0000 
     43 CA         -9.0370  -41.8960   69.6430 C.3       8 GLP5        0.0000 
     44 CA         -6.7240  -42.8855   68.5470 C.3       4 GLC5        0.0000 
     45 CA         -6.5810  -43.4400   70.3570 C.3       8 GLP5        0.0000 
     46 CA         -6.2125  -44.4530   66.7930 C.3       4 GLC5        0.0000 
     47 CA         -5.5580  -46.5750   66.8490 C.3       8 GLP5        0.0000 
     48 CA         -8.3505  -44.2515   66.2280 C.3       4 GLC5        0.0000 
     49 CA         -6.6910  -43.0110   65.4180 C.3      12 GLL5        0.0000 
     50 CA        -10.0100  -45.4920   67.0380 C.3       8 GLP5        0.0000 
     51 CA         -6.5290  -44.9690   65.5040 C.3       4 GLC5        0.0000 
     52 CA         -6.3670  -46.9270   65.5900 C.3       8 GLP5        0.0000 
     53 CA         -5.1135  -40.9710   64.7855 C.3       4 GLC5        0.0000 
     54 CA         -6.8860  -42.1440   64.1460 C.3      12 GLL5        0.0000 
     55 CA         -3.3410  -39.7980   65.4250 C.3       8 GLP5        0.0000 
     56 N          -5.4705  -40.8290   62.2965 N.am      2 SEC2        0.0000 
     57 N          -5.8080  -41.3070   63.7700 N.am     10 SEL2        0.0000 
     58 N          -5.1330  -40.3510   60.8230 N.am      6 SEP2        0.0000 
     59 CA         -7.3595  -43.1765   61.1120 C.3       4 GLC5        0.0000 
     60 CA         -7.3070  -43.1880   63.1410 C.3      12 GLL5        0.0000 
     61 CA         -7.4120  -43.1650   59.0830 C.3       8 GLP5        0.0000 
     62 N          -4.7010  -43.0610   62.1220 N.am      2 SEC2        0.0000 
     63 N          -6.1390  -43.7800   62.5960 N.am     10 SEL2        0.0000 
     64 N          -3.2630  -42.3420   61.6480 N.am      6 SEP2        0.0000 
     65 O          -6.1850  -45.0930   62.2755 O.2       1 ALC1        0.0000 
     66 O          -6.1390  -43.7800   62.5960 O.2       9 ALL1        0.0000 
     67 O          -6.2310  -46.4060   61.9550 O.2       5 ALP1        0.0000 
     68 CA         -9.0955  -44.8045   65.5150 C.3       4 GLC5        0.0000 
     69 CA         -8.1810  -44.1170   63.9920 C.3      12 GLL5        0.0000 
     70 CA         -7.2740  -45.5220   64.7910 C.3       4 GLC5        0.0000 
     71 CA         -9.9155  -46.3365   61.9890 C.3       4 GLC5        0.0000 
     72 CA        -10.4800  -44.7880   63.4910 C.3      12 GLL5        0.0000 
     73 CA         -9.3510  -47.8850   60.4870 C.3       8 GLP5        0.0000 
     74 N         -15.2285  -46.0210   63.1425 N.am      2 SEC2        0.0000 
     75 N         -13.9940  -45.4820   62.8580 N.am     10 SEL2        0.0000 
     76 N         -16.4630  -46.5600   63.4270 N.am      6 SEP2        0.0000 
     77 O         -12.9630  -47.9930   62.8405 O.2       1 ALC1        0.0000 
     78 O         -12.2130  -46.8450   62.5240 O.2       9 ALL1        0.0000 
     79 O         -13.7130  -49.1410   63.1570 O.2       5 ALP1        0.0000 
     80 O         -10.8865  -47.2910   63.1570 O.2       1 ALC1        0.0000 
     81 O          -9.5600  -47.7370   63.7900 O.2       5 ALP1        0.0000 
     82 NZ         -1.6550  -34.8065   64.6485 N.4       3 LYC4        0.0000 
     83 NZ         -0.8780  -34.4780   65.7910 N.4      11 LYL4        0.0000 
     84 NZ         -2.4320  -35.1350   63.5060 N.4       7 LYP4        0.0000 
     85 N          -1.6550  -34.8065   64.6485 N.am      2 SEC2        0.0000 
     86 N          -0.8780  -34.4780   65.7910 N.am     10 SEL2        0.0000 
     87 N          -2.4320  -35.1350   63.5060 N.am      6 SEP2        0.0000 
     88 N           0.2675  -35.2785   65.1015 N.am      2 SEC2        0.0000 
     89 N           1.4130  -36.0790   64.4120 N.am      6 SEP2        0.0000 
     90 N           1.1970  -35.3200   67.8095 N.am      2 SEC2        0.0000 
     91 N           0.3580  -34.2050   67.9650 N.am     10 SEL2        0.0000 
     92 N           2.0360  -36.4350   67.6540 N.am      6 SEP2        0.0000 
     93 N           1.0160  -32.7590   68.2590 N.am      2 SEC2        0.0000 
     94 N           1.6740  -31.3130   68.5530 N.am      6 SEP2        0.0000 
     95 CA         -6.8692  -34.8528   68.6043 C.3       4 GLC5        0.0000 
     96 CA         -4.9430  -35.4060   68.8990 C.3      12 GLL5        0.0000 
     97 CA         -8.2900  -33.7120   68.3970 C.3       8 GLP5        0.0000 
     98 CA          1.4830  -35.1355   71.9770 C.3       4 GLC5        0.0000 
     99 CA         -0.3620  -36.0760   72.1640 C.3      12 GLL5        0.0000 
    100 CA          3.0000  -34.3080   71.1560 C.3       8 GLP5        0.0000 
    101 CA         -1.6222  -37.3190   72.3468 C.3       4 GLC5        0.0000 
    102 CA         -2.5580  -39.0910   72.3960 C.3       8 GLP5        0.0000 
    103 CA         -7.3223  -41.2105   62.3003 C.3       4 GLC5        0.0000 
    104 CA         -7.5480  -39.7550   60.9570 C.3       8 GLP5        0.0000 
    105 CA         -4.9734  -43.1069   63.9128 C.3       4 GLC5        0.0000 
    106 CA         -2.8990  -43.3310   63.8640 C.3       8 GLP5        0.0000 
    107 CA        -10.5930  -45.0930   65.2475 C.3       4 GLC5        0.0000 
    108 CA        -10.4518  -43.9497   65.7123 C.3       4 GLC5        0.0000 
    109 CA        -10.2010  -42.5180   64.4150 C.3      12 GLL5        0.0000 
@<TRIPOS>BOND
@<TRIPOS>SUBSTRUCTURE
     1 ALC1       23 GROUP        1 X    ALC  0     ROOT ALC X 1
     2 SEC2        1 GROUP        1 X    SEC  0     **** SEC X 2
     3 LYC4       82 GROUP        1 X    LYC  0     **** LYC X 4
     4 GLC5        9 GROUP        1 X    GLC  0     **** GLC X 6
     5 ALP1       25 GROUP        1 Y    ALP  0     ROOT ALP Y 8
     6 SEP2        3 GROUP        1 Y    SEP  0     **** SEP Y 9
     7 LYP4       84 GROUP        1 Y    LYP  0     **** LYP Y 11
     8 GLP5       11 GROUP        1 Y    GLP  0     **** GLP Y 13
     9 ALL1       24 GROUP        1 Z    ALL  0     ROOT ALL Z 15
    10 SEL2        2 GROUP        1 Z    SEL  0     **** SEL Z 16
    11 LYL4       83 GROUP        1 Z    LYL  0     **** LYL Z 18
    12 GLL5       10 GROUP        1 Z    GLL  0     **** GLL Z 20
@<TRIPOS>SET

