#    Name: 3caq_NDP_2_ligand
#    Modification time : Mon Mar 24 20:35:29 2014

@<TRIPOS>MOLECULE
3caq_NDP_2_ligand
   74    78     1     0     0
SMALL
NO_CHARGES


@<TRIPOS>ATOM
      1 PA         -6.2060  -39.2490   69.2270 P.3       1 NDP327      0.0000 
      2 O1A        -7.0540  -39.5500   70.4040 O.co2     1 NDP327      0.0000 
      3 O2A        -5.1710  -40.2280   68.8250 O.co2     1 NDP327      0.0000 
      4 O5B        -5.5220  -37.7710   69.4550 O.3       1 NDP327      0.0000 
      5 C5B        -5.9540  -36.5810   68.7240 C.3       1 NDP327      0.0000 
      6 C4B        -4.9430  -35.4060   68.8990 C.3       1 NDP327      0.0000 
      7 O4B        -4.0340  -35.6480   70.0010 O.3       1 NDP327      0.0000 
      8 C3B        -4.0250  -35.1620   67.7060 C.3       1 NDP327      0.0000 
      9 O3B        -4.5420  -34.1300   66.8850 O.3       1 NDP327      0.0000 
     10 C2B        -2.6360  -34.8570   68.2890 C.3       1 NDP327      0.0000 
     11 O2B        -2.0630  -33.6250   67.8560 O.3       1 NDP327      0.0000 
     12 C1B        -2.8510  -34.8940   69.7890 C.3       1 NDP327      0.0000 
     13 N9A        -1.8070  -35.5470   70.5940 N.pl3     1 NDP327      0.0000 
     14 C8A        -1.1050  -36.7060   70.2940 C.2       1 NDP327      0.0000 
     15 N7A        -0.2320  -37.0460   71.2210 N.2       1 NDP327      0.0000 
     16 C5A        -0.3620  -36.0760   72.1640 C.ar      1 NDP327      0.0000 
     17 C6A         0.2940  -35.8500   73.4320 C.ar      1 NDP327      0.0000 
     18 N6A         1.2380  -36.6870   73.8870 N.pl3     1 NDP327      0.0000 
     19 N1A        -0.0850  -34.7360   74.1660 N.ar      1 NDP327      0.0000 
     20 C2A        -1.0610  -33.8720   73.7030 C.ar      1 NDP327      0.0000 
     21 N3A        -1.7440  -33.9970   72.5180 N.ar      1 NDP327      0.0000 
     22 C4A        -1.3390  -35.1310   71.7970 C.ar      1 NDP327      0.0000 
     23 O3         -7.1990  -39.0010   67.9910 O.3       1 NDP327      0.0000 
     24 PN         -7.5110  -39.7410   66.6300 P.3       1 NDP327      0.0000 
     25 O1N        -7.1620  -38.8510   65.5200 O.co2     1 NDP327      0.0000 
     26 O2N        -8.9370  -40.1680   66.7140 O.co2     1 NDP327      0.0000 
     27 O5D        -6.5210  -40.9710   66.6220 O.3       1 NDP327      0.0000 
     28 C5D        -6.8670  -42.3310   66.7370 C.3       1 NDP327      0.0000 
     29 C4D        -6.6910  -43.0110   65.4180 C.3       1 NDP327      0.0000 
     30 O4D        -7.7650  -43.9720   65.3210 O.3       1 NDP327      0.0000 
     31 C3D        -6.8860  -42.1440   64.1460 C.3       1 NDP327      0.0000 
     32 O3D        -5.8080  -41.3070   63.7700 O.3       1 NDP327      0.0000 
     33 C2D        -7.3070  -43.1880   63.1410 C.3       1 NDP327      0.0000 
     34 O2D        -6.1390  -43.7800   62.5960 O.3       1 NDP327      0.0000 
     35 C1D        -8.1810  -44.1170   63.9920 C.3       1 NDP327      0.0000 
     36 N1N        -9.6510  -43.7840   63.9700 N.pl3     1 NDP327      0.0000 
     37 C2N       -10.4800  -44.7880   63.4910 C.2       1 NDP327      0.0000 
     38 C3N       -11.8720  -44.6000   63.4230 C.2       1 NDP327      0.0000 
     39 C7N       -12.7770  -45.6810   62.9100 C.2       1 NDP327      0.0000 
     40 O7N       -13.9940  -45.4820   62.8580 O.2       1 NDP327      0.0000 
     41 N7N       -12.2130  -46.8450   62.5240 N.am      1 NDP327      0.0000 
     42 C4N       -12.4360  -43.3270   63.8630 C.3       1 NDP327      0.0000 
     43 C5N       -11.5860  -42.2970   64.3580 C.2       1 NDP327      0.0000 
     44 C6N       -10.2010  -42.5180   64.4150 C.2       1 NDP327      0.0000 
     45 P2B        -0.6680  -33.6190   67.0270 P.3       1 NDP327      0.0000 
     46 O1X        -0.8780  -34.4780   65.7910 O.co2     1 NDP327      0.0000 
     47 O2X        -0.4260  -32.1530   66.7660 O.co2     1 NDP327      0.0000 
     48 O3X         0.3580  -34.2050   67.9650 O.co2     1 NDP327      0.0000 
     49 H          -6.9294  -36.2288   69.0783 H         1 NDP327      0.0000 
     50 H          -6.0385  -36.7827   67.6502 H         1 NDP327      0.0000 
     51 H          -5.4967  -34.4935   69.0859 H         1 NDP327      0.0000 
     52 H          -3.9474  -36.1099   67.1748 H         1 NDP327      0.0000 
     53 H          -2.0042  -35.7156   68.0466 H         1 NDP327      0.0000 
     54 H          -3.0131  -33.8817   70.1413 H         1 NDP327      0.0000 
     55 H          -1.2720  -37.2076   69.4479 H         1 NDP327      0.0000 
     56 H           1.9414  -36.2815   74.4707 H         1 NDP327      0.0000 
     57 H           1.1540  -37.6418   73.6018 H         1 NDP327      0.0000 
     58 H          -1.3025  -33.0334   74.3258 H         1 NDP327      0.0000 
     59 H          -7.9146  -42.4600   67.0544 H         1 NDP327      0.0000 
     60 H          -6.2391  -42.8503   67.4792 H         1 NDP327      0.0000 
     61 H          -5.7608  -43.5138   65.3541 H         1 NDP327      0.0000 
     62 H          -7.8166  -41.5605   64.3601 H         1 NDP327      0.0000 
     63 H          -7.9284  -42.7061   62.4245 H         1 NDP327      0.0000 
     64 H          -8.0397  -45.1272   63.6560 H         1 NDP327      0.0000 
     65 H         -10.0788  -45.6857   63.1791 H         1 NDP327      0.0000 
     66 H         -11.2264  -46.9244   62.6663 H         1 NDP327      0.0000 
     67 H         -12.8319  -47.5245   62.1300 H         1 NDP327      0.0000 
     68 H         -13.2486  -43.5539   64.6440 H         1 NDP327      0.0000 
     69 H         -13.0739  -42.9092   63.0027 H         1 NDP327      0.0000 
     70 H         -11.9866  -41.4156   64.6641 H         1 NDP327      0.0000 
     71 H          -9.5673  -41.8049   64.7643 H         1 NDP327      0.0000 
     72 H          -3.7699  -33.5148   66.7258 H         1 NDP327      0.0000 
     73 H          -6.0063  -40.4235   64.1944 H         1 NDP327      0.0000 
     74 H          -6.3744  -44.7429   62.4642 H         1 NDP327      0.0000 
@<TRIPOS>BOND
     1    2    1 ar   
     2    3    1 ar   
     3    4    1 1    
     4   23    1 1    
     5    5    4 1    
     6    6    5 1    
     7   49    5 1    
     8   50    5 1    
     9    7    6 1    
    10    8    6 1    
    11   51    6 1    
    12   12    7 1    
    13    9    8 1    
    14   10    8 1    
    15   52    8 1    
    16   72    9 1    
    17   11   10 1    
    18   12   10 1    
    19   53   10 1    
    20   45   11 1    
    21   13   12 1    
    22   54   12 1    
    23   14   13 1    
    24   22   13 1    
    25   15   14 2    
    26   55   14 1    
    27   16   15 1    
    28   17   16 ar   
    29   22   16 ar   
    30   18   17 1    
    31   19   17 ar   
    32   56   18 1    
    33   57   18 1    
    34   20   19 ar   
    35   21   20 ar   
    36   58   20 1    
    37   22   21 ar   
    38   24   23 1    
    39   25   24 ar   
    40   26   24 ar   
    41   27   24 1    
    42   28   27 1    
    43   29   28 1    
    44   59   28 1    
    45   60   28 1    
    46   30   29 1    
    47   31   29 1    
    48   61   29 1    
    49   35   30 1    
    50   32   31 1    
    51   33   31 1    
    52   62   31 1    
    53   73   32 1    
    54   34   33 1    
    55   35   33 1    
    56   63   33 1    
    57   74   34 1    
    58   36   35 1    
    59   64   35 1    
    60   37   36 1    
    61   44   36 1    
    62   38   37 2    
    63   65   37 1    
    64   39   38 1    
    65   42   38 1    
    66   40   39 2    
    67   41   39 am   
    68   66   41 1    
    69   67   41 1    
    70   43   42 1    
    71   68   42 1    
    72   69   42 1    
    73   44   43 2    
    74   70   43 1    
    75   71   44 1    
    76   46   45 ar   
    77   47   45 ar   
    78   48   45 ar   
@<TRIPOS>SUBSTRUCTURE
     1 NDP327      1 GROUP   
@<TRIPOS>SET

