#    Name: 1w44_ADP_3_INTS_M
#    Modification time : Tue Mar 25 08:35:00 2014

@<TRIPOS>MOLECULE
1w44_ADP_3_INTS_M
   52     0     9     0     0
SMALL
NO_CHARGES


@<TRIPOS>ATOM
      1 NZ         35.0260   51.7250   23.7415 N.4       2 LYC4        0.0000 
      2 NZ         34.1330   50.9290   22.4580 N.4       8 LYL4        0.0000 
      3 NZ         35.9190   52.5210   25.0250 N.4       5 LYP4        0.0000 
      4 N          34.1100   50.6135   21.0215 N.am      1 SEC2        0.0000 
      5 N          34.1330   50.9290   22.4580 N.am      7 SEL2        0.0000 
      6 N          34.0870   50.2980   19.5850 N.am      4 SEP2        0.0000 
      7 NZ         34.3820   52.7510   24.1610 N.4       2 LYC4        0.0000 
      8 NZ         32.8450   52.9810   23.2970 N.4       8 LYL4        0.0000 
      9 N          31.1955   52.6140   22.8450 N.am      1 SEC2        0.0000 
     10 N          32.8450   52.9810   23.2970 N.am      7 SEL2        0.0000 
     11 N          29.5460   52.2470   22.3930 N.am      4 SEP2        0.0000 
     12 N          30.6725   51.4865   22.7405 N.am      1 SEC2        0.0000 
     13 N          31.7990   50.7260   23.0880 N.am      7 SEL2        0.0000 
     14 N          30.5090   50.0805   23.1300 N.am      1 SEC2        0.0000 
     15 N          29.2190   49.4350   23.1720 N.am      4 SEP2        0.0000 
     16 N          31.4330   49.1290   23.5830 N.am      1 SEC2        0.0000 
     17 N          31.0670   47.5320   24.0780 N.am      4 SEP2        0.0000 
     18 NZ         35.1085   51.1900   25.9510 N.4       2 LYC4        0.0000 
     19 NZ         34.2980   49.8590   26.8770 N.4       8 LYL4        0.0000 
     20 N          32.1445   48.0875   24.6070 N.am      1 SEC2        0.0000 
     21 N          33.2220   48.6430   25.1360 N.am      7 SEL2        0.0000 
     22 N          34.7235   51.8225   24.9580 N.am      1 SEC2        0.0000 
     23 N          33.5280   51.1240   24.8910 N.am      7 SEL2        0.0000 
     24 N          35.9190   52.5210   25.0250 N.am      4 SEP2        0.0000 
     25 CA         31.0585   49.7980   28.1280 C.3       3 GLC5        0.0000 
     26 CA         31.7650   51.4000   27.2890 C.3       9 GLL5        0.0000 
     27 CA         30.3520   48.1960   28.9670 C.3       6 GLP5        0.0000 
     28 CA         34.1430   54.2965   25.6145 C.3       3 GLC5        0.0000 
     29 CA         32.5200   53.6480   26.8610 C.3       9 GLL5        0.0000 
     30 CA         35.7660   54.9450   24.3680 C.3       6 GLP5        0.0000 
     31 CA         32.1410   54.7955   30.2670 C.3       3 GLC5        0.0000 
     32 CA         32.2000   54.3200   28.1580 C.3       9 GLL5        0.0000 
     33 CA         32.0820   55.2710   32.3760 C.3       6 GLP5        0.0000 
     34 CA         30.1315   54.3125   25.9885 C.3       3 GLC5        0.0000 
     35 CA         30.6910   54.5370   28.0150 C.3       9 GLL5        0.0000 
     36 CA         29.5720   54.0880   23.9620 C.3       6 GLP5        0.0000 
     37 CA         28.6100   54.9055   28.1485 C.3       3 GLC5        0.0000 
     38 CA         26.5290   55.2740   28.2820 C.3       6 GLP5        0.0000 
     39 N          28.7805   52.9670   32.0465 N.am      1 SEC2        0.0000 
     40 N          28.9670   54.0180   31.2380 N.am      7 SEL2        0.0000 
     41 N          28.5940   51.9160   32.8550 N.am      4 SEP2        0.0000 
     42 CA         28.1855   53.2360   31.6915 C.3       3 GLC5        0.0000 
     43 CA         28.8260   55.2810   31.1570 C.3       9 GLL5        0.0000 
     44 CA         27.5450   51.1910   32.2260 C.3       6 GLP5        0.0000 
     45 CA         26.1050   56.1680   31.7910 C.3       3 GLC5        0.0000 
     46 CA         28.2280   56.2460   31.9580 C.3       9 GLL5        0.0000 
     47 CA         23.9820   56.0900   31.6240 C.3       6 GLP5        0.0000 
     48 CA         29.9498   51.3665   26.3547 C.3       3 GLC5        0.0000 
     49 CA         31.3880   52.7360   26.6720 C.3       9 GLL5        0.0000 
     50 CA         28.3230   50.6650   25.7290 C.3       6 GLP5        0.0000 
     51 CA         30.7630   53.6400   25.3642 C.3       3 GLC5        0.0000 
     52 CA         30.5350   55.5034   31.5626 C.3       3 GLC5        0.0000 
@<TRIPOS>BOND
@<TRIPOS>SUBSTRUCTURE
     1 SEC2        4 GROUP        1 X    SEC  0     ROOT SEC X 2
     2 LYC4        1 GROUP        1 X    LYC  0     **** LYC X 4
     3 GLC5       25 GROUP        1 X    GLC  0     **** GLC X 6
     4 SEP2        6 GROUP        1 Y    SEP  0     ROOT SEP Y 9
     5 LYP4        3 GROUP        1 Y    LYP  0     **** LYP Y 11
     6 GLP5       27 GROUP        1 Y    GLP  0     **** GLP Y 13
     7 SEL2        5 GROUP        1 Z    SEL  0     ROOT SEL Z 16
     8 LYL4        2 GROUP        1 Z    LYL  0     **** LYL Z 18
     9 GLL5       26 GROUP        1 Z    GLL  0     **** GLL Z 20
@<TRIPOS>SET

