#    Name: 1w44_ADP_3_ligand
#    Modification time : Tue Mar 25 08:35:00 2014

@<TRIPOS>MOLECULE
1w44_ADP_3_ligand
   39    41     1     0     0
SMALL
NO_CHARGES


@<TRIPOS>ATOM
      1 PB         33.0720   51.4170   23.3890 P.3       1 ADP700      0.0000 
      2 O1B        34.1330   50.9290   22.4580 O.co2     1 ADP700      0.0000 
      3 O2B        32.8450   52.9810   23.2970 O.co2     1 ADP700      0.0000 
      4 O3B        31.7990   50.7260   23.0880 O.co2     1 ADP700      0.0000 
      5 PA         33.2780   49.9070   25.8870 P.3       1 ADP700      0.0000 
      6 O1A        34.2980   49.8590   26.8770 O.co2     1 ADP700      0.0000 
      7 O2A        33.2220   48.6430   25.1360 O.co2     1 ADP700      0.0000 
      8 O3A        33.5280   51.1240   24.8910 O.3       1 ADP700      0.0000 
      9 O5'        31.8440   50.2640   26.4720 O.3       1 ADP700      0.0000 
     10 C5'        31.7650   51.4000   27.2890 C.3       1 ADP700      0.0000 
     11 C4'        31.3880   52.7360   26.6720 C.3       1 ADP700      0.0000 
     12 O4'        30.2690   53.2970   27.3730 O.3       1 ADP700      0.0000 
     13 C3'        32.5200   53.6480   26.8610 C.3       1 ADP700      0.0000 
     14 O3'        32.6930   54.5700   25.7640 O.3       1 ADP700      0.0000 
     15 C2'        32.2000   54.3200   28.1580 C.3       1 ADP700      0.0000 
     16 O2'        33.0020   55.4500   28.3400 O.3       1 ADP700      0.0000 
     17 C1'        30.6910   54.5370   28.0150 C.3       1 ADP700      0.0000 
     18 N9         29.9350   54.6340   29.3480 N.pl3     1 ADP700      0.0000 
     19 C8         29.6390   53.5960   30.1530 C.2       1 ADP700      0.0000 
     20 N7         28.9670   54.0180   31.2380 N.2       1 ADP700      0.0000 
     21 C5         28.8260   55.2810   31.1570 C.ar      1 ADP700      0.0000 
     22 C6         28.2280   56.2460   31.9580 C.ar      1 ADP700      0.0000 
     23 N6         27.6260   55.8940   33.1060 N.pl3     1 ADP700      0.0000 
     24 N1         28.2540   57.5480   31.5730 N.ar      1 ADP700      0.0000 
     25 C2         28.8480   57.9630   30.4200 C.ar      1 ADP700      0.0000 
     26 N3         29.4350   57.0350   29.6200 N.ar      1 ADP700      0.0000 
     27 C4         29.4490   55.7080   29.9410 C.ar      1 ADP700      0.0000 
     28 H          32.7486   51.5698   27.8444 H         1 ADP700      0.0000 
     29 H          31.0371   51.2291   28.1526 H         1 ADP700      0.0000 
     30 H          31.1882   52.6034   25.6431 H         1 ADP700      0.0000 
     31 H          33.4128   53.0461   27.0225 H         1 ADP700      0.0000 
     32 H          32.3321   53.5606   28.9290 H         1 ADP700      0.0000 
     33 H          30.4981   55.3542   27.4008 H         1 ADP700      0.0000 
     34 H          29.8805   52.6630   29.9719 H         1 ADP700      0.0000 
     35 H          27.6274   54.9177   33.3222 H         1 ADP700      0.0000 
     36 H          27.2302   56.6397   33.6419 H         1 ADP700      0.0000 
     37 H          28.8514   58.9589   30.1614 H         1 ADP700      0.0000 
     38 H          32.7639   53.9933   24.9501 H         1 ADP700      0.0000 
     39 H          33.5779   55.4927   27.5236 H         1 ADP700      0.0000 
@<TRIPOS>BOND
     1    2    1 ar   
     2    3    1 ar   
     3    4    1 ar   
     4    8    1 1    
     5    6    5 ar   
     6    7    5 ar   
     7    8    5 1    
     8    9    5 1    
     9   10    9 1    
    10   11   10 1    
    11   28   10 1    
    12   29   10 1    
    13   12   11 1    
    14   13   11 1    
    15   30   11 1    
    16   17   12 1    
    17   14   13 1    
    18   15   13 1    
    19   31   13 1    
    20   38   14 1    
    21   16   15 1    
    22   17   15 1    
    23   32   15 1    
    24   39   16 1    
    25   18   17 1    
    26   33   17 1    
    27   19   18 1    
    28   27   18 1    
    29   20   19 2    
    30   34   19 1    
    31   21   20 1    
    32   22   21 ar   
    33   27   21 ar   
    34   23   22 1    
    35   24   22 ar   
    36   35   23 1    
    37   36   23 1    
    38   25   24 ar   
    39   26   25 ar   
    40   37   25 1    
    41   27   26 ar   
@<TRIPOS>SUBSTRUCTURE
     1 ADP700      1 GROUP   
@<TRIPOS>SET

