#    Name: 1rx0_FAD_3_INTS_M
#    Modification time : Tue Mar 25 01:24:33 2014

@<TRIPOS>MOLECULE
1rx0_FAD_3_INTS_M
  129     0    12     0     0
SMALL
NO_CHARGES


@<TRIPOS>ATOM
      1 N          10.3580  -52.6870   26.9475 N.am      2 SEC2        0.0000 
      2 N          10.7810  -51.3070   27.1810 N.am     10 SEL2        0.0000 
      3 N           9.9350  -54.0670   26.7140 N.am      6 SEP2        0.0000 
      4 N          10.8850  -52.1990   28.2175 N.am      2 SEC2        0.0000 
      5 N          10.9890  -53.0910   29.2540 N.am      6 SEP2        0.0000 
      6 NZ         10.1950  -48.4395   25.3520 N.4       3 LYC4        0.0000 
      7 NZ         10.9960  -48.9250   26.3300 N.4      11 LYL4        0.0000 
      8 NZ          9.3900  -48.4540   23.1400 N.4       7 LYP4        0.0000 
      9 N          10.1950  -48.4395   25.3520 N.am      2 SEC2        0.0000 
     10 N          10.9960  -48.9250   26.3300 N.am     10 SEL2        0.0000 
     11 N           9.3940  -47.9540   24.3740 N.am      6 SEP2        0.0000 
     12 CA         14.2760  -46.7005   30.7680 C.3       4 GLC5        0.0000 
     13 CA         12.9870  -48.3170   30.2920 C.3      12 GLL5        0.0000 
     14 CA         15.5650  -45.0840   31.2440 C.3       8 GLP5        0.0000 
     15 O          15.6070  -48.2835   31.4010 O.2       1 ALC1        0.0000 
     16 O          14.6220  -48.9200   31.9610 O.2       9 ALL1        0.0000 
     17 O          16.5920  -47.6470   30.8410 O.2       5 ALP1        0.0000 
     18 CA         13.8495  -52.1510   31.6860 C.3       4 GLC5        0.0000 
     19 CA         12.7340  -50.3810   31.4590 C.3      12 GLL5        0.0000 
     20 CA         14.9650  -53.9210   31.9130 C.3       8 GLP5        0.0000 
     21 N          13.4440  -52.4785   32.4560 N.am      2 SEC2        0.0000 
     22 N          13.2180  -51.2280   32.4690 N.am     10 SEL2        0.0000 
     23 N          13.6700  -53.7290   32.4430 N.am      6 SEP2        0.0000 
     24 O          14.2360  -51.1840   33.3275 O.2       1 ALC1        0.0000 
     25 O          13.2180  -51.2280   32.4690 O.2       9 ALL1        0.0000 
     26 O          15.2540  -51.1400   34.1860 O.2       5 ALP1        0.0000 
     27 CA         10.7200  -47.7370   32.6535 C.3       4 GLC5        0.0000 
     28 CA         11.6700  -49.4070   31.9220 C.3      12 GLL5        0.0000 
     29 CA          9.7700  -46.0670   33.3850 C.3       8 GLP5        0.0000 
     30 CA          7.4060  -52.3395   34.6370 C.3       4 GLC5        0.0000 
     31 CA          7.3050  -50.7010   33.6670 C.3      12 GLL5        0.0000 
     32 CA          7.5070  -53.9780   35.6070 C.3       8 GLP5        0.0000 
     33 CA          6.7595  -48.8090   34.5410 C.3       4 GLC5        0.0000 
     34 CA          6.2140  -46.9170   35.4150 C.3       8 GLP5        0.0000 
     35 N           6.9370  -50.3455   36.2535 N.am      2 SEC2        0.0000 
     36 N           7.5880  -50.2490   34.9340 N.am     10 SEL2        0.0000 
     37 N           6.2860  -50.4420   37.5730 N.am      6 SEP2        0.0000 
     38 CA         10.7760  -50.6815   35.3625 C.3       4 GLC5        0.0000 
     39 CA          8.8030  -49.6970   35.1870 C.3      12 GLL5        0.0000 
     40 CA         12.7490  -51.6660   35.5380 C.3       8 GLP5        0.0000 
     41 CA          8.1550  -51.8375   35.3970 C.3       4 GLC5        0.0000 
     42 CA          7.5085  -48.3070   35.3010 C.3       4 GLC5        0.0000 
     43 CA          9.4955  -47.8210   35.0155 C.3       4 GLC5        0.0000 
     44 CA         10.1880  -45.9450   34.8440 C.3       8 GLP5        0.0000 
     45 CA         11.1330  -50.8225   34.3050 C.3       4 GLC5        0.0000 
     46 CA          9.5170  -49.9790   33.0720 C.3      12 GLL5        0.0000 
     47 CA          9.6435  -48.0230   33.2285 C.3       4 GLC5        0.0000 
     48 N          14.5785  -57.8745   21.8490 N.am      2 SEC2        0.0000 
     49 N          15.8530  -58.4080   21.4990 N.am     10 SEL2        0.0000 
     50 N          13.3040  -57.3410   22.1990 N.am      6 SEP2        0.0000 
     51 N          13.4095  -60.6400   19.8695 N.am      2 SEC2        0.0000 
     52 N          14.4160  -59.9420   20.6800 N.am     10 SEL2        0.0000 
     53 N          12.4030  -61.3380   19.0590 N.am      6 SEP2        0.0000 
     54 N          13.1410  -59.3575   20.4820 N.am      2 SEC2        0.0000 
     55 N          11.8660  -58.7730   20.2840 N.am      6 SEP2        0.0000 
     56 N          13.8600  -58.6415   21.4395 N.am      2 SEC2        0.0000 
     57 O          16.3690  -61.3765   19.4420 O.2       1 ALC1        0.0000 
     58 O          16.6370  -60.3910   20.3910 O.2       9 ALL1        0.0000 
     59 O          16.1010  -62.3620   18.4930 O.2       5 ALP1        0.0000 
     60 N          19.6570  -60.1340   18.9445 N.am      2 SEC2        0.0000 
     61 N          18.8610  -60.7310   20.1360 N.am     10 SEL2        0.0000 
     62 N          20.4530  -59.5370   17.7530 N.am      6 SEP2        0.0000 
     63 N          20.4465  -60.0910   20.1695 N.am      2 SEC2        0.0000 
     64 N          22.0320  -59.4510   20.2030 N.am      6 SEP2        0.0000 
     65 N          20.8080  -58.8825   20.8090 N.am      2 SEC2        0.0000 
     66 N          19.5840  -58.3140   21.4150 N.am     10 SEL2        0.0000 
     67 CA         23.7665  -53.8880   21.1990 C.3       4 GLC5        0.0000 
     68 CA         22.9420  -54.9370   22.6370 C.3      12 GLL5        0.0000 
     69 CA         24.5910  -52.8390   19.7610 C.3       8 GLP5        0.0000 
     70 CA         23.7180  -56.5715   22.9930 C.3       4 GLC5        0.0000 
     71 CA         24.4940  -58.2060   23.3490 C.3       8 GLP5        0.0000 
     72 CA         23.7195  -53.2215   23.2905 C.3       4 GLC5        0.0000 
     73 CA         24.4970  -51.5060   23.9440 C.3       8 GLP5        0.0000 
     74 CA         19.5405  -52.7775   21.9720 C.3       4 GLC5        0.0000 
     75 CA         20.7210  -53.1230   23.6240 C.3      12 GLL5        0.0000 
     76 CA         18.3600  -52.4320   20.3200 C.3       8 GLP5        0.0000 
     77 CA         19.3995  -51.8850   24.1330 C.3       4 GLC5        0.0000 
     78 CA         18.0780  -50.6470   24.6420 C.3       8 GLP5        0.0000 
     79 CA         21.7620  -51.4340   24.1225 C.3       4 GLC5        0.0000 
     80 CA         22.8030  -49.7450   24.6210 C.3       8 GLP5        0.0000 
     81 CA         14.6480  -56.2785   21.9065 C.3       4 GLC5        0.0000 
     82 CA         16.3170  -55.8600   22.8510 C.3      12 GLL5        0.0000 
     83 CA         12.9790  -56.6970   20.9620 C.3       8 GLP5        0.0000 
     84 CA         17.0300  -55.3165   21.2530 C.3       4 GLC5        0.0000 
     85 CA         17.7430  -54.7730   19.6550 C.3       8 GLP5        0.0000 
     86 CA         17.7380  -55.8320   25.3885 C.3       4 GLC5        0.0000 
     87 CA         15.9890  -55.8860   24.3250 C.3      12 GLL5        0.0000 
     88 CA         19.4870  -55.7780   26.4520 C.3       8 GLP5        0.0000 
     89 O          14.2750  -57.2190   23.3905 O.2       1 ALC1        0.0000 
     90 O          15.2460  -57.0970   24.5820 O.2       9 ALL1        0.0000 
     91 O          13.3040  -57.3410   22.1990 O.2       5 ALP1        0.0000 
     92 CA         13.9905  -54.9140   22.9480 C.3       4 GLC5        0.0000 
     93 CA         15.1970  -54.6240   24.6970 C.3      12 GLL5        0.0000 
     94 CA         12.7840  -55.2040   21.1990 C.3       8 GLP5        0.0000 
     95 CA         12.2130  -53.7075   25.4370 C.3       4 GLC5        0.0000 
     96 CA         14.0460  -53.3160   26.5400 C.3      12 GLL5        0.0000 
     97 CA         10.3800  -54.0990   24.3340 C.3       8 GLP5        0.0000 
     98 N          15.8430  -50.6990   25.1120 N.am      2 SEC2        0.0000 
     99 N          14.5990  -51.1260   24.5880 N.am     10 SEL2        0.0000 
    100 N          17.0870  -50.2720   25.6360 N.am      6 SEP2        0.0000 
    101 NZ         11.0915  -50.3250   23.4935 N.4       3 LYC4        0.0000 
    102 NZ         12.1110  -51.0910   24.1120 N.4      11 LYL4        0.0000 
    103 N          11.0915  -50.3250   23.4935 N.am      2 SEC2        0.0000 
    104 N          12.1110  -51.0910   24.1120 N.am     10 SEL2        0.0000 
    105 N          10.0720  -49.5590   22.8750 N.am      6 SEP2        0.0000 
    106 CA         11.3800  -47.0423   28.9947 C.3       4 GLC5        0.0000 
    107 CA         12.7630  -48.4460   28.7750 C.3      12 GLL5        0.0000 
    108 CA          9.8850  -45.7030   28.4560 C.3       8 GLP5        0.0000 
    109 CA         14.8002  -48.9531   28.8819 C.3       4 GLC5        0.0000 
    110 CA         16.2660  -48.9960   27.5330 C.3       8 GLP5        0.0000 
    111 CA         12.4755  -50.7800   33.6142 C.3       4 GLC5        0.0000 
    112 CA         18.5182  -55.7135   20.9342 C.3       4 GLC5        0.0000 
    113 CA         18.7590  -56.2160   22.4570 C.3      12 GLL5        0.0000 
    114 CA         20.8795  -57.1725   23.9680 C.3       4 GLC5        0.0000 
    115 CA         19.8280  -57.0920   21.9700 C.3      12 GLL5        0.0000 
    116 CA         21.2600  -57.4700   25.9270 C.3       8 GLP5        0.0000 
    117 CA         22.4935  -54.5053   24.5805 C.3       4 GLC5        0.0000 
    118 CA         21.4820  -55.3740   22.5830 C.3      12 GLL5        0.0000 
    119 CA         22.7750  -53.8550   26.5510 C.3       8 GLP5        0.0000 
    120 CA         21.7360  -56.3127   24.2685 C.3       4 GLC5        0.0000 
    121 CA         18.7485  -54.7473   21.3390 C.3       4 GLC5        0.0000 
    122 CA         20.4200  -54.5070   23.0550 C.3      12 GLL5        0.0000 
    123 CA         21.6728  -53.8350   24.9452 C.3       4 GLC5        0.0000 
    124 CA         20.0287  -54.7965   24.8957 C.3       4 GLC5        0.0000 
    125 CA         19.2052  -55.6770   24.5880 C.3       4 GLC5        0.0000 
    126 CA         19.0880  -54.9360   22.9910 C.3      12 GLL5        0.0000 
    127 CA         16.1952  -53.2810   27.3618 C.3       4 GLC5        0.0000 
    128 CA         14.8110  -54.5740   26.1770 C.3      12 GLL5        0.0000 
    129 CA         17.9620  -52.6170   28.3650 C.3       8 GLP5        0.0000 
@<TRIPOS>BOND
@<TRIPOS>SUBSTRUCTURE
     1 ALC1       15 GROUP        1 X    ALC  0     ROOT ALC X 1
     2 SEC2        1 GROUP        1 X    SEC  0     **** SEC X 2
     3 LYC4        6 GROUP        1 X    LYC  0     **** LYC X 4
     4 GLC5       12 GROUP        1 X    GLC  0     **** GLC X 6
     5 ALP1       17 GROUP        1 Y    ALP  0     ROOT ALP Y 8
     6 SEP2        3 GROUP        1 Y    SEP  0     **** SEP Y 9
     7 LYP4        8 GROUP        1 Y    LYP  0     **** LYP Y 11
     8 GLP5       14 GROUP        1 Y    GLP  0     **** GLP Y 13
     9 ALL1       16 GROUP        1 Z    ALL  0     ROOT ALL Z 15
    10 SEL2        2 GROUP        1 Z    SEL  0     **** SEL Z 16
    11 LYL4        7 GROUP        1 Z    LYL  0     **** LYL Z 18
    12 GLL5       13 GROUP        1 Z    GLL  0     **** GLL Z 20
@<TRIPOS>SET

