#    Name: 1rx0_FAD_3_ligand
#    Modification time : Tue Mar 25 01:24:33 2014

@<TRIPOS>MOLECULE
1rx0_FAD_3_ligand
   84    89     1     0     0
SMALL
NO_CHARGES


@<TRIPOS>ATOM
      1 PA         11.5920  -50.0810   27.0460 P.3       1 FAD399      0.0000 
      2 O1A        10.7810  -51.3070   27.1810 O.co2     1 FAD399      0.0000 
      3 O2A        10.9960  -48.9250   26.3300 O.co2     1 FAD399      0.0000 
      4 O5B        11.9790  -49.6140   28.5110 O.3       1 FAD399      0.0000 
      5 C5B        12.7630  -48.4460   28.7750 C.3       1 FAD399      0.0000 
      6 C4B        12.9870  -48.3170   30.2920 C.3       1 FAD399      0.0000 
      7 O4B        11.6950  -48.3650   30.9650 O.3       1 FAD399      0.0000 
      8 C3B        13.7940  -49.4390   30.9280 C.3       1 FAD399      0.0000 
      9 O3B        14.6220  -48.9200   31.9610 O.3       1 FAD399      0.0000 
     10 C2B        12.7340  -50.3810   31.4590 C.3       1 FAD399      0.0000 
     11 O2B        13.2180  -51.2280   32.4690 O.3       1 FAD399      0.0000 
     12 C1B        11.6700  -49.4070   31.9220 C.3       1 FAD399      0.0000 
     13 N9A        10.3150  -49.9560   31.9460 N.pl3     1 FAD399      0.0000 
     14 C8A         9.5550  -50.5280   30.9520 C.2       1 FAD399      0.0000 
     15 N7A         8.3600  -50.9070   31.3310 N.2       1 FAD399      0.0000 
     16 C5A         8.3150  -50.5670   32.6680 C.ar      1 FAD399      0.0000 
     17 C6A         7.3050  -50.7010   33.6670 C.ar      1 FAD399      0.0000 
     18 N6A         6.0980  -51.2420   33.4290 N.pl3     1 FAD399      0.0000 
     19 N1A         7.5880  -50.2490   34.9340 N.ar      1 FAD399      0.0000 
     20 C2A         8.8030  -49.6970   35.1870 C.ar      1 FAD399      0.0000 
     21 N3A         9.8270  -49.5190   34.3270 N.ar      1 FAD399      0.0000 
     22 C4A         9.5170  -49.9790   33.0720 C.ar      1 FAD399      0.0000 
     23 N1         15.8530  -58.4080   21.4990 N.2       1 FAD399      0.0000 
     24 C2         15.5790  -59.5990   20.8510 C.2       1 FAD399      0.0000 
     25 O2         14.4160  -59.9420   20.6800 O.2       1 FAD399      0.0000 
     26 N3         16.6370  -60.3910   20.3910 N.am      1 FAD399      0.0000 
     27 C4         17.9810  -60.0200   20.5620 C.2       1 FAD399      0.0000 
     28 O4         18.8610  -60.7310   20.1360 O.2       1 FAD399      0.0000 
     29 C4X        18.2460  -58.7600   21.2470 C.2       1 FAD399      0.0000 
     30 N5         19.5840  -58.3140   21.4150 N.2       1 FAD399      0.0000 
     31 C5X        19.8280  -57.0920   21.9700 C.ar      1 FAD399      0.0000 
     32 C6         21.1700  -56.6580   22.0480 C.ar      1 FAD399      0.0000 
     33 C7         21.4820  -55.3740   22.5830 C.ar      1 FAD399      0.0000 
     34 C7M        22.9420  -54.9370   22.6370 C.3       1 FAD399      0.0000 
     35 C8         20.4200  -54.5070   23.0550 C.ar      1 FAD399      0.0000 
     36 C8M        20.7210  -53.1230   23.6240 C.3       1 FAD399      0.0000 
     37 C9         19.0880  -54.9360   22.9910 C.ar      1 FAD399      0.0000 
     38 C9A        18.7590  -56.2160   22.4570 C.ar      1 FAD399      0.0000 
     39 N10        17.4050  -56.7410   22.3470 N.pl3     1 FAD399      0.0000 
     40 C10        17.1420  -57.9700   21.7030 C.2       1 FAD399      0.0000 
     41 C1'        16.3170  -55.8600   22.8510 C.3       1 FAD399      0.0000 
     42 C2'        15.9890  -55.8860   24.3250 C.3       1 FAD399      0.0000 
     43 O2'        15.2460  -57.0970   24.5820 O.3       1 FAD399      0.0000 
     44 C3'        15.1970  -54.6240   24.6970 C.3       1 FAD399      0.0000 
     45 O3'        16.0770  -53.4920   24.4120 O.3       1 FAD399      0.0000 
     46 C4'        14.8110  -54.5740   26.1770 C.3       1 FAD399      0.0000 
     47 O4'        13.9070  -55.6860   26.4080 O.3       1 FAD399      0.0000 
     48 C5'        14.0460  -53.3160   26.5400 C.3       1 FAD399      0.0000 
     49 O5'        13.0600  -52.8290   25.5850 O.3       1 FAD399      0.0000 
     50 P          13.2100  -51.3200   25.0560 P.3       1 FAD399      0.0000 
     51 O1P        14.5990  -51.1260   24.5880 O.co2     1 FAD399      0.0000 
     52 O2P        12.1110  -51.0910   24.1120 O.co2     1 FAD399      0.0000 
     53 O3P        13.0000  -50.4050   26.3540 O.3       1 FAD399      0.0000 
     54 H          12.2644  -47.5346   28.4362 H         1 FAD399      0.0000 
     55 H          13.7454  -48.4979   28.2994 H         1 FAD399      0.0000 
     56 H          13.4628  -47.3791   30.5072 H         1 FAD399      0.0000 
     57 H          14.3315  -49.9327   30.1551 H         1 FAD399      0.0000 
     58 H          12.3302  -50.9058   30.6035 H         1 FAD399      0.0000 
     59 H          11.9505  -49.0271   32.8850 H         1 FAD399      0.0000 
     60 H           9.9194  -50.6318   30.0177 H         1 FAD399      0.0000 
     61 H           5.4771  -51.2939   34.2112 H         1 FAD399      0.0000 
     62 H           5.9285  -51.5443   32.4910 H         1 FAD399      0.0000 
     63 H           8.9680  -49.3562   36.2147 H         1 FAD399      0.0000 
     64 H          16.4231  -61.2860   19.9052 H         1 FAD399      0.0000 
     65 H          21.9249  -57.2631   21.7208 H         1 FAD399      0.0000 
     66 H          18.3325  -54.3296   23.3298 H         1 FAD399      0.0000 
     67 H          15.3696  -56.0845   22.2780 H         1 FAD399      0.0000 
     68 H          16.5480  -54.7922   22.5630 H         1 FAD399      0.0000 
     69 H          16.9181  -55.8809   24.8732 H         1 FAD399      0.0000 
     70 H          14.3226  -54.5705   24.0925 H         1 FAD399      0.0000 
     71 H          15.6752  -54.6638   26.7771 H         1 FAD399      0.0000 
     72 H          14.8027  -52.5083   26.7549 H         1 FAD399      0.0000 
     73 H          13.5561  -53.4929   27.5400 H         1 FAD399      0.0000 
     74 H          23.4954  -55.5584   23.1916 H         1 FAD399      0.0000 
     75 H          23.3553  -54.9095   21.7268 H         1 FAD399      0.0000 
     76 H          23.0420  -54.0238   23.0320 H         1 FAD399      0.0000 
     77 H          21.3157  -53.1726   24.4264 H         1 FAD399      0.0000 
     78 H          21.1796  -52.5381   22.9550 H         1 FAD399      0.0000 
     79 H          19.8874  -52.6480   23.9059 H         1 FAD399      0.0000 
     80 H          15.5414  -48.8966   31.5684 H         1 FAD399      0.0000 
     81 H          14.0403  -50.7755   32.8141 H         1 FAD399      0.0000 
     82 H          14.4578  -57.0520   23.9682 H         1 FAD399      0.0000 
     83 H          15.4931  -52.6841   24.4911 H         1 FAD399      0.0000 
     84 H          14.1907  -56.3896   25.7566 H         1 FAD399      0.0000 
@<TRIPOS>BOND
     1    2    1 ar   
     2    3    1 ar   
     3    4    1 1    
     4   53    1 1    
     5    5    4 1    
     6    6    5 1    
     7   54    5 1    
     8   55    5 1    
     9    7    6 1    
    10    8    6 1    
    11   56    6 1    
    12   12    7 1    
    13    9    8 1    
    14   10    8 1    
    15   57    8 1    
    16   80    9 1    
    17   11   10 1    
    18   12   10 1    
    19   58   10 1    
    20   81   11 1    
    21   13   12 1    
    22   59   12 1    
    23   14   13 1    
    24   22   13 1    
    25   15   14 2    
    26   60   14 1    
    27   16   15 1    
    28   17   16 ar   
    29   22   16 ar   
    30   18   17 1    
    31   19   17 ar   
    32   61   18 1    
    33   62   18 1    
    34   20   19 ar   
    35   21   20 ar   
    36   63   20 1    
    37   22   21 ar   
    38   24   23 1    
    39   40   23 2    
    40   25   24 2    
    41   26   24 am   
    42   27   26 am   
    43   64   26 1    
    44   28   27 2    
    45   29   27 1    
    46   30   29 2    
    47   40   29 1    
    48   31   30 1    
    49   32   31 ar   
    50   38   31 ar   
    51   33   32 ar   
    52   65   32 1    
    53   34   33 1    
    54   35   33 ar   
    55   74   34 1    
    56   75   34 1    
    57   76   34 1    
    58   36   35 1    
    59   37   35 ar   
    60   77   36 1    
    61   78   36 1    
    62   79   36 1    
    63   38   37 ar   
    64   66   37 1    
    65   39   38 1    
    66   40   39 1    
    67   41   39 1    
    68   42   41 1    
    69   67   41 1    
    70   68   41 1    
    71   43   42 1    
    72   44   42 1    
    73   69   42 1    
    74   82   43 1    
    75   45   44 1    
    76   46   44 1    
    77   70   44 1    
    78   83   45 1    
    79   47   46 1    
    80   48   46 1    
    81   71   46 1    
    82   84   47 1    
    83   49   48 1    
    84   72   48 1    
    85   73   48 1    
    86   50   49 1    
    87   51   50 ar   
    88   52   50 ar   
    89   53   50 1    
@<TRIPOS>SUBSTRUCTURE
     1 FAD399      1 GROUP   
@<TRIPOS>SET

