#    Name: 1pme_SB2_1_INTS_M
#    Modification time : Mon Mar 24 21:56:16 2014

@<TRIPOS>MOLECULE
1pme_SB2_1_INTS_M
   74     0     6     0     0
SMALL
NO_CHARGES


@<TRIPOS>ATOM
      1 CA         -6.0125   15.8165   46.4525 C.3       2 GLC5        0.0000 
      2 CA         -7.1180   16.0940   45.3480 C.3       6 GLL5        0.0000 
      3 CA         -4.9070   15.5390   47.5570 C.3       4 GLP5        0.0000 
      4 CA         -8.5375   16.3855   46.8505 C.3       2 GLC5        0.0000 
      5 CA         -9.9570   16.6770   48.3530 C.3       4 GLP5        0.0000 
      6 CA        -11.9820   16.1420   39.5330 C.3       2 GLC5        0.0000 
      7 CA        -10.5340   15.5730   41.1320 C.3       6 GLL5        0.0000 
      8 CA        -13.4300   16.7110   37.9340 C.3       4 GLP5        0.0000 
      9 CA         -9.8610   13.5660   45.4645 C.3       2 GLC5        0.0000 
     10 CA        -10.2160   14.9850   43.7800 C.3       6 GLL5        0.0000 
     11 CA         -9.5060   12.1470   47.1490 C.3       4 GLP5        0.0000 
     12 CA        -12.8625   13.4160   44.2365 C.3       2 GLC5        0.0000 
     13 CA        -11.2350   14.3990   43.0680 C.3       6 GLL5        0.0000 
     14 CA        -14.4900   12.4330   45.4050 C.3       4 GLP5        0.0000 
     15 N         -19.4505   10.8730   41.9635 N.am      1 SEC2        0.0000 
     16 N         -18.2890   11.3480   41.2940 N.am      5 SEL2        0.0000 
     17 N         -20.6120   10.3980   42.6330 N.am      3 SEP2        0.0000 
     18 CA        -15.9515    8.9800   41.6865 C.3       2 GLC5        0.0000 
     19 CA        -17.2620   10.6060   40.8780 C.3       6 GLL5        0.0000 
     20 CA        -14.6410    7.3540   42.4950 C.3       4 GLP5        0.0000 
     21 CA        -19.4260   10.2730   40.6845 C.3       2 GLC5        0.0000 
     22 CA        -21.5900    9.9400   40.4910 C.3       4 GLP5        0.0000 
     23 CA        -17.9050    9.5610   42.3440 C.3       2 GLC5        0.0000 
     24 CA        -18.5480    8.5160   43.8100 C.3       4 GLP5        0.0000 
     25 CA        -15.1725    9.0620   40.8105 C.3       2 GLC5        0.0000 
     26 CA        -15.9960   11.0900   40.5670 C.3       6 GLL5        0.0000 
     27 CA        -14.3490    7.0340   41.0540 C.3       4 GLP5        0.0000 
     28 CA        -19.9190   12.8950   40.9045 C.3       2 GLC5        0.0000 
     29 CA        -18.0460   12.6460   41.4050 C.3       6 GLL5        0.0000 
     30 CA        -21.7920   13.1440   40.4040 C.3       4 GLP5        0.0000 
     31 CA        -18.5065   11.2545   42.8975 C.3       2 GLC5        0.0000 
     32 CA        -18.9670    9.8630   44.3900 C.3       4 GLP5        0.0000 
     33 CA        -15.2195   13.9915   37.8460 C.3       2 GLC5        0.0000 
     34 CA        -14.6220   11.8850   37.3820 C.3       6 GLL5        0.0000 
     35 CA        -15.8170   16.0980   38.3100 C.3       4 GLP5        0.0000 
     36 CA        -16.7180   12.0280   37.7610 C.3       2 GLC5        0.0000 
     37 CA        -18.8140   12.1710   38.1400 C.3       4 GLP5        0.0000 
     38 CA        -15.9605   12.1045   35.1180 C.3       2 GLC5        0.0000 
     39 CA        -14.6710   10.9760   36.3520 C.3       6 GLL5        0.0000 
     40 CA        -17.2500   13.2330   33.8840 C.3       4 GLP5        0.0000 
     41 CA        -15.6955    9.9250   34.6645 C.3       2 GLC5        0.0000 
     42 CA        -16.7200    8.8740   32.9770 C.3       4 GLP5        0.0000 
     43 CA        -12.5090    8.3220   38.3015 C.3       2 GLC5        0.0000 
     44 CA        -12.6080   10.0390   37.1000 C.3       6 GLL5        0.0000 
     45 CA        -12.4100    6.6050   39.5030 C.3       4 GLP5        0.0000 
     46 CA        -13.1645   12.9810   36.6340 C.3       2 GLC5        0.0000 
     47 CA        -13.5780   11.8760   38.2880 C.3       6 GLL5        0.0000 
     48 CA        -12.7510   14.0860   34.9800 C.3       4 GLP5        0.0000 
     49 CA        -12.8700    7.1555   34.9565 C.3       2 GLC5        0.0000 
     50 CA        -13.8960    9.0150   35.4600 C.3       6 GLL5        0.0000 
     51 CA        -11.8440    5.2960   34.4530 C.3       4 GLP5        0.0000 
     52 CA        -15.3080    8.9445   34.2185 C.3       2 GLC5        0.0000 
     53 CA        -10.9926   12.8670   42.9672 C.3       2 GLC5        0.0000 
     54 CA        -10.9140   11.0460   43.3570 C.3       4 GLP5        0.0000 
     55 CA        -17.7215   11.5095   39.4312 C.3       2 GLC5        0.0000 
     56 CA        -16.5170    9.6285   39.3513 C.3       2 GLC5        0.0000 
     57 CA        -16.4050    8.4090   37.9800 C.3       4 GLP5        0.0000 
     58 CA        -15.6090   10.7990   42.1677 C.3       2 GLC5        0.0000 
     59 CA        -14.5890   10.7500   43.6130 C.3       4 GLP5        0.0000 
     60 CA        -16.0493   14.4685   39.6090 C.3       2 GLC5        0.0000 
     61 CA        -15.7510   12.4420   40.6940 C.3       6 GLL5        0.0000 
     62 CA        -17.9889   12.4567   39.6483 C.3       2 GLC5        0.0000 
     63 CA        -16.8120   13.2360   41.1220 C.3       6 GLL5        0.0000 
     64 CA        -14.8933   14.4982   39.1268 C.3       2 GLC5        0.0000 
     65 CA        -14.4120   13.0090   40.4400 C.3       6 GLL5        0.0000 
     66 CA        -14.9679   11.8370   42.1435 C.3       2 GLC5        0.0000 
     67 CA        -13.4556   12.4134   35.7655 C.3       2 GLC5        0.0000 
     68 CA        -13.6740   10.0510   36.2350 C.3       6 GLL5        0.0000 
     69 CA        -11.2997   11.7513   36.5385 C.3       2 GLC5        0.0000 
     70 CA        -10.0090   13.0090   35.4680 C.3       4 GLP5        0.0000 
     71 CA        -15.2586   10.0311   37.7788 C.3       2 GLC5        0.0000 
     72 CA        -12.9276    9.7693   34.4352 C.3       2 GLC5        0.0000 
     73 CA        -12.2120    9.8930   32.7920 C.3       4 GLP5        0.0000 
     74 CA        -14.9618    8.9695   37.0219 C.3       2 GLC5        0.0000 
@<TRIPOS>BOND
@<TRIPOS>SUBSTRUCTURE
     1 SEC2       15 GROUP        1 X    SEC  0     ROOT SEC X 2
     2 GLC5        1 GROUP        1 X    GLC  0     **** GLC X 6
     3 SEP2       17 GROUP        1 Y    SEP  0     ROOT SEP Y 9
     4 GLP5        3 GROUP        1 Y    GLP  0     **** GLP Y 13
     5 SEL2       16 GROUP        1 Z    SEL  0     ROOT SEL Z 16
     6 GLL5        2 GROUP        1 Z    GLL  0     **** GLL Z 20
@<TRIPOS>SET

