#    Name: 1pme_SB2_1_ligand
#    Modification time : Mon Mar 24 21:56:16 2014

@<TRIPOS>MOLECULE
1pme_SB2_1_ligand
   43    46     1     0     0
SMALL
NO_CHARGES


@<TRIPOS>ATOM
      1 O2         -8.3020   18.2160   43.9820 O.2       1 SB21001     0.0000 
      2 C1         -7.1180   16.0940   45.3480 C.3       1 SB21001     0.0000 
      3 S1         -8.2360   16.7430   44.1980 S.2       1 SB21001     0.0000 
      4 CA1       -10.5340   15.5730   41.1320 C.ar      1 SB21001     0.0000 
      5 CA2        -9.5200   16.1780   41.8690 C.ar      1 SB21001     0.0000 
      6 CA3        -9.3690   15.9000   43.2120 C.ar      1 SB21001     0.0000 
      7 CA4       -10.2160   14.9850   43.7800 C.ar      1 SB21001     0.0000 
      8 CA5       -11.2350   14.3990   43.0680 C.ar      1 SB21001     0.0000 
      9 CA6       -11.4170   14.6840   41.7310 C.ar      1 SB21001     0.0000 
     10 NB1       -18.2890   11.3480   41.2940 N.ar      1 SB21001     0.0000 
     11 CB2       -17.2620   10.6060   40.8780 C.ar      1 SB21001     0.0000 
     12 CB3       -15.9960   11.0900   40.5670 C.ar      1 SB21001     0.0000 
     13 CB4       -15.7510   12.4420   40.6940 C.ar      1 SB21001     0.0000 
     14 CB5       -16.8120   13.2360   41.1220 C.ar      1 SB21001     0.0000 
     15 CB6       -18.0460   12.6460   41.4050 C.ar      1 SB21001     0.0000 
     16 NC1       -13.7810   13.9180   41.3640 N.pl3     1 SB21001     0.0000 
     17 CC2       -12.5420   14.0610   40.9510 C.2       1 SB21001     0.0000 
     18 NC3       -12.3530   13.5720   39.7460 N.2       1 SB21001     0.0000 
     19 CC4       -13.5270   12.7880   39.4470 C.2       1 SB21001     0.0000 
     20 CC5       -14.4120   13.0090   40.4400 C.2       1 SB21001     0.0000 
     21 CD1       -14.6220   11.8850   37.3820 C.ar      1 SB21001     0.0000 
     22 CD2       -14.6710   10.9760   36.3520 C.ar      1 SB21001     0.0000 
     23 CD3       -13.6740   10.0510   36.2350 C.ar      1 SB21001     0.0000 
     24 CD4       -12.6080   10.0390   37.1000 C.ar      1 SB21001     0.0000 
     25 CD5       -12.5730   10.9480   38.1180 C.ar      1 SB21001     0.0000 
     26 CD6       -13.5780   11.8760   38.2880 C.ar      1 SB21001     0.0000 
     27 FD3       -13.8960    9.0150   35.4600 F         1 SB21001     0.0000 
     28 H         -10.6301   15.7892   40.1250 H         1 SB21001     0.0000 
     29 H          -8.8782   16.8396   41.4019 H         1 SB21001     0.0000 
     30 H         -10.0846   14.7234   44.7858 H         1 SB21001     0.0000 
     31 H         -11.8768   13.7333   43.5405 H         1 SB21001     0.0000 
     32 H         -17.4011    9.5462   40.7670 H         1 SB21001     0.0000 
     33 H         -15.2634   10.4518   40.2504 H         1 SB21001     0.0000 
     34 H         -16.6900   14.2474   41.2293 H         1 SB21001     0.0000 
     35 H         -18.8201   13.3042   41.7276 H         1 SB21001     0.0000 
     36 H         -14.2355   14.2954   42.0987 H         1 SB21001     0.0000 
     37 H         -15.3782   12.5897   37.4838 H         1 SB21001     0.0000 
     38 H         -15.4505   10.9962   35.6806 H         1 SB21001     0.0000 
     39 H         -11.8498    9.3549   36.9801 H         1 SB21001     0.0000 
     40 H         -11.7697   10.9449   38.7856 H         1 SB21001     0.0000 
     41 H          -6.1722   16.3204   45.1151 H         1 SB21001     0.0000 
     42 H          -7.2856   16.4466   46.2687 H         1 SB21001     0.0000 
     43 H          -7.1762   15.0971   45.4008 H         1 SB21001     0.0000 
@<TRIPOS>BOND
     1    3    1 2    
     2    3    2 1    
     3   41    2 1    
     4   42    2 1    
     5   43    2 1    
     6    6    3 1    
     7    5    4 ar   
     8    9    4 ar   
     9   28    4 1    
    10    6    5 ar   
    11   29    5 1    
    12    7    6 ar   
    13    8    7 ar   
    14   30    7 1    
    15    9    8 ar   
    16   31    8 1    
    17   17    9 1    
    18   11   10 ar   
    19   15   10 ar   
    20   12   11 ar   
    21   32   11 1    
    22   13   12 ar   
    23   33   12 1    
    24   14   13 ar   
    25   20   13 1    
    26   15   14 ar   
    27   34   14 1    
    28   35   15 1    
    29   17   16 1    
    30   20   16 1    
    31   36   16 1    
    32   18   17 2    
    33   19   18 1    
    34   20   19 2    
    35   26   19 1    
    36   22   21 ar   
    37   26   21 ar   
    38   37   21 1    
    39   23   22 ar   
    40   38   22 1    
    41   24   23 ar   
    42   27   23 1    
    43   25   24 ar   
    44   39   24 1    
    45   26   25 ar   
    46   40   25 1    
@<TRIPOS>SUBSTRUCTURE
     1 SB21001     1 GROUP   
@<TRIPOS>SET

