#    Name: 3cox_FAD_1_INTS_M
#    Modification time : Mon Mar 24 22:06:52 2014

@<TRIPOS>MOLECULE
3cox_FAD_1_INTS_M
  131     0     9     0     0
SMALL
NO_CHARGES


@<TRIPOS>ATOM
      1 N         -15.3370    8.6835   19.2030 N.am      2 SEC2        0.0000 
      2 N         -16.6410    8.5420   19.7840 N.am      8 SEL2        0.0000 
      3 N         -14.0330    8.8250   18.6220 N.am      5 SEP2        0.0000 
      4 CA        -17.8605    6.6945   17.9610 C.3       3 GLC5        0.0000 
      5 CA        -18.8840    8.2660   16.7410 C.3       9 GLL5        0.0000 
      6 CA        -16.8370    5.1230   19.1810 C.3       6 GLP5        0.0000 
      7 CA        -20.5115    9.3035   17.5720 C.3       3 GLC5        0.0000 
      8 CA        -22.1390   10.3410   18.4030 C.3       6 GLP5        0.0000 
      9 CA        -19.4480    5.7165   14.9500 C.3       3 GLC5        0.0000 
     10 CA        -18.4440    7.3430   15.5560 C.3       9 GLL5        0.0000 
     11 CA        -20.4520    4.0900   14.3440 C.3       6 GLP5        0.0000 
     12 O         -16.6230    5.8285   13.8205 O.2       1 ALC1        0.0000 
     13 O         -16.2700    6.9130   14.6210 O.2       7 ALL1        0.0000 
     14 O         -16.9760    4.7440   13.0200 O.2       4 ALP1        0.0000 
     15 O         -16.2175    6.5240   13.0795 O.2       1 ALC1        0.0000 
     16 O         -16.1650    6.1350   11.5380 O.2       4 ALP1        0.0000 
     17 N         -17.5280   10.0875   12.5665 N.am      2 SEC2        0.0000 
     18 N         -17.0020    8.4740   12.5310 N.am      8 SEL2        0.0000 
     19 N         -18.0540   11.7010   12.6020 N.am      5 SEP2        0.0000 
     20 O         -16.5835    7.3045   12.0345 O.2       1 ALC1        0.0000 
     21 O         -17.0020    8.4740   12.5310 O.2       7 ALL1        0.0000 
     22 CA        -19.7160    5.7840   13.8150 C.3       3 GLC5        0.0000 
     23 CA        -18.9800    7.4780   13.2860 C.3       9 GLL5        0.0000 
     24 CA        -20.8920    7.6930   14.4105 C.3       3 GLC5        0.0000 
     25 CA        -22.8040    7.9080   15.5350 C.3       6 GLP5        0.0000 
     26 CA        -23.5025    6.3425   11.0095 C.3       3 GLC5        0.0000 
     27 CA        -22.5230    7.8790    9.9370 C.3       9 GLL5        0.0000 
     28 CA        -24.4820    4.8060   12.0820 C.3       6 GLP5        0.0000 
     29 CA        -22.0690    7.3105    7.8340 C.3       3 GLC5        0.0000 
     30 CA        -21.6150    6.7420    5.7310 C.3       6 GLP5        0.0000 
     31 CA        -24.0865    6.5825    9.0580 C.3       3 GLC5        0.0000 
     32 CA        -25.6500    5.2860    8.1790 C.3       6 GLP5        0.0000 
     33 O         -24.5745    8.4205    8.3750 O.2       1 ALC1        0.0000 
     34 O         -23.5990    8.6040    9.5130 O.2       7 ALL1        0.0000 
     35 O         -25.5500    8.2370    7.2370 O.2       4 ALP1        0.0000 
     36 N         -23.0275    6.3950    8.1375 N.am      2 SEC2        0.0000 
     37 N         -22.3250    6.6520    9.4560 N.am      8 SEL2        0.0000 
     38 N         -23.7300    6.1380    6.8190 N.am      5 SEP2        0.0000 
     39 CA        -22.9500    5.3285   11.0510 C.3       3 GLC5        0.0000 
     40 CA        -21.4180    5.8510   10.0200 C.3       9 GLL5        0.0000 
     41 CA        -19.7630    4.5150   10.1225 C.3       3 GLC5        0.0000 
     42 CA        -18.1080    3.1790   10.2250 C.3       6 GLP5        0.0000 
     43 CA        -19.9590    6.6825    9.0205 C.3       3 GLC5        0.0000 
     44 CA        -18.5000    7.5140    8.0210 C.3       6 GLP5        0.0000 
     45 CA        -21.5165    6.2965    7.8755 C.3       3 GLC5        0.0000 
     46 CA        -23.2265    4.8745    9.1910 C.3       3 GLC5        0.0000 
     47 CA        -25.0350    3.8980    8.3620 C.3       6 GLP5        0.0000 
     48 N         -19.2570    5.7470   10.0045 N.am      2 SEC2        0.0000 
     49 N         -20.4940    6.1720   10.9510 N.am      8 SEL2        0.0000 
     50 N         -18.0200    5.3220    9.0580 N.am      5 SEP2        0.0000 
     51 CA        -20.5910    5.7630   12.8840 C.3       3 GLC5        0.0000 
     52 CA        -20.7300    7.4360   11.4240 C.3       9 GLL5        0.0000 
     53 CA        -19.4165    7.9210   10.2985 C.3       3 GLC5        0.0000 
     54 CA        -18.1030    8.4060    9.1730 C.3       6 GLP5        0.0000 
     55 N         -14.9560   11.0980   28.3900 N.am      2 SEC2        0.0000 
     56 N         -13.6980   11.7370   28.4440 N.am      8 SEL2        0.0000 
     57 N         -16.2140   10.4590   28.3360 N.am      5 SEP2        0.0000 
     58 N         -13.8930   10.9335   29.6740 N.am      2 SEC2        0.0000 
     59 N         -14.0880   10.1300   30.9040 N.am      5 SEP2        0.0000 
     60 O         -11.3675   11.5160   28.9655 O.2       1 ALC1        0.0000 
     61 O         -11.6010   12.3220   27.8380 O.2       7 ALL1        0.0000 
     62 O         -11.1340   10.7100   30.0930 O.2       4 ALP1        0.0000 
     63 N          -8.9615   11.9820   28.1645 N.am      2 SEC2        0.0000 
     64 N          -9.5280   13.0800   27.3240 N.am      8 SEL2        0.0000 
     65 N          -8.3950   10.8840   29.0050 N.am      5 SEP2        0.0000 
     66 N          -9.1445   13.5945   24.8550 N.am      2 SEC2        0.0000 
     67 N         -10.5270   14.4100   25.0750 N.am      8 SEL2        0.0000 
     68 N          -7.7620   12.7790   24.6350 N.am      5 SEP2        0.0000 
     69 CA         -8.1355   16.6725   19.6805 C.3       3 GLC5        0.0000 
     70 CA         -9.5700   16.4940   20.7060 C.3       9 GLL5        0.0000 
     71 CA         -6.7010   16.8510   18.6550 C.3       6 GLP5        0.0000 
     72 CA         -9.5720   18.2930   21.2300 C.3       3 GLC5        0.0000 
     73 CA         -9.5740   20.0920   21.7540 C.3       6 GLP5        0.0000 
     74 CA        -11.2655   15.8155   17.9910 C.3       3 GLC5        0.0000 
     75 CA        -12.3970   15.6500   19.8810 C.3       9 GLL5        0.0000 
     76 CA        -10.1340   15.9810   16.1010 C.3       6 GLP5        0.0000 
     77 CA        -12.7160   17.1820   18.8230 C.3       3 GLC5        0.0000 
     78 CA        -13.0350   18.7140   17.7650 C.3       6 GLP5        0.0000 
     79 CA        -13.6660   15.1460   18.1745 C.3       3 GLC5        0.0000 
     80 CA        -14.9350   14.6420   16.4680 C.3       6 GLP5        0.0000 
     81 CA        -12.1335   17.6055   20.6230 C.3       3 GLC5        0.0000 
     82 CA        -11.8700   19.5610   21.3650 C.3       6 GLP5        0.0000 
     83 CA        -13.5900   15.5625   24.6335 C.3       3 GLC5        0.0000 
     84 CA        -12.3520   14.4750   23.4920 C.3       9 GLL5        0.0000 
     85 CA        -14.8280   16.6500   25.7750 C.3       6 GLP5        0.0000 
     86 CA        -14.6995   15.0685   24.9075 C.3       3 GLC5        0.0000 
     87 CA        -14.5710   13.4870   24.0400 C.3       9 GLL5        0.0000 
     88 CA        -15.8745   13.6570   25.6720 C.3       3 GLC5        0.0000 
     89 CA        -17.1780   13.8270   27.3040 C.3       6 GLP5        0.0000 
     90 CA        -14.9680   10.4085   25.2465 C.3       3 GLC5        0.0000 
     91 CA        -14.7630   11.9810   23.7350 C.3       9 GLL5        0.0000 
     92 CA        -15.1730    8.8360   26.7580 C.3       6 GLP5        0.0000 
     93 N         -12.6790   10.7245   23.2385 N.am      2 SEC2        0.0000 
     94 N         -13.8500   11.6420   22.7010 N.am      8 SEL2        0.0000 
     95 N         -11.5080    9.8070   23.7760 N.am      5 SEP2        0.0000 
     96 N         -19.8200    5.5910   21.9210 N.am      2 SEC2        0.0000 
     97 N         -19.6410    6.9590   21.2720 N.am      8 SEL2        0.0000 
     98 N         -19.9990    4.2230   22.5700 N.am      5 SEP2        0.0000 
     99 N         -22.0450    9.2875   22.3480 N.am      2 SEC2        0.0000 
    100 N         -20.7580    9.2270   21.6310 N.am      8 SEL2        0.0000 
    101 N         -23.3320    9.3480   23.0650 N.am      5 SEP2        0.0000 
    102 CA        -20.7340    7.8563   15.8417 C.3       3 GLC5        0.0000 
    103 CA        -16.0660    7.3812   16.0590 C.3       3 GLC5        0.0000 
    104 CA        -14.2880    7.1140   16.9240 C.3       6 GLP5        0.0000 
    105 CA        -18.2740    8.1970   11.3027 C.3       3 GLC5        0.0000 
    106 CA        -17.9100    8.4980   13.5790 C.3       9 GLL5        0.0000 
    107 CA        -20.6253    8.9997    9.8573 C.3       3 GLC5        0.0000 
    108 CA        -21.7000    8.2960   11.0060 C.3       9 GLL5        0.0000 
    109 CA        -19.1390    9.9120    9.2430 C.3       6 GLP5        0.0000 
    110 CA        -22.4415    8.0800   12.7815 C.3       3 GLC5        0.0000 
    111 CA        -23.6680    8.2940   14.3480 C.3       6 GLP5        0.0000 
    112 CA        -10.9478   13.2175   23.4610 C.3       3 GLC5        0.0000 
    113 CA        -10.2200   11.7710   23.2330 C.3       6 GLP5        0.0000 
    114 CA        -11.9028   16.7563   23.2690 C.3       3 GLC5        0.0000 
    115 CA        -10.9990   14.8530   23.8860 C.3       9 GLL5        0.0000 
    116 CA        -13.2490   18.3230   23.0990 C.3       6 GLP5        0.0000 
    117 CA         -9.6005   13.9017   22.4535 C.3       3 GLC5        0.0000 
    118 CA        -10.1140   15.5260   22.9920 C.3       9 GLL5        0.0000 
    119 CA         -8.8750   12.1410   22.5670 C.3       6 GLP5        0.0000 
    120 CA        -12.2287   16.9585   22.2912 C.3       3 GLC5        0.0000 
    121 CA        -10.5380   15.7990   21.6880 C.3       9 GLL5        0.0000 
    122 CA        -11.2075   14.0258   19.4750 C.3       3 GLC5        0.0000 
    123 CA        -11.8790   15.3890   21.2790 C.3       9 GLL5        0.0000 
    124 CA        -10.2770   12.5320   18.3700 C.3       6 GLP5        0.0000 
    125 CA        -11.2703   13.4180   22.4760 C.3       3 GLC5        0.0000 
    126 CA        -12.9030   16.4655   22.9622 C.3       3 GLC5        0.0000 
    127 CA        -16.4275    8.6468   22.9765 C.3       3 GLC5        0.0000 
    128 CA        -16.5510   10.3910   22.7190 C.3       9 GLL5        0.0000 
    129 CA        -15.5620    6.9540   23.4540 C.3       6 GLP5        0.0000 
    130 CA        -18.6805   10.2973   23.9585 C.3       3 GLC5        0.0000 
    131 CA        -20.0680   10.2550   25.4180 C.3       6 GLP5        0.0000 
@<TRIPOS>BOND
@<TRIPOS>SUBSTRUCTURE
     1 ALC1       12 GROUP        1 X    ALC  0     ROOT ALC X 1
     2 SEC2        1 GROUP        1 X    SEC  0     **** SEC X 2
     3 GLC5        4 GROUP        1 X    GLC  0     **** GLC X 6
     4 ALP1       14 GROUP        1 Y    ALP  0     ROOT ALP Y 8
     5 SEP2        3 GROUP        1 Y    SEP  0     **** SEP Y 9
     6 GLP5        6 GROUP        1 Y    GLP  0     **** GLP Y 13
     7 ALL1       13 GROUP        1 Z    ALL  0     ROOT ALL Z 15
     8 SEL2        2 GROUP        1 Z    SEL  0     **** SEL Z 16
     9 GLL5        5 GROUP        1 Z    GLL  0     **** GLL Z 20
@<TRIPOS>SET

