#    Name: 3cox_FAD_1_ligand
#    Modification time : Mon Mar 24 22:06:52 2014

@<TRIPOS>MOLECULE
3cox_FAD_1_ligand
   84    89     1     0     0
SMALL
NO_CHARGES


@<TRIPOS>ATOM
      1 PA        -17.7490    9.0690   18.9740 P.3       1 FAD510      0.0000 
      2 O1A       -16.6410    8.5420   19.7840 O.co2     1 FAD510      0.0000 
      3 O2A       -17.7160   10.4630   18.4790 O.co2     1 FAD510      0.0000 
      4 O5B       -17.9670    8.0010   17.8030 O.3       1 FAD510      0.0000 
      5 C5B       -18.8840    8.2660   16.7410 C.3       1 FAD510      0.0000 
      6 C4B       -18.4440    7.3430   15.5560 C.3       1 FAD510      0.0000 
      7 O4B       -19.4990    7.2060   14.5820 O.3       1 FAD510      0.0000 
      8 C3B       -17.2440    7.9540   14.8320 C.3       1 FAD510      0.0000 
      9 O3B       -16.2700    6.9130   14.6210 O.3       1 FAD510      0.0000 
     10 C2B       -17.9100    8.4980   13.5790 C.3       1 FAD510      0.0000 
     11 O2B       -17.0020    8.4740   12.5310 O.3       1 FAD510      0.0000 
     12 C1B       -18.9800    7.4780   13.2860 C.3       1 FAD510      0.0000 
     13 N9A       -20.0530    8.0700   12.4370 N.pl3     1 FAD510      0.0000 
     14 C8A       -20.7030    9.2490   12.6460 C.2       1 FAD510      0.0000 
     15 N7A       -21.6990    9.4430   11.8040 N.2       1 FAD510      0.0000 
     16 C5A       -21.7000    8.2960   11.0060 C.ar      1 FAD510      0.0000 
     17 C6A       -22.5230    7.8790    9.9370 C.ar      1 FAD510      0.0000 
     18 N6A       -23.5990    8.6040    9.5130 N.pl3     1 FAD510      0.0000 
     19 N1A       -22.3250    6.6520    9.4560 N.ar      1 FAD510      0.0000 
     20 C2A       -21.4180    5.8510   10.0200 C.ar      1 FAD510      0.0000 
     21 N3A       -20.4940    6.1720   10.9510 N.ar      1 FAD510      0.0000 
     22 C4A       -20.7300    7.4360   11.4240 C.ar      1 FAD510      0.0000 
     23 N1        -13.4860   12.7050   26.4380 N.2       1 FAD510      0.0000 
     24 C2        -12.9640   12.1970   27.5770 C.2       1 FAD510      0.0000 
     25 O2        -13.6980   11.7370   28.4440 O.2       1 FAD510      0.0000 
     26 N3        -11.6010   12.3220   27.8380 N.am      1 FAD510      0.0000 
     27 C4        -10.7170   13.0390   27.0790 C.2       1 FAD510      0.0000 
     28 O4         -9.5280   13.0800   27.3240 O.2       1 FAD510      0.0000 
     29 C4X       -11.2920   13.6630   25.9000 C.2       1 FAD510      0.0000 
     30 N5        -10.5270   14.4100   25.0750 N.2       1 FAD510      0.0000 
     31 C5X       -10.9990   14.8530   23.8860 C.ar      1 FAD510      0.0000 
     32 C6        -10.1140   15.5260   22.9920 C.ar      1 FAD510      0.0000 
     33 C7        -10.5380   15.7990   21.6880 C.ar      1 FAD510      0.0000 
     34 C7M        -9.5700   16.4940   20.7060 C.3       1 FAD510      0.0000 
     35 C8        -11.8790   15.3890   21.2790 C.ar      1 FAD510      0.0000 
     36 C8M       -12.3970   15.6500   19.8810 C.3       1 FAD510      0.0000 
     37 C9        -12.7620   14.7410   22.1590 C.ar      1 FAD510      0.0000 
     38 C9A       -12.3520   14.4750   23.4920 C.ar      1 FAD510      0.0000 
     39 N10       -13.1470   13.7890   24.3680 N.pl3     1 FAD510      0.0000 
     40 C10       -12.6840   13.3930   25.5910 C.2       1 FAD510      0.0000 
     41 C1'       -14.5710   13.4870   24.0400 C.3       1 FAD510      0.0000 
     42 C2'       -14.7630   11.9810   23.7350 C.3       1 FAD510      0.0000 
     43 O2'       -13.8500   11.6420   22.7010 O.3       1 FAD510      0.0000 
     44 C3'       -16.1880   11.8340   23.2210 C.3       1 FAD510      0.0000 
     45 O3'       -17.0440   12.1970   24.2910 O.3       1 FAD510      0.0000 
     46 C4'       -16.5510   10.3910   22.7190 C.3       1 FAD510      0.0000 
     47 O4'       -15.6160    9.8520   21.8090 O.3       1 FAD510      0.0000 
     48 C5'       -18.0350   10.2880   22.2790 C.3       1 FAD510      0.0000 
     49 O5'       -18.4010    8.8870   22.2020 O.3       1 FAD510      0.0000 
     50 P         -19.5820    8.4260   21.2620 P.3       1 FAD510      0.0000 
     51 O1P       -19.6410    6.9590   21.2720 O.co2     1 FAD510      0.0000 
     52 O2P       -20.7580    9.2270   21.6310 O.co2     1 FAD510      0.0000 
     53 O3P       -19.1180    8.9410   19.7600 O.3       1 FAD510      0.0000 
     54 H         -18.8311    9.2824   16.3887 H         1 FAD510      0.0000 
     55 H         -19.8979    8.0016   16.9902 H         1 FAD510      0.0000 
     56 H         -18.1522    6.3961   15.9554 H         1 FAD510      0.0000 
     57 H         -16.9010    8.7582   15.4233 H         1 FAD510      0.0000 
     58 H         -18.3452    9.4147   13.7834 H         1 FAD510      0.0000 
     59 H         -18.5502    6.6339   12.8482 H         1 FAD510      0.0000 
     60 H         -20.4351    9.8843   13.3680 H         1 FAD510      0.0000 
     61 H         -24.1397    8.1988    8.7758 H         1 FAD510      0.0000 
     62 H         -23.7520    9.4766    9.9769 H         1 FAD510      0.0000 
     63 H         -21.4188    4.8032    9.6908 H         1 FAD510      0.0000 
     64 H         -11.2270   11.8149   28.6999 H         1 FAD510      0.0000 
     65 H          -9.1892   15.7984   23.3115 H         1 FAD510      0.0000 
     66 H         -13.6904   14.4616   21.8495 H         1 FAD510      0.0000 
     67 H         -14.8888   14.0550   23.1639 H         1 FAD510      0.0000 
     68 H         -15.2190   13.7499   24.8780 H         1 FAD510      0.0000 
     69 H         -14.6370   11.4402   24.6143 H         1 FAD510      0.0000 
     70 H         -16.3210   12.5151   22.3861 H         1 FAD510      0.0000 
     71 H         -16.5088    9.7621   23.6888 H         1 FAD510      0.0000 
     72 H         -18.1278   10.7816   21.3153 H         1 FAD510      0.0000 
     73 H         -18.6339   10.8205   23.0130 H         1 FAD510      0.0000 
     74 H          -9.2866   17.3937   21.0381 H         1 FAD510      0.0000 
     75 H          -8.7375   15.9585   20.5636 H         1 FAD510      0.0000 
     76 H          -9.9874   16.6313   19.8077 H         1 FAD510      0.0000 
     77 H         -12.4110   16.6266   19.6664 H         1 FAD510      0.0000 
     78 H         -11.8315   15.2054   19.1864 H         1 FAD510      0.0000 
     79 H         -13.3298   15.3101   19.7611 H         1 FAD510      0.0000 
     80 H         -16.7241    6.2508   14.0250 H         1 FAD510      0.0000 
     81 H         -16.8753    7.5046   12.3207 H         1 FAD510      0.0000 
     82 H         -14.2892   10.8944   22.2029 H         1 FAD510      0.0000 
     83 H         -17.8302   12.6357   23.8559 H         1 FAD510      0.0000 
     84 H         -16.1683    9.4169   21.0979 H         1 FAD510      0.0000 
@<TRIPOS>BOND
     1    2    1 ar   
     2    3    1 ar   
     3    4    1 1    
     4   53    1 1    
     5    5    4 1    
     6    6    5 1    
     7   54    5 1    
     8   55    5 1    
     9    7    6 1    
    10    8    6 1    
    11   56    6 1    
    12   12    7 1    
    13    9    8 1    
    14   10    8 1    
    15   57    8 1    
    16   80    9 1    
    17   11   10 1    
    18   12   10 1    
    19   58   10 1    
    20   81   11 1    
    21   13   12 1    
    22   59   12 1    
    23   14   13 1    
    24   22   13 1    
    25   15   14 2    
    26   60   14 1    
    27   16   15 1    
    28   17   16 ar   
    29   22   16 ar   
    30   18   17 1    
    31   19   17 ar   
    32   61   18 1    
    33   62   18 1    
    34   20   19 ar   
    35   21   20 ar   
    36   63   20 1    
    37   22   21 ar   
    38   24   23 1    
    39   40   23 2    
    40   25   24 2    
    41   26   24 am   
    42   27   26 am   
    43   64   26 1    
    44   28   27 2    
    45   29   27 1    
    46   30   29 2    
    47   40   29 1    
    48   31   30 1    
    49   32   31 ar   
    50   38   31 ar   
    51   33   32 ar   
    52   65   32 1    
    53   34   33 1    
    54   35   33 ar   
    55   74   34 1    
    56   75   34 1    
    57   76   34 1    
    58   36   35 1    
    59   37   35 ar   
    60   77   36 1    
    61   78   36 1    
    62   79   36 1    
    63   38   37 ar   
    64   66   37 1    
    65   39   38 1    
    66   40   39 1    
    67   41   39 1    
    68   42   41 1    
    69   67   41 1    
    70   68   41 1    
    71   43   42 1    
    72   44   42 1    
    73   69   42 1    
    74   82   43 1    
    75   45   44 1    
    76   46   44 1    
    77   70   44 1    
    78   83   45 1    
    79   47   46 1    
    80   48   46 1    
    81   71   46 1    
    82   84   47 1    
    83   49   48 1    
    84   72   48 1    
    85   73   48 1    
    86   50   49 1    
    87   51   50 ar   
    88   52   50 ar   
    89   53   50 1    
@<TRIPOS>SUBSTRUCTURE
     1 FAD510      1 GROUP   
@<TRIPOS>SET

