#    Name: 3koq_FMN_3_INTS_M
#    Modification time : Mon Mar 24 19:59:15 2014

@<TRIPOS>MOLECULE
3koq_FMN_3_INTS_M
   83     0     9     0     0
SMALL
NO_CHARGES


@<TRIPOS>ATOM
      1 N          -9.1610   49.7575   58.4535 N.am      1 SEC2        0.0000 
      2 N          -8.2100   50.0850   57.2930 N.am      7 SEL2        0.0000 
      3 N         -10.1120   49.4300   59.6140 N.am      4 SEP2        0.0000 
      4 N          -7.6745   50.1585   60.0520 N.am      1 SEC2        0.0000 
      5 N          -6.8990   50.7350   59.0100 N.am      7 SEL2        0.0000 
      6 N          -8.4500   49.5820   61.0940 N.am      4 SEP2        0.0000 
      7 N          -6.1345   51.1700   59.9675 N.am      1 SEC2        0.0000 
      8 N          -5.3700   51.6050   60.9250 N.am      4 SEP2        0.0000 
      9 N          -5.3870   51.5640   53.4860 N.am      1 SEC2        0.0000 
     10 N          -5.6720   52.2020   54.9800 N.am      7 SEL2        0.0000 
     11 N          -5.1020   50.9260   51.9920 N.am      4 SEP2        0.0000 
     12 N          -5.1485   52.8575   53.8000 N.am      1 SEC2        0.0000 
     13 N          -4.6250   53.5130   52.6200 N.am      4 SEP2        0.0000 
     14 N          -6.4655   50.9210   52.8565 N.am      1 SEC2        0.0000 
     15 N          -7.8290   50.9160   53.7210 N.am      7 SEL2        0.0000 
     16 CA         -6.6905   49.6175   53.3405 C.3       3 GLC5        0.0000 
     17 CA         -8.8020   50.1200   53.1720 C.3       9 GLL5        0.0000 
     18 CA         -4.5790   49.1150   53.5090 C.3       6 GLP5        0.0000 
     19 CA         -8.4325   48.1365   50.2070 C.3       3 GLC5        0.0000 
     20 CA         -9.8600   49.1170   49.6660 C.3       9 GLL5        0.0000 
     21 CA         -7.0050   47.1560   50.7480 C.3       6 GLP5        0.0000 
     22 CA         -9.7320   48.7100   48.0540 C.3       3 GLC5        0.0000 
     23 CA         -9.6040   48.3030   46.4420 C.3       6 GLP5        0.0000 
     24 CA        -10.7780   47.2745   49.1580 C.3       3 GLC5        0.0000 
     25 CA        -11.6960   45.4320   48.6500 C.3       6 GLP5        0.0000 
     26 CA         -9.5275   46.6980   51.3515 C.3       3 GLC5        0.0000 
     27 CA        -11.5360   47.3940   51.3880 C.3       9 GLL5        0.0000 
     28 CA         -7.5190   46.0020   51.3150 C.3       6 GLP5        0.0000 
     29 CA        -12.7375   46.0665   52.5330 C.3       3 GLC5        0.0000 
     30 CA        -13.9390   44.7390   53.6780 C.3       6 GLP5        0.0000 
     31 CA        -11.6160   46.4130   50.0190 C.3       3 GLC5        0.0000 
     32 CA        -10.3530   47.0740   57.7825 C.3       3 GLC5        0.0000 
     33 CA        -10.3320   48.4930   56.2670 C.3       9 GLL5        0.0000 
     34 CA        -10.3740   45.6550   59.2980 C.3       6 GLP5        0.0000 
     35 CA         -8.8170   47.5645   57.0225 C.3       3 GLC5        0.0000 
     36 CA         -7.3020   46.6360   57.7780 C.3       6 GLP5        0.0000 
     37 CA        -11.5510   46.7965   58.0140 C.3       3 GLC5        0.0000 
     38 CA        -12.7280   47.9380   56.7300 C.3       9 GLL5        0.0000 
     39 N         -12.6070   44.1430   59.8210 N.am      1 SEC2        0.0000 
     40 N         -13.8500   44.8530   59.8450 N.am      7 SEL2        0.0000 
     41 N         -11.3640   43.4330   59.7970 N.am      4 SEP2        0.0000 
     42 NZ        -12.8840   43.6100   56.7310 N.4       2 LYC4        0.0000 
     43 NZ        -13.4000   44.8290   57.2770 N.4       8 LYL4        0.0000 
     44 NZ        -13.4210   41.7650   55.7930 N.4       5 LYP4        0.0000 
     45 N         -12.8840   43.6100   56.7310 N.am      1 SEC2        0.0000 
     46 N         -13.4000   44.8290   57.2770 N.am      7 SEL2        0.0000 
     47 N         -12.3680   42.3910   56.1850 N.am      4 SEP2        0.0000 
     48 N         -14.0075   43.5560   56.6715 N.am      1 SEC2        0.0000 
     49 N         -14.6150   42.2830   56.0660 N.am      4 SEP2        0.0000 
     50 N         -12.1095   45.2645   57.6005 N.am      1 SEC2        0.0000 
     51 N         -10.8190   45.7000   57.9240 N.am      4 SEP2        0.0000 
     52 NZ        -15.9415   43.1255   58.7735 N.4       2 LYC4        0.0000 
     53 NZ        -15.6180   44.3550   58.2120 N.4       8 LYL4        0.0000 
     54 NZ        -16.8880   41.6510   60.4770 N.4       5 LYP4        0.0000 
     55 NZ        -16.6140   44.4230   57.1510 N.4       2 LYC4        0.0000 
     56 NZ        -18.6400   45.3200   56.1940 N.4       5 LYP4        0.0000 
     57 N         -15.1165   43.3190   57.1390 N.am      1 SEC2        0.0000 
     58 N         -15.6180   44.3550   58.2120 N.am      7 SEL2        0.0000 
     59 N         -15.9415   43.1255   58.7735 N.am      1 SEC2        0.0000 
     60 N         -16.2650   41.8960   59.3350 N.am      4 SEP2        0.0000 
     61 N         -16.6140   44.4230   57.1510 N.am      1 SEC2        0.0000 
     62 N         -17.6100   44.4910   56.0900 N.am      4 SEP2        0.0000 
     63 CA        -10.6322   50.7305   52.3445 C.3       3 GLC5        0.0000 
     64 CA        -12.4360   51.3950   52.2010 C.3       6 GLP5        0.0000 
     65 CA         -8.9132   47.2020   52.1880 C.3       3 GLC5        0.0000 
     66 CA         -9.7650   49.1710   51.1930 C.3       9 GLL5        0.0000 
     67 CA         -7.6530   45.6400   52.7830 C.3       6 GLP5        0.0000 
     68 CA        -11.1242   50.2695   51.3152 C.3       3 GLC5        0.0000 
     69 CA         -7.9665   49.8661   49.7421 C.3       3 GLC5        0.0000 
     70 CA         -8.8550   50.0120   51.8040 C.3       9 GLL5        0.0000 
     71 CA         -6.3480   50.3780   48.9020 C.3       6 GLP5        0.0000 
     72 CA        -10.0570   51.2056   50.0941 C.3       3 GLC5        0.0000 
     73 CA        -10.5290   53.0570   49.6060 C.3       6 GLP5        0.0000 
     74 CA        -12.9815   48.2062   51.5602 C.3       3 GLC5        0.0000 
     75 CA        -10.5820   48.3570   51.9930 C.3       9 GLL5        0.0000 
     76 CA        -14.9040   48.5370   51.4300 C.3       6 GLP5        0.0000 
     77 CA        -11.7475   49.6352   51.9458 C.3       3 GLC5        0.0000 
     78 CA         -8.8525   47.2497   53.2285 C.3       3 GLC5        0.0000 
     79 CA        -10.5070   48.4420   53.3710 C.3       9 GLL5        0.0000 
     80 CA        -11.2440   50.1273   52.9375 C.3       3 GLC5        0.0000 
     81 CA        -15.8807   49.4387   56.8933 C.3       3 GLC5        0.0000 
     82 CA        -14.1630   48.4070   56.8520 C.3       9 GLL5        0.0000 
     83 CA        -17.1330   51.0280   56.7500 C.3       6 GLP5        0.0000 
@<TRIPOS>BOND
@<TRIPOS>SUBSTRUCTURE
     1 SEC2        1 GROUP        1 X    SEC  0     ROOT SEC X 2
     2 LYC4       42 GROUP        1 X    LYC  0     **** LYC X 4
     3 GLC5       16 GROUP        1 X    GLC  0     **** GLC X 6
     4 SEP2        3 GROUP        1 Y    SEP  0     ROOT SEP Y 9
     5 LYP4       44 GROUP        1 Y    LYP  0     **** LYP Y 11
     6 GLP5       18 GROUP        1 Y    GLP  0     **** GLP Y 13
     7 SEL2        2 GROUP        1 Z    SEL  0     ROOT SEL Z 16
     8 LYL4       43 GROUP        1 Z    LYL  0     **** LYL Z 18
     9 GLL5       17 GROUP        1 Z    GLL  0     **** GLL Z 20
@<TRIPOS>SET

