#    Name: 3koq_FMN_3_ligand
#    Modification time : Mon Mar 24 19:59:15 2014

@<TRIPOS>MOLECULE
3koq_FMN_3_ligand
   50    52     1     0     0
SMALL
NO_CHARGES


@<TRIPOS>ATOM
      1 N1         -8.2100   50.0850   57.2930 N.2       1 FMN300      0.0000 
      2 C2         -7.1360   50.7410   57.8000 C.2       1 FMN300      0.0000 
      3 O2         -6.8990   50.7350   59.0100 O.2       1 FMN300      0.0000 
      4 N3         -6.2850   51.4520   57.0050 N.am      1 FMN300      0.0000 
      5 C4         -6.5040   51.5550   55.6120 C.2       1 FMN300      0.0000 
      6 O4         -5.6720   52.2020   54.9800 O.2       1 FMN300      0.0000 
      7 C4A        -7.5800   50.8580   55.0840 C.2       1 FMN300      0.0000 
      8 N5         -7.8290   50.9160   53.7210 N.2       1 FMN300      0.0000 
      9 C5A        -8.8020   50.1200   53.1720 C.ar      1 FMN300      0.0000 
     10 C6         -8.8550   50.0120   51.8040 C.ar      1 FMN300      0.0000 
     11 C7         -9.7650   49.1710   51.1930 C.ar      1 FMN300      0.0000 
     12 C7M        -9.8600   49.1170   49.6660 C.3       1 FMN300      0.0000 
     13 C8        -10.5820   48.3570   51.9930 C.ar      1 FMN300      0.0000 
     14 C8M       -11.5360   47.3940   51.3880 C.3       1 FMN300      0.0000 
     15 C9        -10.5070   48.4420   53.3710 C.ar      1 FMN300      0.0000 
     16 C9A        -9.5970   49.2770   53.9770 C.ar      1 FMN300      0.0000 
     17 N10        -9.5110   49.3810   55.3850 N.pl3     1 FMN300      0.0000 
     18 C10        -8.4320   50.1060   55.9160 C.2       1 FMN300      0.0000 
     19 C1'       -10.3320   48.4930   56.2670 C.3       1 FMN300      0.0000 
     20 C2'       -11.7710   49.0620   56.3030 C.3       1 FMN300      0.0000 
     21 O2'       -11.8460   50.2180   57.1430 O.3       1 FMN300      0.0000 
     22 C3'       -12.7280   47.9380   56.7300 C.3       1 FMN300      0.0000 
     23 O3'       -12.6760   46.8690   55.7480 O.3       1 FMN300      0.0000 
     24 C4'       -14.1630   48.4070   56.8520 C.3       1 FMN300      0.0000 
     25 O4'       -14.2130   49.4620   57.8440 O.3       1 FMN300      0.0000 
     26 C5'       -15.0940   47.2920   57.2210 C.3       1 FMN300      0.0000 
     27 O5'       -14.7460   46.6750   58.4010 O.3       1 FMN300      0.0000 
     28 P         -14.3880   45.1350   58.4350 P.3       1 FMN300      0.0000 
     29 O1P       -13.8500   44.8530   59.8450 O.co2     1 FMN300      0.0000 
     30 O2P       -13.4000   44.8290   57.2770 O.co2     1 FMN300      0.0000 
     31 O3P       -15.6180   44.3550   58.2120 O.co2     1 FMN300      0.0000 
     32 H          -5.4595   51.9316   57.4077 H         1 FMN300      0.0000 
     33 H          -8.2032   50.5690   51.2171 H         1 FMN300      0.0000 
     34 H         -11.1463   47.8676   53.9526 H         1 FMN300      0.0000 
     35 H          -9.9401   48.4880   57.2707 H         1 FMN300      0.0000 
     36 H         -10.3689   47.4923   55.8691 H         1 FMN300      0.0000 
     37 H         -12.0220   49.3164   55.2629 H         1 FMN300      0.0000 
     38 H         -12.4021   47.5643   57.6929 H         1 FMN300      0.0000 
     39 H         -14.4634   48.8094   55.8831 H         1 FMN300      0.0000 
     40 H         -15.1125   46.5771   56.3611 H         1 FMN300      0.0000 
     41 H         -16.1264   47.7205   57.2580 H         1 FMN300      0.0000 
     42 H          -8.9948   48.8373   49.2497 H         1 FMN300      0.0000 
     43 H         -10.5560   48.4675   49.3599 H         1 FMN300      0.0000 
     44 H         -10.0983   50.0069   49.2770 H         1 FMN300      0.0000 
     45 H         -11.0694   46.7165   50.8194 H         1 FMN300      0.0000 
     46 H         -12.0470   46.8902   52.0845 H         1 FMN300      0.0000 
     47 H         -12.2077   47.8525   50.8061 H         1 FMN300      0.0000 
     48 H         -12.7526   50.1744   57.5627 H         1 FMN300      0.0000 
     49 H         -12.9134   46.0403   56.2549 H         1 FMN300      0.0000 
     50 H         -13.8460   49.0503   58.6782 H         1 FMN300      0.0000 
@<TRIPOS>BOND
     1    2    1 1    
     2   18    1 2    
     3    3    2 2    
     4    4    2 am   
     5    5    4 am   
     6   32    4 1    
     7    6    5 2    
     8    7    5 1    
     9    8    7 2    
    10   18    7 1    
    11    9    8 1    
    12   10    9 ar   
    13   16    9 ar   
    14   11   10 ar   
    15   33   10 1    
    16   12   11 1    
    17   13   11 ar   
    18   42   12 1    
    19   43   12 1    
    20   44   12 1    
    21   14   13 1    
    22   15   13 ar   
    23   45   14 1    
    24   46   14 1    
    25   47   14 1    
    26   16   15 ar   
    27   34   15 1    
    28   17   16 1    
    29   18   17 1    
    30   19   17 1    
    31   20   19 1    
    32   35   19 1    
    33   36   19 1    
    34   21   20 1    
    35   22   20 1    
    36   37   20 1    
    37   48   21 1    
    38   23   22 1    
    39   24   22 1    
    40   38   22 1    
    41   49   23 1    
    42   25   24 1    
    43   26   24 1    
    44   39   24 1    
    45   50   25 1    
    46   27   26 1    
    47   40   26 1    
    48   41   26 1    
    49   28   27 1    
    50   29   28 ar   
    51   30   28 ar   
    52   31   28 ar   
@<TRIPOS>SUBSTRUCTURE
     1 FMN300      1 GROUP   
@<TRIPOS>SET

