#    Name: 1xiu_REA_1_INTS_M
#    Modification time : Tue Mar 25 09:52:54 2014

@<TRIPOS>MOLECULE
1xiu_REA_1_INTS_M
   90     0     9     0     0
SMALL
NO_CHARGES


@<TRIPOS>ATOM
      1 CA         39.6720   40.7775   86.9345 C.3       3 GLC5        0.0000 
      2 CA         38.0100   39.9070   87.7520 C.3       9 GLL5        0.0000 
      3 CA         41.3340   41.6480   86.1170 C.3       6 GLP5        0.0000 
      4 CA         39.7090   42.0650   87.7015 C.3       3 GLC5        0.0000 
      5 CA         38.1420   41.3470   88.2840 C.3       9 GLL5        0.0000 
      6 CA         41.2760   42.7830   87.1190 C.3       6 GLP5        0.0000 
      7 CA         38.0110   40.3925   90.7710 C.3       3 GLC5        0.0000 
      8 CA         37.1750   41.7520   89.3930 C.3       9 GLL5        0.0000 
      9 CA         38.8470   39.0330   92.1490 C.3       6 GLP5        0.0000 
     10 CA         38.3320   42.9040   90.9285 C.3       3 GLC5        0.0000 
     11 CA         39.4890   44.0560   92.4640 C.3       6 GLP5        0.0000 
     12 CA         32.8075   40.0320   91.3155 C.3       3 GLC5        0.0000 
     13 CA         33.5160   39.0000   89.5320 C.3       9 GLL5        0.0000 
     14 CA         32.0990   41.0640   93.0990 C.3       6 GLP5        0.0000 
     15 CA         31.0405   40.3475   89.7735 C.3       3 GLC5        0.0000 
     16 CA         32.1660   38.4670   89.3590 C.3       9 GLL5        0.0000 
     17 CA         29.9150   42.2280   90.1880 C.3       6 GLP5        0.0000 
     18 CA         34.2325   37.6335   91.7055 C.3       3 GLC5        0.0000 
     19 CA         32.2800   37.6640   91.6550 C.3       9 GLL5        0.0000 
     20 CA         36.1850   37.6030   91.7560 C.3       6 GLP5        0.0000 
     21 CA         30.0305   35.1195   95.6785 C.3       3 GLC5        0.0000 
     22 CA         31.0960   36.3140   94.9000 C.3       9 GLL5        0.0000 
     23 CA         28.9650   33.9250   96.4570 C.3       6 GLP5        0.0000 
     24 CA         36.3520   37.7425   89.7065 C.3       3 GLC5        0.0000 
     25 CA         36.5190   37.8820   87.6570 C.3       9 GLL5        0.0000 
     26 CA         36.9020   36.0140   87.5810 C.3       3 GLC5        0.0000 
     27 CA         37.2850   34.1460   87.5050 C.3       6 GLP5        0.0000 
     28 CA         35.8025   36.8875   86.2450 C.3       3 GLC5        0.0000 
     29 CA         35.0860   35.8930   84.8330 C.3       6 GLP5        0.0000 
     30 CA         37.8415   37.4635   86.0585 C.3       3 GLC5        0.0000 
     31 CA         39.1640   37.0450   84.4600 C.3       6 GLP5        0.0000 
     32 CA         34.6590   40.8350   85.1520 C.3       3 GLC5        0.0000 
     33 CA         36.1360   39.7270   86.0580 C.3       9 GLL5        0.0000 
     34 CA         33.1820   41.9430   84.2460 C.3       6 GLP5        0.0000 
     35 CA         36.5760   40.0790   84.4330 C.3       3 GLC5        0.0000 
     36 CA         37.0160   40.4310   82.8080 C.3       6 GLP5        0.0000 
     37 CA         35.6110   37.8100   85.4455 C.3       3 GLC5        0.0000 
     38 CA         37.6500   38.3860   85.2590 C.3       3 GLC5        0.0000 
     39 CA         33.7655   42.0845   91.5605 C.3       3 GLC5        0.0000 
     40 CA         34.7070   41.9350   89.9330 C.3       9 GLL5        0.0000 
     41 CA         32.8240   42.2340   93.1880 C.3       6 GLP5        0.0000 
     42 CA         33.8820   42.3770   88.3730 C.3       3 GLC5        0.0000 
     43 CA         33.0570   42.8190   86.8130 C.3       6 GLP5        0.0000 
     44 CA         29.9650   37.0925   87.5210 C.3       3 GLC5        0.0000 
     45 CA         31.2960   38.7080   88.1570 C.3       9 GLL5        0.0000 
     46 CA         28.6340   35.4770   86.8850 C.3       6 GLP5        0.0000 
     47 CA         29.3995   38.8990   87.1715 C.3       3 GLC5        0.0000 
     48 CA         27.5030   39.0900   86.1860 C.3       6 GLP5        0.0000 
     49 CA         30.3875   40.4905   88.4620 C.3       3 GLC5        0.0000 
     50 CA         29.4790   42.2730   88.7670 C.3       6 GLP5        0.0000 
     51 CA         31.8760   40.1500   86.8545 C.3       3 GLC5        0.0000 
     52 CA         32.4560   41.5920   85.5520 C.3       6 GLP5        0.0000 
     53 CA         31.9640   37.5315   86.4340 C.3       3 GLC5        0.0000 
     54 CA         32.6320   36.3550   84.7110 C.3       6 GLP5        0.0000 
     55 CA         34.8515   37.3320   93.0285 C.3       3 GLC5        0.0000 
     56 CA         33.5180   37.0610   94.3010 C.3       9 GLL5        0.0000 
     57 CA         34.0175   35.4075   94.9030 C.3       3 GLC5        0.0000 
     58 CA         34.5170   33.7540   95.5050 C.3       6 GLP5        0.0000 
     59 CA         32.5790   38.7700   94.2635 C.3       3 GLC5        0.0000 
     60 CA         31.6400   40.4790   94.2260 C.3       6 GLP5        0.0000 
     61 CA         34.9435   37.5380   95.4415 C.3       3 GLC5        0.0000 
     62 CA         36.3690   38.0150   96.5820 C.3       6 GLP5        0.0000 
     63 NZ         30.5060   37.3250   98.0200 N.4       2 LYC4        0.0000 
     64 NZ         29.9780   36.9060   96.9630 N.4       8 LYL4        0.0000 
     65 NZ         30.3900   38.0090  100.1730 N.4       5 LYP4        0.0000 
     66 N          30.5060   37.3250   98.0200 N.am      1 SEC2        0.0000 
     67 N          29.9780   36.9060   96.9630 N.am      7 SEL2        0.0000 
     68 N          31.0340   37.7440   99.0770 N.am      4 SEP2        0.0000 
     69 N          32.7285   35.7945   98.1850 N.am      1 SEC2        0.0000 
     70 N          32.1490   36.2240   96.9500 N.am      7 SEL2        0.0000 
     71 N          33.3080   35.3650   99.4200 N.am      4 SEP2        0.0000 
     72 CA         37.8398   43.2863   87.6893 C.3       3 GLC5        0.0000 
     73 CA         38.0210   45.0230   86.5400 C.3       6 GLP5        0.0000 
     74 CA         35.9260   39.1077   90.2662 C.3       3 GLC5        0.0000 
     75 CA         35.7880   41.1930   89.1790 C.3       9 GLL5        0.0000 
     76 CA         35.0440   38.3675   90.3430 C.3       3 GLC5        0.0000 
     77 CA         34.2900   39.2640   88.3280 C.3       9 GLL5        0.0000 
     78 CA         34.0178   41.3786   87.6826 C.3       3 GLC5        0.0000 
     79 CA         32.0230   39.3590   92.0565 C.3       3 GLC5        0.0000 
     80 CA         31.6140   37.6440   90.3730 C.3       9 GLL5        0.0000 
     81 CA         31.8905   35.7445   91.3448 C.3       3 GLC5        0.0000 
     82 CA         31.4430   37.2800   92.7950 C.3       9 GLL5        0.0000 
     83 CA         32.0860   34.0220   90.7850 C.3       6 GLP5        0.0000 
     84 CA         29.7615   37.5550   91.9528 C.3       3 GLC5        0.0000 
     85 CA         27.8280   37.6430   92.0010 C.3       6 GLP5        0.0000 
     86 CA         33.0415   35.1743   94.9855 C.3       3 GLC5        0.0000 
     87 CA         32.0360   36.8750   94.0320 C.3       9 GLL5        0.0000 
     88 CA         31.6120   34.9847   93.2765 C.3       3 GLC5        0.0000 
     89 CA         31.6580   33.3750   92.0870 C.3       6 GLP5        0.0000 
     90 CA         31.5289   38.5874   94.1914 C.3       3 GLC5        0.0000 
@<TRIPOS>BOND
@<TRIPOS>SUBSTRUCTURE
     1 SEC2       66 GROUP        1 X    SEC  0     ROOT SEC X 2
     2 LYC4       63 GROUP        1 X    LYC  0     **** LYC X 4
     3 GLC5        1 GROUP        1 X    GLC  0     **** GLC X 6
     4 SEP2       68 GROUP        1 Y    SEP  0     ROOT SEP Y 9
     5 LYP4       65 GROUP        1 Y    LYP  0     **** LYP Y 11
     6 GLP5        3 GROUP        1 Y    GLP  0     **** GLP Y 13
     7 SEL2       67 GROUP        1 Z    SEL  0     ROOT SEL Z 16
     8 LYL4       64 GROUP        1 Z    LYL  0     **** LYL Z 18
     9 GLL5        2 GROUP        1 Z    GLL  0     **** GLL Z 20
@<TRIPOS>SET

