#    Name: 1xiu_REA_1_ligand
#    Modification time : Tue Mar 25 09:52:54 2014

@<TRIPOS>MOLECULE
1xiu_REA_1_ligand
   49    49     1     0     0
SMALL
NO_CHARGES


@<TRIPOS>ATOM
      1 C1         36.5930   39.4000   87.4700 C.3       1 REA201      0.0000 
      2 C2         38.0100   39.9070   87.7520 C.3       1 REA201      0.0000 
      3 C3         38.1420   41.3470   88.2840 C.3       1 REA201      0.0000 
      4 C4         37.1750   41.7520   89.3930 C.3       1 REA201      0.0000 
      5 C5         35.7880   41.1930   89.1790 C.2       1 REA201      0.0000 
      6 C6         35.5460   40.0320   88.3740 C.2       1 REA201      0.0000 
      7 C7         34.2900   39.2640   88.3280 C.2       1 REA201      0.0000 
      8 C8         33.5160   39.0000   89.5320 C.2       1 REA201      0.0000 
      9 C9         32.1660   38.4670   89.3590 C.2       1 REA201      0.0000 
     10 C10        31.6140   37.6440   90.3730 C.2       1 REA201      0.0000 
     11 C11        32.2800   37.6640   91.6550 C.2       1 REA201      0.0000 
     12 C12        31.4430   37.2800   92.7950 C.2       1 REA201      0.0000 
     13 C13        32.0360   36.8750   94.0320 C.2       1 REA201      0.0000 
     14 C14        31.0960   36.3140   94.9000 C.2       1 REA201      0.0000 
     15 C15        31.0560   36.5010   96.3680 C.2       1 REA201      0.0000 
     16 C16        36.5190   37.8820   87.6570 C.3       1 REA201      0.0000 
     17 C17        36.1360   39.7270   86.0580 C.3       1 REA201      0.0000 
     18 C18        34.7070   41.9350   89.9330 C.3       1 REA201      0.0000 
     19 C19        31.2960   38.7080   88.1570 C.3       1 REA201      0.0000 
     20 C20        33.5180   37.0610   94.3010 C.3       1 REA201      0.0000 
     21 O1         29.9780   36.9060   96.9630 O.co2     1 REA201      0.0000 
     22 O2         32.1490   36.2240   96.9500 O.co2     1 REA201      0.0000 
     23 H          38.6115   39.8225   86.8183 H         1 REA201      0.0000 
     24 H          38.4967   39.2190   88.4804 H         1 REA201      0.0000 
     25 H          38.0216   42.0475   87.4286 H         1 REA201      0.0000 
     26 H          39.1839   41.4915   88.6451 H         1 REA201      0.0000 
     27 H          37.1252   42.8474   89.4378 H         1 REA201      0.0000 
     28 H          37.5684   41.3969   90.3540 H         1 REA201      0.0000 
     29 H          33.9632   38.9143   87.4333 H         1 REA201      0.0000 
     30 H          33.8851   39.1729   90.4301 H         1 REA201      0.0000 
     31 H          30.8140   37.0801   90.2232 H         1 REA201      0.0000 
     32 H          33.2124   37.9119   91.7638 H         1 REA201      0.0000 
     33 H          30.4345   37.3068   92.6905 H         1 REA201      0.0000 
     34 H          30.3354   35.6985   94.5061 H         1 REA201      0.0000 
     35 H          37.1400   37.4009   87.0382 H         1 REA201      0.0000 
     36 H          36.7638   37.6101   88.5877 H         1 REA201      0.0000 
     37 H          35.5995   37.5305   87.4812 H         1 REA201      0.0000 
     38 H          36.1303   40.7125   85.8883 H         1 REA201      0.0000 
     39 H          36.7327   39.3145   85.3696 H         1 REA201      0.0000 
     40 H          35.2100   39.3937   85.8808 H         1 REA201      0.0000 
     41 H          34.8599   41.9109   90.9209 H         1 REA201      0.0000 
     42 H          34.6625   42.8979   89.6667 H         1 REA201      0.0000 
     43 H          33.8022   41.5428   89.7668 H         1 REA201      0.0000 
     44 H          31.1113   39.6814   88.0213 H         1 REA201      0.0000 
     45 H          31.7211   38.3705   87.3171 H         1 REA201      0.0000 
     46 H          30.4107   38.2507   88.2416 H         1 REA201      0.0000 
     47 H          34.0806   36.5676   93.6377 H         1 REA201      0.0000 
     48 H          33.7860   38.0233   94.2544 H         1 REA201      0.0000 
     49 H          33.7753   36.7287   95.2084 H         1 REA201      0.0000 
@<TRIPOS>BOND
     1    2    1 1    
     2    6    1 1    
     3   16    1 1    
     4   17    1 1    
     5    3    2 1    
     6   23    2 1    
     7   24    2 1    
     8    4    3 1    
     9   25    3 1    
    10   26    3 1    
    11    5    4 1    
    12   27    4 1    
    13   28    4 1    
    14    6    5 2    
    15   18    5 1    
    16    7    6 1    
    17    8    7 2    
    18   29    7 1    
    19    9    8 1    
    20   30    8 1    
    21   10    9 2    
    22   19    9 1    
    23   11   10 1    
    24   31   10 1    
    25   12   11 2    
    26   32   11 1    
    27   13   12 1    
    28   33   12 1    
    29   14   13 2    
    30   20   13 1    
    31   15   14 1    
    32   34   14 1    
    33   21   15 ar   
    34   22   15 ar   
    35   35   16 1    
    36   36   16 1    
    37   37   16 1    
    38   38   17 1    
    39   39   17 1    
    40   40   17 1    
    41   41   18 1    
    42   42   18 1    
    43   43   18 1    
    44   44   19 1    
    45   45   19 1    
    46   46   19 1    
    47   47   20 1    
    48   48   20 1    
    49   49   20 1    
@<TRIPOS>SUBSTRUCTURE
     1 REA201      1 GROUP   
@<TRIPOS>SET

