#    Name: 3qk0_QK0_1_INTS_M
#    Modification time : Tue Mar 25 09:55:07 2014

@<TRIPOS>MOLECULE
3qk0_QK0_1_INTS_M
   71     0     9     0     0
SMALL
NO_CHARGES


@<TRIPOS>ATOM
      1 CA         23.4555   15.2545   23.3405 C.3       3 GLC5        0.0000 
      2 CA         22.2000   13.8610   22.5390 C.3       9 GLL5        0.0000 
      3 CA         24.7110   16.6480   24.1420 C.3       6 GLP5        0.0000 
      4 CA         14.8740   14.6185   22.1650 C.3       3 GLC5        0.0000 
      5 CA         14.9600   14.9730   24.0960 C.3       9 GLL5        0.0000 
      6 CA         14.7880   14.2640   20.2340 C.3       6 GLP5        0.0000 
      7 CA         15.4590   13.1780   23.1470 C.3       3 GLC5        0.0000 
      8 CA         15.9580   11.3830   22.1980 C.3       6 GLP5        0.0000 
      9 CA         15.1460   15.7140   25.9800 C.3       3 GLC5        0.0000 
     10 CA         15.3320   16.4550   27.8640 C.3       6 GLP5        0.0000 
     11 CA         22.8300   12.7805   20.3695 C.3       3 GLC5        0.0000 
     12 CA         24.7190   13.3920   21.1370 C.3       9 GLL5        0.0000 
     13 CA         20.9410   12.1690   19.6020 C.3       6 GLP5        0.0000 
     14 CA         24.7150   15.0200   22.6395 C.3       3 GLC5        0.0000 
     15 CA         27.7530   16.2875   21.3955 C.3       3 GLC5        0.0000 
     16 CA         26.2920   16.9900   19.8950 C.3       9 GLL5        0.0000 
     17 CA         29.2140   15.5850   22.8960 C.3       6 GLP5        0.0000 
     18 O          16.4215   13.2775   24.9185 O.2       1 ALC1        0.0000 
     19 O          17.2130   14.0850   24.1100 O.2       7 ALL1        0.0000 
     20 O          15.6300   12.4700   25.7270 O.2       4 ALP1        0.0000 
     21 N          18.3820   11.6460   24.7490 N.am      2 SEC2        0.0000 
     22 N          19.2140   12.8500   24.3290 N.am      8 SEL2        0.0000 
     23 N          17.5500   10.4420   25.1690 N.am      5 SEP2        0.0000 
     24 CA         20.2410   13.4655   21.2015 C.3       3 GLC5        0.0000 
     25 CA         19.5410   14.7620   22.8010 C.3       9 GLL5        0.0000 
     26 CA         19.3625   15.8785   24.2615 C.3       3 GLC5        0.0000 
     27 CA         19.1840   16.9950   25.7220 C.3       6 GLP5        0.0000 
     28 CA         20.2560   11.1265   26.0225 C.3       3 GLC5        0.0000 
     29 CA         21.4560   11.8320   24.2970 C.3       9 GLL5        0.0000 
     30 CA         19.0560   10.4210   27.7480 C.3       6 GLP5        0.0000 
     31 CA         27.4535   13.3325   23.4405 C.3       3 GLC5        0.0000 
     32 CA         25.5050   12.3630   23.1530 C.3       9 GLL5        0.0000 
     33 CA         29.4020   14.3020   23.7280 C.3       6 GLP5        0.0000 
     34 N          26.7520   11.7575   24.2910 N.am      2 SEC2        0.0000 
     35 N          26.7380   12.3320   22.6660 N.am      8 SEL2        0.0000 
     36 N          26.7660   11.1830   25.9160 N.am      5 SEP2        0.0000 
     37 N          27.5050   13.2185   23.6580 N.am      2 SEC2        0.0000 
     38 N          28.2720   14.1050   24.6500 N.am      5 SEP2        0.0000 
     39 CA         29.1225   10.7230   20.0540 C.3       3 GLC5        0.0000 
     40 CA         28.6700   12.7250   20.8740 C.3       9 GLL5        0.0000 
     41 CA         29.5750    8.7210   19.2340 C.3       6 GLP5        0.0000 
     42 CA         27.6200   14.4710   21.7660 C.3       3 GLC5        0.0000 
     43 CA         26.0260   13.3570   20.6360 C.3       9 GLL5        0.0000 
     44 CA         22.9925   20.1605   22.9655 C.3       3 GLC5        0.0000 
     45 CA         24.6350   19.8290   21.4660 C.3       9 GLL5        0.0000 
     46 CA         21.3500   20.4920   24.4650 C.3       6 GLP5        0.0000 
     47 CA         20.8210   12.7268   21.5450 C.3       3 GLC5        0.0000 
     48 CA         20.8980   13.7940   23.0430 C.3       9 GLL5        0.0000 
     49 CA         19.3705   11.0183   23.4835 C.3       3 GLC5        0.0000 
     50 CA         20.5040   12.7750   23.9330 C.3       9 GLL5        0.0000 
     51 CA         17.7610    9.7330   22.8520 C.3       6 GLP5        0.0000 
     52 CA         21.8065   12.7775   21.1668 C.3       3 GLC5        0.0000 
     53 CA         21.1812   15.0759   24.4068 C.3       3 GLC5        0.0000 
     54 CA         20.9120   16.5790   25.8000 C.3       6 GLP5        0.0000 
     55 CA         25.8789   11.3129   20.3726 C.3       3 GLC5        0.0000 
     56 CA         25.5560    9.5360   19.5820 C.3       6 GLP5        0.0000 
     57 CA         28.6262   13.5335   22.4425 C.3       3 GLC5        0.0000 
     58 CA         27.0310   12.8050   21.4400 C.3       9 GLL5        0.0000 
     59 CA         22.7903   10.3403   23.0255 C.3       3 GLC5        0.0000 
     60 CA         22.7530   11.8970   23.7970 C.3       9 GLL5        0.0000 
     61 CA         23.4760    8.8160   22.0040 C.3       6 GLP5        0.0000 
     62 CA         23.4776   13.3584   24.8882 C.3       3 GLC5        0.0000 
     63 CA         24.3310   14.3290   26.2910 C.3       6 GLP5        0.0000 
     64 CA         25.3062   13.7332   24.2325 C.3       3 GLC5        0.0000 
     65 CA         24.4500   12.9100   22.4210 C.3       9 GLL5        0.0000 
     66 CA         25.6350   14.8300   25.6780 C.3       6 GLP5        0.0000 
     67 CA         24.0635   10.7264   22.4584 C.3       3 GLC5        0.0000 
     68 CA         22.0305   16.9650   19.2515 C.3       3 GLC5        0.0000 
     69 CA         23.7020   18.0040   20.2650 C.3       9 GLL5        0.0000 
     70 CA         20.2650   16.5210   18.5920 C.3       6 GLP5        0.0000 
     71 CA         24.5426   17.6074   22.4069 C.3       3 GLC5        0.0000 
@<TRIPOS>BOND
@<TRIPOS>SUBSTRUCTURE
     1 ALC1       18 GROUP        1 X    ALC  0     ROOT ALC X 1
     2 SEC2       21 GROUP        1 X    SEC  0     **** SEC X 2
     3 GLC5        1 GROUP        1 X    GLC  0     **** GLC X 6
     4 ALP1       20 GROUP        1 Y    ALP  0     ROOT ALP Y 8
     5 SEP2       23 GROUP        1 Y    SEP  0     **** SEP Y 9
     6 GLP5        3 GROUP        1 Y    GLP  0     **** GLP Y 13
     7 ALL1       19 GROUP        1 Z    ALL  0     ROOT ALL Z 15
     8 SEL2       22 GROUP        1 Z    SEL  0     **** SEL Z 16
     9 GLL5        2 GROUP        1 Z    GLL  0     **** GLL Z 20
@<TRIPOS>SET

