#    Name: 3qk0_QK0_1_ligand
#    Modification time : Tue Mar 25 09:55:07 2014

@<TRIPOS>MOLECULE
3qk0_QK0_1_ligand
   45    48     1     0     0
SMALL
NO_CHARGES


@<TRIPOS>ATOM
      1 C4         20.5040   12.7750   23.9330 C.ar      1 QK01103     0.0000 
      2 C5         20.8980   13.7940   23.0430 C.ar      1 QK01103     0.0000 
      3 C6         22.2000   13.8610   22.5390 C.ar      1 QK01103     0.0000 
      4 C8         18.5130   13.8730   23.8250 C.2       1 QK01103     0.0000 
      5 C13        14.9600   14.9730   24.0960 C.3       1 QK01103     0.0000 
      6 C15        24.7190   13.3920   21.1370 C.ar      1 QK01103     0.0000 
      7 C17        27.0310   12.8050   21.4400 C.ar      1 QK01103     0.0000 
      8 C26        26.2920   16.9900   19.8950 C.ar      1 QK01103     0.0000 
      9 C28        24.8110   18.6810   20.7830 C.ar      1 QK01103     0.0000 
     10 C12        16.4010   15.0090   23.5690 C.2       1 QK01103     0.0000 
     11 O14        16.7240   15.8470   22.7240 O.2       1 QK01103     0.0000 
     12 N10        17.2130   14.0850   24.1100 N.am      1 QK01103     0.0000 
     13 N7         19.2140   12.8500   24.3290 N.2       1 QK01103     0.0000 
     14 S9         19.5410   14.7620   22.8010 S.3       1 QK01103     0.0000 
     15 C3         21.4560   11.8320   24.2970 C.ar      1 QK01103     0.0000 
     16 C2         22.7530   11.8970   23.7970 C.ar      1 QK01103     0.0000 
     17 C1         23.1440   12.9110   22.9240 C.ar      1 QK01103     0.0000 
     18 C11        24.4500   12.9100   22.4210 C.ar      1 QK01103     0.0000 
     19 C19        25.5050   12.3630   23.1530 C.ar      1 QK01103     0.0000 
     20 N18        26.7380   12.3320   22.6660 N.ar      1 QK01103     0.0000 
     21 CL20       28.6700   12.7250   20.8740 Cl        1 QK01103     0.0000 
     22 C16        26.0260   13.3570   20.6360 C.ar      1 QK01103     0.0000 
     23 N21        26.3440   13.8160   19.4130 N.pl3     1 QK01103     0.0000 
     24 S22        25.4320   14.8280   18.5050 S.o2      1 QK01103     0.0000 
     25 O23        24.1030   14.2050   18.1750 O.2       1 QK01103     0.0000 
     26 O24        26.1760   15.1370   17.2390 O.2       1 QK01103     0.0000 
     27 C25        25.1850   16.3140   19.3770 C.ar      1 QK01103     0.0000 
     28 C27        26.1040   18.1790   20.6000 C.ar      1 QK01103     0.0000 
     29 F31        24.6350   19.8290   21.4660 F         1 QK01103     0.0000 
     30 C29        23.7020   18.0040   20.2650 C.ar      1 QK01103     0.0000 
     31 C30        23.8900   16.8140   19.5570 C.ar      1 QK01103     0.0000 
     32 H          22.4585   14.6094   21.8865 H         1 QK01103     0.0000 
     33 H          23.9602   13.7714   20.5611 H         1 QK01103     0.0000 
     34 H          27.2342   16.6151   19.7579 H         1 QK01103     0.0000 
     35 H          16.7706   13.4310   24.8666 H         1 QK01103     0.0000 
     36 H          21.1990   11.0705   24.9485 H         1 QK01103     0.0000 
     37 H          23.4438   11.1767   24.0790 H         1 QK01103     0.0000 
     38 H          25.2874   11.9773   24.1023 H         1 QK01103     0.0000 
     39 H          27.2234   13.5711   18.9026 H         1 QK01103     0.0000 
     40 H          26.9087   18.6842   20.9831 H         1 QK01103     0.0000 
     41 H          22.7604   18.3778   20.4038 H         1 QK01103     0.0000 
     42 H          23.0871   16.3107   19.1723 H         1 QK01103     0.0000 
     43 H          14.8315   14.2519   24.7768 H         1 QK01103     0.0000 
     44 H          14.7018   15.8358   24.5306 H         1 QK01103     0.0000 
     45 H          14.3006   14.8051   23.3632 H         1 QK01103     0.0000 
@<TRIPOS>BOND
     1    2    1 ar   
     2   13    1 1    
     3   15    1 ar   
     4    3    2 ar   
     5   14    2 1    
     6   17    3 ar   
     7   32    3 1    
     8   12    4 1    
     9   13    4 2    
    10   14    4 1    
    11   10    5 1    
    12   43    5 1    
    13   44    5 1    
    14   45    5 1    
    15   18    6 ar   
    16   22    6 ar   
    17   33    6 1    
    18   20    7 ar   
    19   21    7 1    
    20   22    7 ar   
    21   27    8 ar   
    22   28    8 ar   
    23   34    8 1    
    24   28    9 ar   
    25   29    9 1    
    26   30    9 ar   
    27   11   10 2    
    28   12   10 am   
    29   35   12 1    
    30   16   15 ar   
    31   36   15 1    
    32   17   16 ar   
    33   37   16 1    
    34   18   17 1    
    35   19   18 ar   
    36   20   19 ar   
    37   38   19 1    
    38   23   22 1    
    39   24   23 1    
    40   39   23 1    
    41   25   24 2    
    42   26   24 2    
    43   27   24 1    
    44   31   27 ar   
    45   40   28 1    
    46   31   30 ar   
    47   41   30 1    
    48   42   31 1    
@<TRIPOS>SUBSTRUCTURE
     1 QK01103     1 GROUP   
@<TRIPOS>SET

