#    Name: 1mq4_ADP_1_INTS_M
#    Modification time : Tue Mar 25 12:01:30 2014

@<TRIPOS>MOLECULE
1mq4_ADP_1_INTS_M
   67     0    15     0     0
SMALL
NO_CHARGES


@<TRIPOS>ATOM
      1 NZ        -10.8555   22.8630   78.6305 N.4       3 LYC4        0.0000 
      2 NZ        -11.7080   22.7550   79.7930 N.4      13 LYL4        0.0000 
      3 NZ        -10.0030   22.9710   77.4680 N.4       8 LYP4        0.0000 
      4 Zn        -12.5995   22.6885   79.4830 Zn        4 ZIC7        0.0000 
      5 Zn        -11.7080   22.7550   79.7930 Zn       14 ZIL7        0.0000 
      6 Zn        -13.4910   22.6220   79.1730 Zn        9 ZIP7        0.0000 
      7 N         -10.8555   22.8630   78.6305 N.am      2 SEC2        0.0000 
      8 N         -11.7080   22.7550   79.7930 N.am     12 SEL2        0.0000 
      9 N         -10.0030   22.9710   77.4680 N.am      7 SEP2        0.0000 
     10 N         -10.0410   21.3435   82.9010 N.am      2 SEC2        0.0000 
     11 N         -10.4460   22.0080   81.8420 N.am     12 SEL2        0.0000 
     12 N          -9.6360   20.6790   83.9600 N.am      7 SEP2        0.0000 
     13 Zn        -12.0215   25.0930   81.4735 Zn        4 ZIC7        0.0000 
     14 Zn        -11.7040   24.2140   81.8110 Zn       14 ZIL7        0.0000 
     15 Zn        -12.3390   25.9720   81.1360 Zn        9 ZIP7        0.0000 
     16 NZ         -9.6705   24.1670   77.9210 N.4       3 LYC4        0.0000 
     17 NZ         -9.3380   25.3630   78.3740 N.4      13 LYL4        0.0000 
     18 N          -9.6705   24.1670   77.9210 N.am      2 SEC2        0.0000 
     19 N          -9.3380   25.3630   78.3740 N.am     12 SEL2        0.0000 
     20 Zn        -11.4910   26.0945   80.7165 Zn        4 ZIC7        0.0000 
     21 Zn        -10.6430   26.2170   80.2970 Zn       14 ZIL7        0.0000 
     22 CA         -7.9630   24.1185   82.7325 C.3       5 GLC5        0.0000 
     23 CA         -7.9970   25.8790   81.9250 C.3      15 GLL5        0.0000 
     24 CA         -7.9290   22.3580   83.5400 C.3      10 GLP5        0.0000 
     25 CA         -5.3815   27.0795   83.2550 C.3       5 GLC5        0.0000 
     26 CA         -7.2100   27.1200   82.3370 C.3      15 GLL5        0.0000 
     27 CA         -3.5530   27.0390   84.1730 C.3      10 GLP5        0.0000 
     28 O          -9.9385   29.4780   82.4995 O.2       1 ALC1        0.0000 
     29 O          -8.9550   28.7330   82.9070 O.2      11 ALL1        0.0000 
     30 O         -10.9220   30.2230   82.0920 O.2       6 ALP1        0.0000 
     31 CA         -7.5220   30.7800   80.5180 C.3       5 GLC5        0.0000 
     32 CA         -6.7720   29.3740   81.9200 C.3      15 GLL5        0.0000 
     33 CA         -8.2720   32.1860   79.1160 C.3      10 GLP5        0.0000 
     34 CA         -4.6120   27.7880   82.7465 C.3       5 GLC5        0.0000 
     35 CA         -5.6710   28.5370   81.3200 C.3      15 GLL5        0.0000 
     36 CA         -5.2650   26.5430   80.4760 C.3       5 GLC5        0.0000 
     37 CA         -4.8590   24.5490   79.6320 C.3      10 GLP5        0.0000 
     38 CA         -3.0660   28.7945   76.0400 C.3       5 GLC5        0.0000 
     39 CA         -4.4990   29.9020   76.7940 C.3      15 GLL5        0.0000 
     40 CA         -1.6330   27.6870   75.2860 C.3      10 GLP5        0.0000 
     41 CA         -6.0450   29.8210   75.2305 C.3       5 GLC5        0.0000 
     42 CA         -7.5910   29.7400   73.6670 C.3      10 GLP5        0.0000 
     43 CA         -4.6780   32.0680   76.4485 C.3       5 GLC5        0.0000 
     44 CA         -4.8570   34.2340   76.1030 C.3      10 GLP5        0.0000 
     45 O          -4.3175   29.9890   74.2690 O.2       1 ALC1        0.0000 
     46 O          -4.7000   29.5860   75.4970 O.2      11 ALL1        0.0000 
     47 O          -3.9350   30.3920   73.0410 O.2       6 ALP1        0.0000 
     48 N          -3.2345   32.0230   76.1550 N.am      2 SEC2        0.0000 
     49 N          -3.6090   30.8630   77.1660 N.am     12 SEL2        0.0000 
     50 N          -2.8600   33.1830   75.1440 N.am      7 SEP2        0.0000 
     51 CA         -1.7820   30.0835   78.4650 C.3       5 GLC5        0.0000 
     52 CA         -3.3410   31.1410   78.4920 C.3      15 GLL5        0.0000 
     53 CA         -0.2230   29.0260   78.4380 C.3      10 GLP5        0.0000 
     54 CA         -4.0990   32.6875   77.2975 C.3       5 GLC5        0.0000 
     55 CA         -5.4170   31.3455   77.6925 C.3       5 GLC5        0.0000 
     56 CA         -7.4930   31.5500   76.8930 C.3      10 GLP5        0.0000 
     57 CA         -2.9305   29.1115   79.9615 C.3       5 GLC5        0.0000 
     58 CA         -4.8350   29.4670   79.1260 C.3      15 GLL5        0.0000 
     59 CA         -1.0260   28.7560   80.7970 C.3      10 GLP5        0.0000 
     60 CA         -6.2312   25.5242   80.8815 C.3       5 GLC5        0.0000 
     61 CA         -7.6435   30.7458   82.3517 C.3       5 GLC5        0.0000 
     62 CA         -7.9260   28.4110   81.9890 C.3      15 GLL5        0.0000 
     63 CA         -7.9380   32.5990   82.7490 C.3      10 GLP5        0.0000 
     64 CA         -4.0217   27.5590   78.4002 C.3       5 GLC5        0.0000 
     65 CA         -3.0630   25.7810   78.3440 C.3      10 GLP5        0.0000 
     66 CA         -6.1584   30.5304   77.5506 C.3       5 GLC5        0.0000 
     67 CA         -5.1260   29.2070   77.7870 C.3      15 GLL5        0.0000 
@<TRIPOS>BOND
@<TRIPOS>SUBSTRUCTURE
     1 ALC1       28 GROUP        1 X    ALC  0     ROOT ALC X 1
     2 SEC2        7 GROUP        1 X    SEC  0     **** SEC X 2
     3 LYC4        1 GROUP        1 X    LYC  0     **** LYC X 4
     4 ZIC7        4 GROUP        1 X    ZIC  0     **** ZIC X 5
     5 GLC5       22 GROUP        1 X    GLC  0     **** GLC X 6
     6 ALP1       30 GROUP        1 Y    ALP  0     ROOT ALP Y 8
     7 SEP2        9 GROUP        1 Y    SEP  0     **** SEP Y 9
     8 LYP4        3 GROUP        1 Y    LYP  0     **** LYP Y 11
     9 ZIP7        6 GROUP        1 Y    ZIP  0     **** ZIP Y 12
    10 GLP5       24 GROUP        1 Y    GLP  0     **** GLP Y 13
    11 ALL1       29 GROUP        1 Z    ALL  0     ROOT ALL Z 15
    12 SEL2        8 GROUP        1 Z    SEL  0     **** SEL Z 16
    13 LYL4        2 GROUP        1 Z    LYL  0     **** LYL Z 18
    14 ZIL7        5 GROUP        1 Z    ZIL  0     **** ZIL Z 19
    15 GLL5       23 GROUP        1 Z    GLL  0     **** GLL Z 20
@<TRIPOS>SET

