#    Name: 1mq4_ADP_1_ligand
#    Modification time : Tue Mar 25 12:01:30 2014

@<TRIPOS>MOLECULE
1mq4_ADP_1_ligand
   39    41     1     0     0
SMALL
NO_CHARGES


@<TRIPOS>ATOM
      1 PB        -10.9220   23.1770   81.0000 P.3       1 ADP2001     0.0000 
      2 O1B       -11.7080   22.7550   79.7930 O.co2     1 ADP2001     0.0000 
      3 O2B       -10.4460   22.0080   81.8420 O.co2     1 ADP2001     0.0000 
      4 O3B       -11.7040   24.2140   81.8110 O.co2     1 ADP2001     0.0000 
      5 PA         -9.4920   25.3550   79.8600 P.3       1 ADP2001     0.0000 
      6 O1A        -9.3380   25.3630   78.3740 O.co2     1 ADP2001     0.0000 
      7 O2A       -10.6430   26.2170   80.2970 O.co2     1 ADP2001     0.0000 
      8 O3A        -9.5680   23.8700   80.5080 O.3       1 ADP2001     0.0000 
      9 O5'        -8.1520   25.8750   80.5180 O.3       1 ADP2001     0.0000 
     10 C5'        -7.9970   25.8790   81.9250 C.3       1 ADP2001     0.0000 
     11 C4'        -7.2100   27.1200   82.3370 C.3       1 ADP2001     0.0000 
     12 O4'        -5.9560   27.1800   81.6670 O.3       1 ADP2001     0.0000 
     13 C3'        -7.9260   28.4110   81.9890 C.3       1 ADP2001     0.0000 
     14 O3'        -8.9550   28.7330   82.9070 O.3       1 ADP2001     0.0000 
     15 C2'        -6.7720   29.3740   81.9200 C.3       1 ADP2001     0.0000 
     16 O2'        -6.4060   29.7200   83.2390 O.3       1 ADP2001     0.0000 
     17 C1'        -5.6710   28.5370   81.3200 C.3       1 ADP2001     0.0000 
     18 N9         -5.6070   28.6410   79.8630 N.pl3     1 ADP2001     0.0000 
     19 C8         -6.3420   27.8780   78.9870 C.2       1 ADP2001     0.0000 
     20 N7         -6.0410   28.2350   77.7060 N.2       1 ADP2001     0.0000 
     21 C5         -5.1260   29.2070   77.7870 C.ar      1 ADP2001     0.0000 
     22 C6         -4.4990   29.9020   76.7940 C.ar      1 ADP2001     0.0000 
     23 N6         -4.7000   29.5860   75.4970 N.pl3     1 ADP2001     0.0000 
     24 N1         -3.6090   30.8630   77.1660 N.ar      1 ADP2001     0.0000 
     25 C2         -3.3410   31.1410   78.4920 C.ar      1 ADP2001     0.0000 
     26 N3         -3.9700   30.4320   79.4830 N.ar      1 ADP2001     0.0000 
     27 C4         -4.8350   29.4670   79.1260 C.ar      1 ADP2001     0.0000 
     28 H          -7.4457   25.0024   82.2819 H         1 ADP2001     0.0000 
     29 H          -8.9599   25.9082   82.4461 H         1 ADP2001     0.0000 
     30 H          -7.0624   27.1021   83.4099 H         1 ADP2001     0.0000 
     31 H          -8.2899   28.2802   80.9670 H         1 ADP2001     0.0000 
     32 H          -7.0004   30.1642   81.3003 H         1 ADP2001     0.0000 
     33 H          -4.7347   28.8378   81.7611 H         1 ADP2001     0.0000 
     34 H          -6.9736   27.1949   79.2458 H         1 ADP2001     0.0000 
     35 H          -5.3708   28.8662   75.3184 H         1 ADP2001     0.0000 
     36 H          -4.1602   30.0998   74.8301 H         1 ADP2001     0.0000 
     37 H          -2.6652   31.8848   78.7330 H         1 ADP2001     0.0000 
     38 H          -9.5994   29.2937   82.3871 H         1 ADP2001     0.0000 
     39 H          -7.2523   29.6549   83.7678 H         1 ADP2001     0.0000 
@<TRIPOS>BOND
     1    2    1 ar   
     2    3    1 ar   
     3    4    1 ar   
     4    8    1 1    
     5    6    5 ar   
     6    7    5 ar   
     7    8    5 1    
     8    9    5 1    
     9   10    9 1    
    10   11   10 1    
    11   28   10 1    
    12   29   10 1    
    13   12   11 1    
    14   13   11 1    
    15   30   11 1    
    16   17   12 1    
    17   14   13 1    
    18   15   13 1    
    19   31   13 1    
    20   38   14 1    
    21   16   15 1    
    22   17   15 1    
    23   32   15 1    
    24   39   16 1    
    25   18   17 1    
    26   33   17 1    
    27   19   18 1    
    28   27   18 1    
    29   20   19 2    
    30   34   19 1    
    31   21   20 1    
    32   22   21 ar   
    33   27   21 ar   
    34   23   22 1    
    35   24   22 ar   
    36   35   23 1    
    37   36   23 1    
    38   25   24 ar   
    39   26   25 ar   
    40   37   25 1    
    41   27   26 ar   
@<TRIPOS>SUBSTRUCTURE
     1 ADP2001     1 GROUP   
@<TRIPOS>SET

