#    Name: 3g90_J72_1_INTS_M
#    Modification time : Tue Mar 25 07:23:13 2014

@<TRIPOS>MOLECULE
3g90_J72_1_INTS_M
   54     0     9     0     0
SMALL
NO_CHARGES


@<TRIPOS>ATOM
      1 O          16.5040    7.4530   34.3090 O.2       1 ALC1        0.0000 
      2 O          17.5090    8.2080   33.6570 O.2       7 ALL1        0.0000 
      3 O          15.4990    6.6980   34.9610 O.2       4 ALP1        0.0000 
      4 N          18.3720    4.3325   31.9590 N.am      2 SEC2        0.0000 
      5 N          19.2880    5.1520   31.1940 N.am      8 SEL2        0.0000 
      6 N          17.4560    3.5130   32.7240 N.am      5 SEP2        0.0000 
      7 CA         21.9200    6.3925   27.8065 C.3       3 GLC5        0.0000 
      8 CA         21.7540    5.9940   29.9990 C.3       9 GLL5        0.0000 
      9 CA         22.0860    6.7910   25.6140 C.3       6 GLP5        0.0000 
     10 CA         20.3565    7.0150   29.1905 C.3       3 GLC5        0.0000 
     11 CA         18.9590    8.0360   28.3820 C.3       6 GLP5        0.0000 
     12 CA         25.1315    4.6070   33.5705 C.3       3 GLC5        0.0000 
     13 CA         24.4620    3.5030   32.1870 C.3       9 GLL5        0.0000 
     14 CA         25.8010    5.7110   34.9540 C.3       6 GLP5        0.0000 
     15 CA         25.7200    6.7895   31.9905 C.3       3 GLC5        0.0000 
     16 CA         25.8790    6.5990   29.8420 C.3       9 GLL5        0.0000 
     17 CA         25.5610    6.9800   34.1390 C.3       6 GLP5        0.0000 
     18 CA         22.1645   12.5040   33.9085 C.3       3 GLC5        0.0000 
     19 CA         21.1610   11.8420   32.9320 C.3       9 GLL5        0.0000 
     20 CA         23.1680   13.1660   34.8850 C.3       6 GLP5        0.0000 
     21 CA         19.4565   11.8255   34.2325 C.3       3 GLC5        0.0000 
     22 CA         17.7520   11.8090   35.5330 C.3       6 GLP5        0.0000 
     23 CA         19.6465    8.9655   34.6460 C.3       3 GLC5        0.0000 
     24 CA         20.0930    9.7450   32.6990 C.3       9 GLL5        0.0000 
     25 CA         19.2000    8.1860   36.5930 C.3       6 GLP5        0.0000 
     26 CA         18.9225   10.7770   34.1160 C.3       3 GLC5        0.0000 
     27 CA         22.9086    5.5593   33.1254 C.3       3 GLC5        0.0000 
     28 CA         22.6890    5.1150   30.7820 C.3       9 GLL5        0.0000 
     29 CA         23.0450    7.1100   34.4390 C.3       6 GLP5        0.0000 
     30 CA         21.3930    3.9323   33.9035 C.3       3 GLC5        0.0000 
     31 CA         22.2080    4.1770   31.6910 C.3       9 GLL5        0.0000 
     32 CA         20.1460    4.7500   35.1560 C.3       6 GLP5        0.0000 
     33 CA         21.5630    2.0827   31.3125 C.3       3 GLC5        0.0000 
     34 CA         22.6280    2.4550   33.2630 C.3       9 GLL5        0.0000 
     35 CA         20.4860    1.0510   29.9740 C.3       6 GLP5        0.0000 
     36 CA         25.2141    5.9293   32.5090 C.3       3 GLC5        0.0000 
     37 CA         24.9380    4.4370   31.2860 C.3       9 GLL5        0.0000 
     38 CA         22.5989    4.2462   29.1169 C.3       3 GLC5        0.0000 
     39 CA         24.0570    5.2470   30.5790 C.3       9 GLL5        0.0000 
     40 CA         22.0620    3.4360   27.4240 C.3       6 GLP5        0.0000 
     41 CA         22.3485    7.8007   32.8095 C.3       3 GLC5        0.0000 
     42 CA         21.1260    8.0530   31.3200 C.3       9 GLL5        0.0000 
     43 CA         22.3585    8.7560   33.2185 C.3       3 GLC5        0.0000 
     44 CA         22.1940   10.2020   31.5840 C.3       9 GLL5        0.0000 
     45 CA         20.0983   11.4240   30.9980 C.3       3 GLC5        0.0000 
     46 CA         21.1500   10.6020   32.4120 C.3       9 GLL5        0.0000 
     47 CA         18.7800   11.7260   29.5310 C.3       6 GLP5        0.0000 
     48 CA         21.5655    8.1055   33.4333 C.3       3 GLC5        0.0000 
     49 CA         21.6062   10.5787   34.1358 C.3       3 GLC5        0.0000 
     50 CA         22.3300   11.0840   35.9230 C.3       6 GLP5        0.0000 
     51 CA         18.4900    9.9285   31.6322 C.3       3 GLC5        0.0000 
     52 CA         16.8940   10.7560   30.8370 C.3       6 GLP5        0.0000 
     53 CA         19.9123    8.2551   30.0250 C.3       3 GLC5        0.0000 
     54 CA         20.0790    8.4570   32.1560 C.3       9 GLL5        0.0000 
@<TRIPOS>BOND
@<TRIPOS>SUBSTRUCTURE
     1 ALC1        1 GROUP        1 X    ALC  0     ROOT ALC X 1
     2 SEC2        4 GROUP        1 X    SEC  0     **** SEC X 2
     3 GLC5        7 GROUP        1 X    GLC  0     **** GLC X 6
     4 ALP1        3 GROUP        1 Y    ALP  0     ROOT ALP Y 8
     5 SEP2        6 GROUP        1 Y    SEP  0     **** SEP Y 9
     6 GLP5        9 GROUP        1 Y    GLP  0     **** GLP Y 13
     7 ALL1        2 GROUP        1 Z    ALL  0     ROOT ALL Z 15
     8 SEL2        5 GROUP        1 Z    SEL  0     **** SEL Z 16
     9 GLL5        8 GROUP        1 Z    GLL  0     **** GLL Z 20
@<TRIPOS>SET

