#    Name: 3g90_J72_1_ligand
#    Modification time : Tue Mar 25 07:23:13 2014

@<TRIPOS>MOLECULE
3g90_J72_1_ligand
   37    40     1     0     0
SMALL
NO_CHARGES


@<TRIPOS>ATOM
      1 O1         17.5090    8.2080   33.6570 O.3       1 J721        0.0000 
      2 N2         18.0150    7.1540   32.8760 N.2       1 J721        0.0000 
      3 C3         19.1420    7.2980   32.2410 C.2       1 J721        0.0000 
      4 C4         19.7520    6.2560   31.3970 C.2       1 J721        0.0000 
      5 O5         19.2880    5.1520   31.1940 O.2       1 J721        0.0000 
      6 N6         20.8890    6.7470   30.8990 N.am      1 J721        0.0000 
      7 C7         21.7540    5.9940   29.9990 C.3       1 J721        0.0000 
      8 C8         22.6890    5.1150   30.7820 C.ar      1 J721        0.0000 
      9 C9         22.2080    4.1770   31.6910 C.ar      1 J721        0.0000 
     10 C10        23.0960    3.3710   32.3870 C.ar      1 J721        0.0000 
     11 F11        22.6280    2.4550   33.2630 F         1 J721        0.0000 
     12 C12        24.4620    3.5030   32.1870 C.ar      1 J721        0.0000 
     13 C13        24.9380    4.4370   31.2860 C.ar      1 J721        0.0000 
     14 C14        26.4170    4.5830   31.0720 C.3       1 J721        0.0000 
     15 O15        26.6690    5.4070   29.9220 O.3       1 J721        0.0000 
     16 C16        25.8790    6.5990   29.8420 C.3       1 J721        0.0000 
     17 O17        24.5180    6.1770   29.6950 O.3       1 J721        0.0000 
     18 C18        24.0570    5.2470   30.5790 C.ar      1 J721        0.0000 
     19 C19        21.1260    8.0530   31.3200 C.ar      1 J721        0.0000 
     20 C20        22.1780    8.9300   31.0400 C.ar      1 J721        0.0000 
     21 C21        22.1940   10.2020   31.5840 C.ar      1 J721        0.0000 
     22 C22        21.1500   10.6020   32.4120 C.ar      1 J721        0.0000 
     23 F23        21.1610   11.8420   32.9320 F         1 J721        0.0000 
     24 C24        20.0930    9.7450   32.6990 C.ar      1 J721        0.0000 
     25 C25        20.0790    8.4570   32.1560 C.ar      1 J721        0.0000 
     26 H          22.3484    6.6746   29.3755 H         1 J721        0.0000 
     27 H          21.1569    5.3639   29.3269 H         1 J721        0.0000 
     28 H          21.1959    4.0838   31.8443 H         1 J721        0.0000 
     29 H          25.1180    2.9061   32.7091 H         1 J721        0.0000 
     30 H          26.8515    3.5819   30.9443 H         1 J721        0.0000 
     31 H          26.8588    5.0215   31.9775 H         1 J721        0.0000 
     32 H          26.1862    7.2050   28.9860 H         1 J721        0.0000 
     33 H          25.9979    7.1985   30.7480 H         1 J721        0.0000 
     34 H          22.9444    8.6207   30.4230 H         1 J721        0.0000 
     35 H          22.9652   10.8454   31.3813 H         1 J721        0.0000 
     36 H          19.3264   10.0532   33.3054 H         1 J721        0.0000 
     37 H          16.7800    7.7973   34.2047 H         1 J721        0.0000 
@<TRIPOS>BOND
     1    2    1 1    
     2   37    1 1    
     3    3    2 2    
     4    4    3 1    
     5   25    3 1    
     6    5    4 2    
     7    6    4 am   
     8    7    6 1    
     9   19    6 1    
    10    8    7 1    
    11   26    7 1    
    12   27    7 1    
    13    9    8 ar   
    14   18    8 ar   
    15   10    9 ar   
    16   28    9 1    
    17   11   10 1    
    18   12   10 ar   
    19   13   12 ar   
    20   29   12 1    
    21   14   13 1    
    22   18   13 ar   
    23   15   14 1    
    24   30   14 1    
    25   31   14 1    
    26   16   15 1    
    27   17   16 1    
    28   32   16 1    
    29   33   16 1    
    30   18   17 1    
    31   20   19 ar   
    32   25   19 ar   
    33   21   20 ar   
    34   34   20 1    
    35   22   21 ar   
    36   35   21 1    
    37   23   22 1    
    38   24   22 ar   
    39   25   24 ar   
    40   36   24 1    
@<TRIPOS>SUBSTRUCTURE
     1 J721        1 GROUP   
@<TRIPOS>SET

