#    Name: 1own_FAD_1_INTS_M
#    Modification time : Mon Mar 24 20:42:56 2014

@<TRIPOS>MOLECULE
1own_FAD_1_INTS_M
   97     0     9     0     0
SMALL
NO_CHARGES


@<TRIPOS>ATOM
      1 N          42.0195   28.6770   52.7590 N.am      2 SEC2        0.0000 
      2 N          42.7180   27.5990   52.0580 N.am      8 SEL2        0.0000 
      3 N          41.3210   29.7550   53.4600 N.am      5 SEP2        0.0000 
      4 N          41.5340   27.2490   52.7390 N.am      2 SEC2        0.0000 
      5 N          40.3500   26.8990   53.4200 N.am      5 SEP2        0.0000 
      6 N          42.0150   27.5095   50.7530 N.am      2 SEC2        0.0000 
      7 N          41.3120   27.4200   49.4480 N.am      5 SEP2        0.0000 
      8 N          45.4195   28.3885   50.0935 N.am      2 SEC2        0.0000 
      9 N          45.0890   27.8920   51.2420 N.am      8 SEL2        0.0000 
     10 N          45.7500   28.8850   48.9450 N.am      5 SEP2        0.0000 
     11 CA         41.2150   25.2610   50.4540 C.3       3 GLC5        0.0000 
     12 CA         42.9110   24.8220   51.0710 C.3       9 GLL5        0.0000 
     13 CA         39.5190   25.7000   49.8370 C.3       6 GLP5        0.0000 
     14 CA         44.1115   24.7975   49.1930 C.3       3 GLC5        0.0000 
     15 CA         45.3120   24.7730   47.3150 C.3       6 GLP5        0.0000 
     16 CA         43.3595   22.8400   54.7865 C.3       3 GLC5        0.0000 
     17 CA         43.9630   23.2300   52.7290 C.3       9 GLL5        0.0000 
     18 CA         42.7560   22.4500   56.8440 C.3       6 GLP5        0.0000 
     19 CA         44.2410   20.0375   51.6120 C.3       3 GLC5        0.0000 
     20 CA         44.7900   21.9490   52.5880 C.3       9 GLL5        0.0000 
     21 CA         43.6920   18.1260   50.6360 C.3       6 GLP5        0.0000 
     22 CA         45.3885   20.2210   50.0525 C.3       3 GLC5        0.0000 
     23 CA         45.2210   22.0200   51.1170 C.3       9 GLL5        0.0000 
     24 CA         45.5560   18.4220   48.9880 C.3       6 GLP5        0.0000 
     25 CA         49.6355   21.5830   48.1765 C.3       3 GLC5        0.0000 
     26 CA         50.0230   22.1340   50.2600 C.3       9 GLL5        0.0000 
     27 CA         49.2480   21.0320   46.0930 C.3       6 GLP5        0.0000 
     28 CA         48.0330   19.0035   49.6620 C.3       3 GLC5        0.0000 
     29 CA         49.1290   20.0020   50.8580 C.3       9 GLL5        0.0000 
     30 CA         46.9370   18.0050   48.4660 C.3       6 GLP5        0.0000 
     31 CA         49.4955   18.9890   52.4800 C.3       3 GLC5        0.0000 
     32 CA         49.8620   17.9760   54.1020 C.3       6 GLP5        0.0000 
     33 CA         46.6405   20.1100   49.8930 C.3       3 GLC5        0.0000 
     34 CA         47.7250   21.7980   50.7980 C.3       9 GLL5        0.0000 
     35 O          47.8380   19.0075   58.4265 O.2       1 ALC1        0.0000 
     36 O          48.7200   19.5350   57.4120 O.2       7 ALL1        0.0000 
     37 O          46.9560   18.4800   59.4410 O.2       4 ALP1        0.0000 
     38 N          49.7755   17.7315   59.0070 N.am      2 SEC2        0.0000 
     39 N          50.5060   18.9240   58.6680 N.am      8 SEL2        0.0000 
     40 N          49.0450   16.5390   59.3460 N.am      5 SEP2        0.0000 
     41 N          51.1335   22.0605   57.8785 N.am      2 SEC2        0.0000 
     42 N          52.1390   20.8290   57.3370 N.am      8 SEL2        0.0000 
     43 N          50.1280   23.2920   58.4200 N.am      5 SEP2        0.0000 
     44 N          53.1745   19.9390   58.2595 N.am      2 SEC2        0.0000 
     45 N          54.2100   19.0490   59.1820 N.am      5 SEP2        0.0000 
     46 CA         58.3070   23.3890   56.5985 C.3       3 GLC5        0.0000 
     47 CA         56.6850   22.5070   56.3880 C.3       9 GLL5        0.0000 
     48 CA         59.9290   24.2710   56.8090 C.3       6 GLP5        0.0000 
     49 CA         55.9435   22.9865   58.1225 C.3       3 GLC5        0.0000 
     50 CA         55.2020   23.4660   59.8570 C.3       6 GLP5        0.0000 
     51 CA         57.6540   21.6525   57.8045 C.3       3 GLC5        0.0000 
     52 CA         58.6230   20.7980   59.2210 C.3       6 GLP5        0.0000 
     53 CA         55.9355   25.6790   53.1440 C.3       3 GLC5        0.0000 
     54 CA         55.5980   24.0850   54.1110 C.3       9 GLL5        0.0000 
     55 CA         56.2730   27.2730   52.1770 C.3       6 GLP5        0.0000 
     56 CA         50.3345   25.8890   53.8385 C.3       3 GLC5        0.0000 
     57 CA         49.7800   23.9930   54.2090 C.3       9 GLL5        0.0000 
     58 CA         50.8890   27.7850   53.4680 C.3       6 GLP5        0.0000 
     59 CA         50.9875   24.5595   55.9770 C.3       3 GLC5        0.0000 
     60 CA         52.1950   25.1260   57.7450 C.3       6 GLP5        0.0000 
     61 N          51.4170   25.3535   53.9070 N.am      2 SEC2        0.0000 
     62 N          50.6680   24.9130   54.8280 N.am      8 SEL2        0.0000 
     63 N          52.1660   25.7940   52.9860 N.am      5 SEP2        0.0000 
     64 CA         49.2805   26.5745   54.2350 C.3       3 GLC5        0.0000 
     65 CA         47.6720   25.3640   55.0020 C.3       9 GLL5        0.0000 
     66 CA         45.1960   24.1045   56.2710 C.3       3 GLC5        0.0000 
     67 CA         46.2200   25.2380   55.4050 C.3       9 GLL5        0.0000 
     68 CA         44.1720   22.9710   57.1370 C.3       6 GLP5        0.0000 
     69 CA         46.0890   27.0080   56.6785 C.3       3 GLC5        0.0000 
     70 CA         45.9580   28.7780   57.9520 C.3       6 GLP5        0.0000 
     71 N          42.5505   24.5770   55.9205 N.am      2 SEC2        0.0000 
     72 N          43.2690   25.5910   55.1540 N.am      8 SEL2        0.0000 
     73 N          41.8320   23.5630   56.6870 N.am      5 SEP2        0.0000 
     74 N          44.0410   29.3840   55.0900 N.am      2 SEC2        0.0000 
     75 N          43.7290   28.0670   55.0980 N.am      8 SEL2        0.0000 
     76 N          44.3530   30.7010   55.0820 N.am      5 SEP2        0.0000 
     77 N          42.4630   28.1980   55.5040 N.am      2 SEC2        0.0000 
     78 N          41.1970   28.3290   55.9100 N.am      5 SEP2        0.0000 
     79 CA         42.1633   22.9817   49.7420 C.3       3 GLC5        0.0000 
     80 CA         41.2220   21.8700   48.2720 C.3       6 GLP5        0.0000 
     81 CA         42.4291   21.8386   52.5508 C.3       3 GLC5        0.0000 
     82 CA         43.2980   23.3650   51.3530 C.3       9 GLL5        0.0000 
     83 CA         40.6480   21.0540   52.7870 C.3       6 GLP5        0.0000 
     84 CA         52.9277   23.3420   57.1895 C.3       3 GLC5        0.0000 
     85 CA         52.9820   21.5250   56.4720 C.3       9 GLL5        0.0000 
     86 CA         53.5753   19.5890   56.6450 C.3       3 GLC5        0.0000 
     87 CA         53.4900   17.6200   56.6560 C.3       6 GLP5        0.0000 
     88 CA         55.1855   24.3150   56.6715 C.3       3 GLC5        0.0000 
     89 CA         55.1710   22.5010   56.1200 C.3       9 GLL5        0.0000 
     90 CA         54.4430   26.1260   57.0890 C.3       6 GLP5        0.0000 
     91 CA         55.9935   21.2387   54.8925 C.3       3 GLC5        0.0000 
     92 CA         56.2670   20.2010   53.3620 C.3       6 GLP5        0.0000 
     93 CA         54.7843   24.8925   55.8155 C.3       3 GLC5        0.0000 
     94 CA         54.6530   23.2330   54.9730 C.3       9 GLL5        0.0000 
     95 CA         52.5460   23.8798   56.3435 C.3       3 GLC5        0.0000 
     96 CA         53.3290   23.0750   54.5820 C.3       9 GLL5        0.0000 
     97 CA         55.2471   21.7840   53.9620 C.3       3 GLC5        0.0000 
@<TRIPOS>BOND
@<TRIPOS>SUBSTRUCTURE
     1 ALC1       35 GROUP        1 X    ALC  0     ROOT ALC X 1
     2 SEC2        1 GROUP        1 X    SEC  0     **** SEC X 2
     3 GLC5       11 GROUP        1 X    GLC  0     **** GLC X 6
     4 ALP1       37 GROUP        1 Y    ALP  0     ROOT ALP Y 8
     5 SEP2        3 GROUP        1 Y    SEP  0     **** SEP Y 9
     6 GLP5       13 GROUP        1 Y    GLP  0     **** GLP Y 13
     7 ALL1       36 GROUP        1 Z    ALL  0     ROOT ALL Z 15
     8 SEL2        2 GROUP        1 Z    SEL  0     **** SEL Z 16
     9 GLL5       12 GROUP        1 Z    GLL  0     **** GLL Z 20
@<TRIPOS>SET

