#    Name: 1own_FAD_1_ligand
#    Modification time : Mon Mar 24 20:42:56 2014

@<TRIPOS>MOLECULE
1own_FAD_1_ligand
   84    89     1     0     0
SMALL
NO_CHARGES


@<TRIPOS>ATOM
      1 PA         44.0860   27.0650   51.8860 P.3       1 FAD485      0.0000 
      2 O1A        42.7180   27.5990   52.0580 O.co2     1 FAD485      0.0000 
      3 O2A        45.0890   27.8920   51.2420 O.co2     1 FAD485      0.0000 
      4 O5B        44.0630   25.7040   51.0380 O.3       1 FAD485      0.0000 
      5 C5B        42.9110   24.8220   51.0710 C.3       1 FAD485      0.0000 
      6 C4B        43.2980   23.3650   51.3530 C.3       1 FAD485      0.0000 
      7 O4B        44.2820   22.8830   50.4160 O.3       1 FAD485      0.0000 
      8 C3B        43.9630   23.2300   52.7290 C.3       1 FAD485      0.0000 
      9 O3B        43.0360   23.2470   53.8420 O.3       1 FAD485      0.0000 
     10 C2B        44.7900   21.9490   52.5880 C.3       1 FAD485      0.0000 
     11 O2B        43.9880   20.8010   52.7830 O.3       1 FAD485      0.0000 
     12 C1B        45.2210   22.0200   51.1170 C.3       1 FAD485      0.0000 
     13 N9A        46.5940   22.5600   50.9710 N.pl3     1 FAD485      0.0000 
     14 C8A        47.0210   23.8680   50.8340 C.2       1 FAD485      0.0000 
     15 N7A        48.3140   23.9790   50.6970 N.2       1 FAD485      0.0000 
     16 C5A        48.7270   22.6990   50.4260 C.ar      1 FAD485      0.0000 
     17 C6A        50.0230   22.1340   50.2600 C.ar      1 FAD485      0.0000 
     18 N6A        51.0990   22.9090   50.1550 N.pl3     1 FAD485      0.0000 
     19 N1A        50.2010   20.7860   50.5630 N.ar      1 FAD485      0.0000 
     20 C2A        49.1290   20.0020   50.8580 C.ar      1 FAD485      0.0000 
     21 N3A        47.8460   20.4130   50.9720 N.ar      1 FAD485      0.0000 
     22 C4A        47.7250   21.7980   50.7980 C.ar      1 FAD485      0.0000 
     23 N1         48.9270   20.9290   55.5320 N.2       1 FAD485      0.0000 
     24 C2         48.0750   20.1950   56.3450 C.2       1 FAD485      0.0000 
     25 O2         46.9890   19.8650   55.9540 O.2       1 FAD485      0.0000 
     26 N3         48.7200   19.5350   57.4120 N.am      1 FAD485      0.0000 
     27 C4         50.0710   19.6540   57.7780 C.2       1 FAD485      0.0000 
     28 O4         50.5060   18.9240   58.6680 O.2       1 FAD485      0.0000 
     29 C4X        50.8380   20.5300   56.8970 C.2       1 FAD485      0.0000 
     30 N5         52.1390   20.8290   57.3370 N.2       1 FAD485      0.0000 
     31 C5X        52.9820   21.5250   56.4720 C.ar      1 FAD485      0.0000 
     32 C6         54.3390   21.5910   56.7960 C.ar      1 FAD485      0.0000 
     33 C7         55.1710   22.5010   56.1200 C.ar      1 FAD485      0.0000 
     34 C7M        56.6850   22.5070   56.3880 C.3       1 FAD485      0.0000 
     35 C8         54.6530   23.2330   54.9730 C.ar      1 FAD485      0.0000 
     36 C8M        55.5980   24.0850   54.1110 C.3       1 FAD485      0.0000 
     37 C9         53.3290   23.0750   54.5820 C.ar      1 FAD485      0.0000 
     38 C9A        52.4650   22.1920   55.3020 C.ar      1 FAD485      0.0000 
     39 N10        51.0470   22.0990   54.9850 N.pl3     1 FAD485      0.0000 
     40 C10        50.2680   21.2090   55.7620 C.2       1 FAD485      0.0000 
     41 C1'        50.4740   22.6500   53.8470 C.3       1 FAD485      0.0000 
     42 C2'        49.7800   23.9930   54.2090 C.3       1 FAD485      0.0000 
     43 O2'        50.6680   24.9130   54.8280 O.3       1 FAD485      0.0000 
     44 C3'        48.3140   23.9960   54.6920 C.3       1 FAD485      0.0000 
     45 O3'        47.4340   22.9970   54.1680 O.3       1 FAD485      0.0000 
     46 C4'        47.6720   25.3640   55.0020 C.3       1 FAD485      0.0000 
     47 O4'        48.4110   26.1630   55.9330 O.3       1 FAD485      0.0000 
     48 C5'        46.2200   25.2380   55.4050 C.3       1 FAD485      0.0000 
     49 O5'        45.5800   26.5130   55.5830 O.3       1 FAD485      0.0000 
     50 P          44.2040   26.7080   54.8240 P.3       1 FAD485      0.0000 
     51 O1P        43.2690   25.5910   55.1540 O.co2     1 FAD485      0.0000 
     52 O2P        43.7290   28.0670   55.0980 O.co2     1 FAD485      0.0000 
     53 O3P        44.7160   26.5510   53.2970 O.3       1 FAD485      0.0000 
     54 H          42.3675   24.8452   50.1105 H         1 FAD485      0.0000 
     55 H          42.1947   25.1360   51.8499 H         1 FAD485      0.0000 
     56 H          42.4260   22.7505   51.3465 H         1 FAD485      0.0000 
     57 H          44.6890   24.0543   52.7904 H         1 FAD485      0.0000 
     58 H          45.6363   22.0191   53.1867 H         1 FAD485      0.0000 
     59 H          45.1727   21.0218   50.7094 H         1 FAD485      0.0000 
     60 H          46.3696   24.6273   50.8442 H         1 FAD485      0.0000 
     61 H          51.9744   22.4356   50.0576 H         1 FAD485      0.0000 
     62 H          50.9354   23.8951   50.1829 H         1 FAD485      0.0000 
     63 H          49.3254   18.9489   51.0160 H         1 FAD485      0.0000 
     64 H          48.1161   18.8765   58.0019 H         1 FAD485      0.0000 
     65 H          54.7289   20.9835   57.5192 H         1 FAD485      0.0000 
     66 H          52.9535   23.5851   53.7773 H         1 FAD485      0.0000 
     67 H          49.7007   22.0106   53.3994 H         1 FAD485      0.0000 
     68 H          51.2073   22.8801   53.0618 H         1 FAD485      0.0000 
     69 H          49.6567   24.4749   53.0808 H         1 FAD485      0.0000 
     70 H          48.4836   23.5891   55.8631 H         1 FAD485      0.0000 
     71 H          47.6570   25.9133   54.0053 H         1 FAD485      0.0000 
     72 H          46.1746   24.6385   56.3369 H         1 FAD485      0.0000 
     73 H          45.7006   24.6390   54.6295 H         1 FAD485      0.0000 
     74 H          57.1047   21.6265   56.1675 H         1 FAD485      0.0000 
     75 H          57.1559   23.2008   55.8431 H         1 FAD485      0.0000 
     76 H          56.8915   22.6980   57.3476 H         1 FAD485      0.0000 
     77 H          56.0357   24.8089   54.6442 H         1 FAD485      0.0000 
     78 H          56.3293   23.5353   53.7072 H         1 FAD485      0.0000 
     79 H          55.1140   24.5285   53.3566 H         1 FAD485      0.0000 
     80 H          43.1877   24.1273   54.2916 H         1 FAD485      0.0000 
     81 H          43.1822   21.1291   53.2760 H         1 FAD485      0.0000 
     82 H          50.0786   25.5324   55.3466 H         1 FAD485      0.0000 
     83 H          47.8024   22.1283   54.4991 H         1 FAD485      0.0000 
     84 H          48.2542   27.1076   55.6447 H         1 FAD485      0.0000 
@<TRIPOS>BOND
     1    2    1 ar   
     2    3    1 ar   
     3    4    1 1    
     4   53    1 1    
     5    5    4 1    
     6    6    5 1    
     7   54    5 1    
     8   55    5 1    
     9    7    6 1    
    10    8    6 1    
    11   56    6 1    
    12   12    7 1    
    13    9    8 1    
    14   10    8 1    
    15   57    8 1    
    16   80    9 1    
    17   11   10 1    
    18   12   10 1    
    19   58   10 1    
    20   81   11 1    
    21   13   12 1    
    22   59   12 1    
    23   14   13 1    
    24   22   13 1    
    25   15   14 2    
    26   60   14 1    
    27   16   15 1    
    28   17   16 ar   
    29   22   16 ar   
    30   18   17 1    
    31   19   17 ar   
    32   61   18 1    
    33   62   18 1    
    34   20   19 ar   
    35   21   20 ar   
    36   63   20 1    
    37   22   21 ar   
    38   24   23 1    
    39   40   23 2    
    40   25   24 2    
    41   26   24 am   
    42   27   26 am   
    43   64   26 1    
    44   28   27 2    
    45   29   27 1    
    46   30   29 2    
    47   40   29 1    
    48   31   30 1    
    49   32   31 ar   
    50   38   31 ar   
    51   33   32 ar   
    52   65   32 1    
    53   34   33 1    
    54   35   33 ar   
    55   74   34 1    
    56   75   34 1    
    57   76   34 1    
    58   36   35 1    
    59   37   35 ar   
    60   77   36 1    
    61   78   36 1    
    62   79   36 1    
    63   38   37 ar   
    64   66   37 1    
    65   39   38 1    
    66   40   39 1    
    67   41   39 1    
    68   42   41 1    
    69   67   41 1    
    70   68   41 1    
    71   43   42 1    
    72   44   42 1    
    73   69   42 1    
    74   82   43 1    
    75   45   44 1    
    76   46   44 1    
    77   70   44 1    
    78   83   45 1    
    79   47   46 1    
    80   48   46 1    
    81   71   46 1    
    82   84   47 1    
    83   49   48 1    
    84   72   48 1    
    85   73   48 1    
    86   50   49 1    
    87   51   50 ar   
    88   52   50 ar   
    89   53   50 1    
@<TRIPOS>SUBSTRUCTURE
     1 FAD485      1 GROUP   
@<TRIPOS>SET

