#    Name: 2P94_1_CAVITY_N1_6.mol2
#    Modification time : Tue Mar 11 04:43:11 2014

@<TRIPOS>MOLECULE
2P94_1_CAVITY_N1_6.mol2
   60     0     5     0     0
SMALL
NO_CHARGES


@<TRIPOS>ATOM
      1 NZ          0.5630   43.7166   65.6166 N.2       3 LYS4        0.0000 
      2 N           0.9379   45.8035   65.5500 N.2       2 ALA2        0.0000 
      3 CA          1.7700   44.5844   65.8173 C.3       4 GLY6        0.0000 
      4 NZ          2.6020   43.3653   66.0847 N.2       3 LYS4        0.0000 
      5 N           0.4236   46.9188   63.8204 N.2       2 ALA2        0.0000 
      6 N           1.2557   45.6997   64.0877 N.2       2 ALA2        0.0000 
      7 N           2.0877   44.4806   64.3551 N.2       2 ALA2        0.0000 
      8 CA          2.9198   43.2615   64.6224 C.3       4 GLY6        0.0000 
      9 O           4.0696   41.9386   63.4274 O.2       2 ALA2        0.0000 
     10 N           2.1448   46.6712   65.7507 N.2       2 ALA2        0.0000 
     11 CA          2.9769   45.4521   66.0180 C.3       4 GLY6        0.0000 
     12 N           3.2947   45.3484   64.5558 N.2       2 ALA2        0.0000 
     13 CA          4.1267   44.1293   64.8231 C.3       4 GLY6        0.0000 
     14 N           3.6124   45.2446   63.0935 N.2       2 ALA2        0.0000 
     15 N           4.4445   44.0255   63.3608 N.2       2 ALA2        0.0000 
     16 N           5.2765   42.8064   63.6281 N.2       2 ALA2        0.0000 
     17 DU          4.7622   43.9217   61.8985 H         5 CUB7        0.0000 
     18 N           5.5943   42.7026   62.1658 N.2       2 ALA2        0.0000 
     19 N           4.5016   46.2161   64.7565 N.2       2 ALA2        0.0000 
     20 CA          5.3337   44.9970   65.0238 C.3       4 GLY6        0.0000 
     21 N           5.6514   44.8933   63.5615 N.2       2 ALA2        0.0000 
     22 N           6.4835   43.6741   63.8288 N.2       2 ALA2        0.0000 
     23 N           5.1371   46.0086   61.8319 N.2       2 ALA2        0.0000 
     24 DU          5.9692   44.7895   62.0992 H         5 CUB7        0.0000 
     25 N           6.8012   43.5704   62.3665 N.2       2 ALA2        0.0000 
     26 DU          6.2869   44.6857   60.6369 H         5 CUB7        0.0000 
     27 N           7.1190   43.4666   60.9043 N.2       2 ALA2        0.0000 
     28 O           6.5406   45.8648   65.2245 O.2       2 ALA2        0.0000 
     29 CA          7.3727   44.6457   65.4918 C.3       4 GLY6        0.0000 
     30 CA          6.8584   45.7610   63.7622 C.3       4 GLY6        0.0000 
     31 N           7.6904   44.5419   64.0295 N.2       2 ALA2        0.0000 
     32 N           8.5225   43.3228   64.2968 N.2       2 ALA2        0.0000 
     33 CA          7.1761   45.6573   62.2999 C.3       4 GLY6        0.0000 
     34 N           8.0082   44.4381   62.5672 N.2       2 ALA2        0.0000 
     35 CA          5.8298   47.9917   60.3030 C.3       4 GLY6        0.0000 
     36 CA          6.6618   46.7726   60.5703 C.3       4 GLY6        0.0000 
     37 DU          7.4939   45.5535   60.8376 H         5 CUB7        0.0000 
     38 CA          8.3259   44.3344   61.1050 C.3       4 GLY6        0.0000 
     39 CA          8.5796   45.5134   65.6925 C.3       4 GLY6        0.0000 
     40 N           9.4117   44.2943   65.9598 N.2       2 ALA2        0.0000 
     41 CA         10.2437   43.0752   66.2271 C.3       4 GLY6        0.0000 
     42 CA          8.0653   46.6288   63.9629 C.3       4 GLY6        0.0000 
     43 N           8.8974   45.4097   64.2302 N.2       2 ALA2        0.0000 
     44 O           9.7294   44.1906   64.4975 O.2       2 ALA2        0.0000 
     45 CA          7.5510   47.7441   62.2333 C.3       4 GLY6        0.0000 
     46 OG          8.3831   46.5250   62.5006 O.2       1 SER1        0.0000 
     47 OG          9.2151   45.3059   62.7679 O.2       1 SER1        0.0000 
     48 O          10.0472   44.0868   63.0353 O.2       2 ALA2        0.0000 
     49 CA          7.0367   48.8595   60.5037 C.3       4 GLY6        0.0000 
     50 OG          7.8688   47.6404   60.7710 O.2       1 SER1        0.0000 
     51 OG          8.7008   46.4213   61.0383 O.2       1 SER1        0.0000 
     52 OG          9.5329   45.2021   61.3057 O.2       1 SER1        0.0000 
     53 O          10.6186   45.1621   66.1605 O.2       2 ALA2        0.0000 
     54 CA         11.4507   43.9430   66.4278 C.3       4 GLY6        0.0000 
     55 N          10.1043   46.2774   64.4309 N.2       2 ALA2        0.0000 
     56 CA         10.9364   45.0583   64.6982 C.3       4 GLY6        0.0000 
     57 N          11.7684   43.8392   64.9656 N.2       2 ALA2        0.0000 
     58 OG         10.4221   46.1737   62.9686 O.2       1 SER1        0.0000 
     59 CA         11.2541   44.9546   63.2360 C.3       4 GLY6        0.0000 
     60 CA         12.9754   44.7070   65.1663 C.3       4 GLY6        0.0000 
@<TRIPOS>BOND
@<TRIPOS>SUBSTRUCTURE
     1 SER1       46 GROUP   
     2 ALA2        2 GROUP   
     3 LYS4        1 GROUP   
     4 GLY6        3 GROUP   
     5 CUB7       17 GROUP   
@<TRIPOS>SET

