#    Name: 2p94_ME4_1_INTS_M
#    Modification time : Mon Mar 24 18:27:48 2014

@<TRIPOS>MOLECULE
2p94_ME4_1_INTS_M
   51     0     6     0     0
SMALL
NO_CHARGES


@<TRIPOS>ATOM
      1 CA          7.7760   46.9650   64.2565 C.3       2 GLC5        0.0000 
      2 CA          8.5780   44.9900   63.7740 C.3       6 GLL5        0.0000 
      3 CA          6.9740   48.9400   64.7390 C.3       4 GLP5        0.0000 
      4 CA         10.8295   36.6790   53.6950 C.3       2 GLC5        0.0000 
      5 CA          9.5820   36.6670   55.1570 C.3       6 GLL5        0.0000 
      6 CA         12.0770   36.6910   52.2330 C.3       4 GLP5        0.0000 
      7 CA          4.4435   42.3570   65.0090 C.3       2 GLC5        0.0000 
      8 CA          4.1060   43.4140   63.4150 C.3       6 GLL5        0.0000 
      9 CA          4.7810   41.3000   66.6030 C.3       4 GLP5        0.0000 
     10 CA          5.1555   46.6795   62.8295 C.3       2 GLC5        0.0000 
     11 CA          4.9920   44.4970   62.7440 C.3       6 GLL5        0.0000 
     12 CA          5.3190   48.8620   62.9150 C.3       4 GLP5        0.0000 
     13 O           8.5320   42.8030   66.8975 O.2       1 ALC1        0.0000 
     14 O          10.1210   43.3340   66.8970 O.2       5 ALL1        0.0000 
     15 O           6.9430   42.2720   66.8980 O.2       3 ALP1        0.0000 
     16 CA         13.3645   45.0425   66.9685 C.3       2 GLC5        0.0000 
     17 CA         13.9110   43.7010   65.7040 C.3       6 GLL5        0.0000 
     18 CA         12.8180   46.3840   68.2330 C.3       4 GLP5        0.0000 
     19 CA         14.0460   45.3540   64.8540 C.3       2 GLC5        0.0000 
     20 CA         14.1810   47.0070   64.0040 C.3       4 GLP5        0.0000 
     21 CA         13.8465   42.1030   66.4745 C.3       2 GLC5        0.0000 
     22 CA         13.7820   40.5050   67.2450 C.3       4 GLP5        0.0000 
     23 CA         15.5465   43.8700   66.5270 C.3       2 GLC5        0.0000 
     24 CA         17.1820   44.0390   67.3500 C.3       4 GLP5        0.0000 
     25 CA         12.6455   45.9580   63.8600 C.3       2 GLC5        0.0000 
     26 CA         11.1100   44.9090   63.7160 C.3       6 GLL5        0.0000 
     27 CA          9.1433   42.6675   64.2720 C.3       2 GLC5        0.0000 
     28 CA          9.7200   40.6800   64.1140 C.3       4 GLP5        0.0000 
     29 CA          8.9057   45.8005   66.6102 C.3       2 GLC5        0.0000 
     30 CA          8.5550   44.3200   65.0860 C.3       6 GLL5        0.0000 
     31 CA          8.6260   47.4680   67.8210 C.3       4 GLP5        0.0000 
     32 CA          7.7538   44.6730   66.6722 C.3       2 GLC5        0.0000 
     33 CA          6.3220   45.2130   67.9450 C.3       4 GLP5        0.0000 
     34 CA         12.9052   45.5048   64.7250 C.3       2 GLC5        0.0000 
     35 CA         12.1640   43.7570   65.8800 C.3       6 GLL5        0.0000 
     36 CA         10.7703   42.0858   65.2730 C.3       2 GLC5        0.0000 
     37 CA         12.8012   41.9982   66.8385 C.3       2 GLC5        0.0000 
     38 CA         11.4770   43.2260   66.9840 C.3       6 GLL5        0.0000 
     39 CA         12.1856   44.9991   67.2240 C.3       2 GLC5        0.0000 
     40 CA         11.0469   43.7464   62.5832 C.3       2 GLC5        0.0000 
     41 CA         11.6180   42.5590   61.4430 C.3       4 GLP5        0.0000 
     42 CA         11.1305   38.5100   55.5628 C.3       2 GLC5        0.0000 
     43 CA          9.7660   37.7170   57.4690 C.3       6 GLL5        0.0000 
     44 CA         12.4650   40.0450   55.0740 C.3       4 GLP5        0.0000 
     45 CA          9.8975   35.3920   57.2377 C.3       2 GLC5        0.0000 
     46 CA         10.2540   36.8490   56.4230 C.3       6 GLL5        0.0000 
     47 CA          9.9990   33.8090   58.4240 C.3       4 GLP5        0.0000 
     48 CA         10.2514   42.5915   64.3266 C.3       2 GLC5        0.0000 
     49 CA          9.4108   41.1953   59.5354 C.3       2 GLC5        0.0000 
     50 CA          7.9090   41.9780   58.4080 C.3       6 GLL5        0.0000 
     51 CA         11.0950   41.8030   60.1850 C.3       4 GLP5        0.0000 
@<TRIPOS>BOND
@<TRIPOS>SUBSTRUCTURE
     1 ALC1       13 GROUP        1 X    ALC  0     ROOT ALC X 1
     2 GLC5        1 GROUP        1 X    GLC  0     **** GLC X 6
     3 ALP1       15 GROUP        1 Y    ALP  0     ROOT ALP Y 8
     4 GLP5        3 GROUP        1 Y    GLP  0     **** GLP Y 13
     5 ALL1       14 GROUP        1 Z    ALL  0     ROOT ALL Z 15
     6 GLL5        2 GROUP        1 Z    GLL  0     **** GLL Z 20
@<TRIPOS>SET

