#    Name: 2p94_ME4_1_ligand
#    Modification time : Mon Mar 24 18:27:49 2014

@<TRIPOS>MOLECULE
2p94_ME4_1_ligand
   60    64     1     0     0
SMALL
NO_CHARGES


@<TRIPOS>ATOM
      1 C1          5.0040   44.3070   61.2040 C.3       1 ME41        0.0000 
      2 C2          3.5610   44.4010   60.6550 C.3       1 ME41        0.0000 
      3 C3          2.6880   43.3340   61.3240 C.3       1 ME41        0.0000 
      4 C8          7.2990   45.3360   63.1160 C.2       1 ME41        0.0000 
      5 C10         8.5780   44.9900   63.7740 C.ar      1 ME41        0.0000 
      6 C11         8.5550   44.3200   65.0860 C.ar      1 ME41        0.0000 
      7 C12         9.8160   43.9460   65.7130 C.ar      1 ME41        0.0000 
      8 C13        11.0950   44.2480   65.0120 C.ar      1 ME41        0.0000 
      9 C14        12.1640   43.7570   65.8800 C.2       1 ME41        0.0000 
     10 C15        11.4770   43.2260   66.9840 C.2       1 ME41        0.0000 
     11 C19         9.8490   45.2890   63.0830 C.ar      1 ME41        0.0000 
     12 C21         6.8450   42.8410   60.4850 C.2       1 ME41        0.0000 
     13 C24         7.0580   40.3190   60.1750 C.ar      1 ME41        0.0000 
     14 C27         8.3940   40.8680   57.6030 C.ar      1 ME41        0.0000 
     15 N29         8.6060   38.4370   57.1860 N.am      1 ME41        0.0000 
     16 C30         9.7660   37.7170   57.4690 C.2       1 ME41        0.0000 
     17 C31        10.2540   36.8490   56.4230 C.2       1 ME41        0.0000 
     18 C32         9.5820   36.6670   55.1570 C.2       1 ME41        0.0000 
     19 C33         8.3750   37.3750   54.8640 C.2       1 ME41        0.0000 
     20 C34         7.8890   38.3300   55.9120 C.2       1 ME41        0.0000 
     21 C4          2.6890   43.4780   62.8460 C.3       1 ME41        0.0000 
     22 C5          4.1060   43.4140   63.4150 C.3       1 ME41        0.0000 
     23 C6          4.9920   44.4970   62.7440 C.3       1 ME41        0.0000 
     24 N7          6.3130   44.4410   63.3590 N.am      1 ME41        0.0000 
     25 O9          7.1390   46.3310   62.4020 O.2       1 ME41        0.0000 
     26 N16        10.1210   43.3340   66.8970 N.pl3     1 ME41        0.0000 
     27 CL17       13.9110   43.7010   65.7040 Cl        1 ME41        0.0000 
     28 C18        11.1100   44.9090   63.7160 C.ar      1 ME41        0.0000 
     29 N20         5.5280   43.0020   60.7570 N.am      1 ME41        0.0000 
     30 O22         7.7040   43.6260   60.8810 O.2       1 ME41        0.0000 
     31 C23         7.2460   41.6840   59.6790 C.ar      1 ME41        0.0000 
     32 C25         7.5430   39.1990   59.3710 C.ar      1 ME41        0.0000 
     33 C26         8.2100   39.4760   58.0710 C.ar      1 ME41        0.0000 
     34 C28         7.9090   41.9780   58.4080 C.ar      1 ME41        0.0000 
     35 O35         6.9110   39.0360   55.6500 O.2       1 ME41        0.0000 
     36 H           5.5640   45.1109   60.7554 H         1 ME41        0.0000 
     37 H           3.5794   44.2364   59.5871 H         1 ME41        0.0000 
     38 H           3.1646   45.3823   60.8735 H         1 ME41        0.0000 
     39 H           3.0648   42.3451   61.0562 H         1 ME41        0.0000 
     40 H           1.6650   43.4269   60.9548 H         1 ME41        0.0000 
     41 H           7.6848   44.1283   65.5328 H         1 ME41        0.0000 
     42 H          11.9544   42.8145   67.7467 H         1 ME41        0.0000 
     43 H           9.8390   45.7440   62.1972 H         1 ME41        0.0000 
     44 H           6.6055   40.1574   61.0487 H         1 ME41        0.0000 
     45 H           8.8554   41.0345   56.7276 H         1 ME41        0.0000 
     46 H          10.2481   37.7809   58.3352 H         1 ME41        0.0000 
     47 H          11.1346   36.3279   56.5894 H         1 ME41        0.0000 
     48 H           9.9769   36.0271   54.4715 H         1 ME41        0.0000 
     49 H           7.8692   37.2651   54.0336 H         1 ME41        0.0000 
     50 H           2.0905   42.6761   63.2824 H         1 ME41        0.0000 
     51 H           2.2367   44.4342   63.1160 H         1 ME41        0.0000 
     52 H           4.5354   42.4409   63.2172 H         1 ME41        0.0000 
     53 H           4.0801   43.5965   64.4810 H         1 ME41        0.0000 
     54 H           4.5178   45.4574   62.9595 H         1 ME41        0.0000 
     55 H           6.4673   43.6410   64.0254 H         1 ME41        0.0000 
     56 H           9.4886   43.0337   67.5513 H         1 ME41        0.0000 
     57 H          11.9806   45.1042   63.2568 H         1 ME41        0.0000 
     58 H           4.8445   42.2409   60.6676 H         1 ME41        0.0000 
     59 H           7.4339   38.2602   59.6791 H         1 ME41        0.0000 
     60 H           8.0236   42.9188   58.1045 H         1 ME41        0.0000 
@<TRIPOS>BOND
     1    2    1 1    
     2   23    1 1    
     3   29    1 1    
     4   36    1 1    
     5    3    2 1    
     6   37    2 1    
     7   38    2 1    
     8   21    3 1    
     9   39    3 1    
    10   40    3 1    
    11    5    4 1    
    12   24    4 am   
    13   25    4 2    
    14    6    5 ar   
    15   11    5 ar   
    16    7    6 ar   
    17   41    6 1    
    18    8    7 ar   
    19   26    7 1    
    20    9    8 1    
    21   28    8 ar   
    22   10    9 2    
    23   27    9 1    
    24   26   10 1    
    25   42   10 1    
    26   28   11 ar   
    27   43   11 1    
    28   29   12 am   
    29   30   12 2    
    30   31   12 1    
    31   31   13 ar   
    32   32   13 ar   
    33   44   13 1    
    34   33   14 ar   
    35   34   14 ar   
    36   45   14 1    
    37   16   15 1    
    38   20   15 am   
    39   33   15 1    
    40   17   16 2    
    41   46   16 1    
    42   18   17 1    
    43   47   17 1    
    44   19   18 2    
    45   48   18 1    
    46   20   19 1    
    47   49   19 1    
    48   35   20 2    
    49   22   21 1    
    50   50   21 1    
    51   51   21 1    
    52   23   22 1    
    53   52   22 1    
    54   53   22 1    
    55   24   23 1    
    56   54   23 1    
    57   55   24 1    
    58   56   26 1    
    59   57   28 1    
    60   58   29 1    
    61   34   31 ar   
    62   33   32 ar   
    63   59   32 1    
    64   60   34 1    
@<TRIPOS>SUBSTRUCTURE
     1 ME41        1 GROUP   
@<TRIPOS>SET

