#    Name: 4jr5_1LS_1_INTS_M
#    Modification time : Tue Mar 25 06:14:19 2014

@<TRIPOS>MOLECULE
4jr5_1LS_1_INTS_M
   64     0     6     0     0
SMALL
NO_CHARGES


@<TRIPOS>ATOM
      1 CA         13.9190    8.7435    8.1875 C.3       2 GLC5        0.0000 
      2 CA         14.9700   10.2990    7.9430 C.3       6 GLL5        0.0000 
      3 CA         12.8680    7.1880    8.4320 C.3       4 GLP5        0.0000 
      4 CA         13.6690    9.6885    4.0225 C.3       2 GLC5        0.0000 
      5 CA         14.8020   11.2430    3.7750 C.3       6 GLL5        0.0000 
      6 CA         12.5360    8.1340    4.2700 C.3       4 GLP5        0.0000 
      7 CA         15.8830   11.8320    2.3410 C.3       2 GLC5        0.0000 
      8 CA         16.9640   12.4210    0.9070 C.3       4 GLP5        0.0000 
      9 CA         16.1390   12.3400    4.1140 C.3       2 GLC5        0.0000 
     10 CA         17.4760   13.4370    4.4530 C.3       4 GLP5        0.0000 
     11 CA         14.6300    7.3615   -5.3640 C.3       2 GLC5        0.0000 
     12 CA         14.8360    5.5510   -5.0670 C.3       6 GLL5        0.0000 
     13 CA         14.4240    9.1720   -5.6610 C.3       4 GLP5        0.0000 
     14 CA         18.2225    5.3890   -4.4415 C.3       2 GLC5        0.0000 
     15 CA         16.8770    4.2330   -5.5700 C.3       6 GLL5        0.0000 
     16 CA         19.5680    6.5450   -3.3130 C.3       4 GLP5        0.0000 
     17 CA         17.9835    5.6570   -6.4910 C.3       2 GLC5        0.0000 
     18 CA         19.0900    7.0810   -7.4120 C.3       4 GLP5        0.0000 
     19 CA         15.0750    8.1505    7.9785 C.3       2 GLC5        0.0000 
     20 CA         16.0140    9.8760    7.1360 C.3       6 GLL5        0.0000 
     21 CA         14.1360    6.4250    8.8210 C.3       4 GLP5        0.0000 
     22 CA         17.7995   10.2850    8.1495 C.3       2 GLC5        0.0000 
     23 CA         19.5850   10.6940    9.1630 C.3       4 GLP5        0.0000 
     24 CA         17.7190   11.1175    4.7505 C.3       2 GLC5        0.0000 
     25 CA         15.9770   10.1690    5.7720 C.3       6 GLL5        0.0000 
     26 CA         19.4610   12.0660    3.7290 C.3       4 GLP5        0.0000 
     27 O          16.8365    9.7400    2.7220 O.2       1 ALC1        0.0000 
     28 O          15.5170   10.2440    2.9760 O.2       5 ALL1        0.0000 
     29 O          18.1560    9.2360    2.4680 O.2       3 ALP1        0.0000 
     30 CA         12.0285   11.3715    1.8395 C.3       2 GLC5        0.0000 
     31 CA         13.3160   10.0560    1.4720 C.3       6 GLL5        0.0000 
     32 CA         10.7410   12.6870    2.2070 C.3       4 GLP5        0.0000 
     33 CA         11.7745    9.7675    0.3875 C.3       2 GLC5        0.0000 
     34 CA         10.2330    9.4790   -0.6970 C.3       4 GLP5        0.0000 
     35 O          16.8820    8.9615    1.8685 O.2       1 ALC1        0.0000 
     36 O          15.6080    8.6870    1.2690 O.2       5 ALL1        0.0000 
     37 CA         14.2830    8.3375   -3.7990 C.3       2 GLC5        0.0000 
     38 CA         14.1420    7.5030   -1.9370 C.3       6 GLL5        0.0000 
     39 CA         16.8785    6.4155   -6.4605 C.3       2 GLC5        0.0000 
     40 CA         15.5780    4.7780   -6.1550 C.3       6 GLL5        0.0000 
     41 CA         18.1790    8.0530   -6.7660 C.3       4 GLP5        0.0000 
     42 CA         13.0275    7.4492    0.1200 C.3       2 GLC5        0.0000 
     43 CA         14.6590    8.3860   -0.9950 C.3       6 GLL5        0.0000 
     44 CA         11.1850    6.7500    0.6210 C.3       4 GLP5        0.0000 
     45 CA         16.0545    7.4203   -1.8860 C.3       2 GLC5        0.0000 
     46 CA         18.0170    8.0120   -1.9730 C.3       4 GLP5        0.0000 
     47 CA         12.6385    6.7893   -0.5890 C.3       2 GLC5        0.0000 
     48 CA         14.9558    5.1215    1.5895 C.3       2 GLC5        0.0000 
     49 CA         14.4700    5.6770   -0.4380 C.3       6 GLL5        0.0000 
     50 CA         15.1850    4.1300    3.1480 C.3       4 GLP5        0.0000 
     51 CA         16.4718    7.6804   -0.9567 C.3       2 GLC5        0.0000 
     52 CA         14.9830    6.5490    0.5000 C.3       6 GLL5        0.0000 
     53 CA         12.9558    6.4315    0.3260 C.3       2 GLC5        0.0000 
     54 CA         15.5648    1.4923   -3.3508 C.3       2 GLC5        0.0000 
     55 CA         15.7220    3.7890   -3.3820 C.3       6 GLL5        0.0000 
     56 CA         15.0100   -0.4900   -2.7390 C.3       4 GLP5        0.0000 
     57 CA         17.3443    8.5732    6.5405 C.3       2 GLC5        0.0000 
     58 CA         18.6930    7.1240    6.6270 C.3       4 GLP5        0.0000 
     59 CA         13.3253    8.9880    2.9865 C.3       2 GLC5        0.0000 
     60 CA         14.9130    9.6280    1.9340 C.3       6 GLL5        0.0000 
     61 CA         15.5392   11.1315    1.3050 C.3       2 GLC5        0.0000 
     62 CA         14.1937   10.7670   -0.0315 C.3       2 GLC5        0.0000 
     63 CA         14.2730   11.6920   -1.7660 C.3       4 GLP5        0.0000 
     64 CA         14.3895    9.7589   -1.4625 C.3       2 GLC5        0.0000 
@<TRIPOS>BOND
@<TRIPOS>SUBSTRUCTURE
     1 ALC1       27 GROUP        1 X    ALC  0     ROOT ALC X 1
     2 GLC5        1 GROUP        1 X    GLC  0     **** GLC X 6
     3 ALP1       29 GROUP        1 Y    ALP  0     ROOT ALP Y 8
     4 GLP5        3 GROUP        1 Y    GLP  0     **** GLP Y 13
     5 ALL1       28 GROUP        1 Z    ALL  0     ROOT ALL Z 15
     6 GLL5        2 GROUP        1 Z    GLL  0     **** GLL Z 20
@<TRIPOS>SET

