#    Name: 4jr5_1LS_1_ligand
#    Modification time : Tue Mar 25 06:14:19 2014

@<TRIPOS>MOLECULE
4jr5_1LS_1_ligand
   48    50     1     0     0
SMALL
NO_CHARGES


@<TRIPOS>ATOM
      1 C4         13.8910   11.2630    6.1310 C.ar      1 1LS601      0.0000 
      2 C6         14.9700   10.2990    7.9430 C.ar      1 1LS601      0.0000 
      3 C7         14.8020   11.2430    3.7750 C.3       1 1LS601      0.0000 
      4 C13        14.6590    8.3860   -0.9950 C.ar      1 1LS601      0.0000 
      5 C15        14.0420    6.1540   -1.6610 C.ar      1 1LS601      0.0000 
      6 C17        14.9830    6.5490    0.5000 C.ar      1 1LS601      0.0000 
      7 C22        14.8360    5.5510   -5.0670 C.3       1 1LS601      0.0000 
      8 C24        16.8770    4.2330   -5.5700 C.3       1 1LS601      0.0000 
      9 C26        15.7220    3.7890   -3.3820 C.3       1 1LS601      0.0000 
     10 C1         16.0140    9.8760    7.1360 C.ar      1 1LS601      0.0000 
     11 C2         15.9770   10.1690    5.7720 C.ar      1 1LS601      0.0000 
     12 C3         14.8940   10.8840    5.2570 C.ar      1 1LS601      0.0000 
     13 N5         13.9510   10.9700    7.4210 N.ar      1 1LS601      0.0000 
     14 N8         15.5170   10.2440    2.9760 N.am      1 1LS601      0.0000 
     15 C9         14.9130    9.6280    1.9340 C.2       1 1LS601      0.0000 
     16 S10        13.3160   10.0560    1.4720 S.2       1 1LS601      0.0000 
     17 N11        15.6080    8.6870    1.2690 N.am      1 1LS601      0.0000 
     18 C12        15.0810    7.9110    0.2330 C.ar      1 1LS601      0.0000 
     19 C14        14.1420    7.5030   -1.9370 C.ar      1 1LS601      0.0000 
     20 C16        14.4700    5.6770   -0.4380 C.ar      1 1LS601      0.0000 
     21 S18        13.3910    5.0250   -2.8600 S.o2      1 1LS601      0.0000 
     22 O19        13.1260    3.8060   -2.1760 O.2       1 1LS601      0.0000 
     23 O20        12.3920    5.7340   -3.5640 O.2       1 1LS601      0.0000 
     24 N21        14.7030    4.7650   -3.8290 N.pl3     1 1LS601      0.0000 
     25 C23        15.5780    4.7780   -6.1550 C.3       1 1LS601      0.0000 
     26 C25        16.5170    3.1600   -4.5430 C.3       1 1LS601      0.0000 
     27 H          13.0741   11.7943    5.7374 H         1 1LS601      0.0000 
     28 H          15.0097   10.0765    8.9599 H         1 1LS601      0.0000 
     29 H          15.2345   12.2356    3.6341 H         1 1LS601      0.0000 
     30 H          13.7473   11.2821    3.4954 H         1 1LS601      0.0000 
     31 H          14.7256    9.3882   -1.2146 H         1 1LS601      0.0000 
     32 H          15.3015    6.1892    1.4186 H         1 1LS601      0.0000 
     33 H          15.3839    6.4844   -4.8726 H         1 1LS601      0.0000 
     34 H          13.8449    5.8272   -5.4552 H         1 1LS601      0.0000 
     35 H          17.4161    5.0286   -5.0840 H         1 1LS601      0.0000 
     36 H          17.4704    3.7945   -6.3544 H         1 1LS601      0.0000 
     37 H          15.2460    2.9708   -2.8143 H         1 1LS601      0.0000 
     38 H          16.4428    4.2726   -2.7001 H         1 1LS601      0.0000 
     39 H          16.8011    9.3571    7.5292 H         1 1LS601      0.0000 
     40 H          16.7333    9.8640    5.1573 H         1 1LS601      0.0000 
     41 H          16.4884   10.0429    3.2502 H         1 1LS601      0.0000 
     42 H          16.6221    8.5068    1.5321 H         1 1LS601      0.0000 
     43 H          13.8296    7.8661   -2.8550 H         1 1LS601      0.0000 
     44 H          14.4061    4.6696   -0.2263 H         1 1LS601      0.0000 
     45 H          15.8032    5.4414   -6.9774 H         1 1LS601      0.0000 
     46 H          14.9635    3.9573   -6.4956 H         1 1LS601      0.0000 
     47 H          17.4236    2.7153   -4.1502 H         1 1LS601      0.0000 
     48 H          15.9097    2.3964   -5.0141 H         1 1LS601      0.0000 
@<TRIPOS>BOND
     1   12    1 ar   
     2   13    1 ar   
     3   27    1 1    
     4   10    2 ar   
     5   13    2 ar   
     6   28    2 1    
     7   12    3 1    
     8   14    3 1    
     9   29    3 1    
    10   30    3 1    
    11   18    4 ar   
    12   19    4 ar   
    13   31    4 1    
    14   19    5 ar   
    15   20    5 ar   
    16   21    5 1    
    17   18    6 ar   
    18   20    6 ar   
    19   32    6 1    
    20   24    7 1    
    21   25    7 1    
    22   33    7 1    
    23   34    7 1    
    24   25    8 1    
    25   26    8 1    
    26   35    8 1    
    27   36    8 1    
    28   24    9 1    
    29   26    9 1    
    30   37    9 1    
    31   38    9 1    
    32   11   10 ar   
    33   39   10 1    
    34   12   11 ar   
    35   40   11 1    
    36   15   14 am   
    37   41   14 1    
    38   16   15 2    
    39   17   15 am   
    40   18   17 1    
    41   42   17 1    
    42   43   19 1    
    43   44   20 1    
    44   22   21 2    
    45   23   21 2    
    46   24   21 1    
    47   45   25 1    
    48   46   25 1    
    49   47   26 1    
    50   48   26 1    
@<TRIPOS>SUBSTRUCTURE
     1 1LS601      1 GROUP   
@<TRIPOS>SET

