#    Name: 2qd9_LGF_1_INTS_M
#    Modification time : Mon Mar 24 21:47:28 2014

@<TRIPOS>MOLECULE
2qd9_LGF_1_INTS_M
   87     0     6     0     0
SMALL
NO_CHARGES


@<TRIPOS>ATOM
      1 CA         -3.6135   -2.9785   25.2535 C.3       2 GLC5        0.0000 
      2 CA         -1.9510   -1.8190   25.9190 C.3       6 GLL5        0.0000 
      3 CA         -5.2760   -4.1380   24.5880 C.3       4 GLP5        0.0000 
      4 CA          0.9695   -2.3020   26.4660 C.3       2 GLC5        0.0000 
      5 CA          0.1860   -0.9190   24.9690 C.3       6 GLL5        0.0000 
      6 CA          1.7530   -3.6850   27.9630 C.3       4 GLP5        0.0000 
      7 CA          1.1785   -1.9730   23.3305 C.3       2 GLC5        0.0000 
      8 CA          2.1710   -3.0270   21.6920 C.3       4 GLP5        0.0000 
      9 CA         -3.9845   -0.4745   28.1120 C.3       2 GLC5        0.0000 
     10 CA         -1.9240   -1.2560   28.5060 C.3       6 GLL5        0.0000 
     11 CA         -6.0450    0.3070   27.7180 C.3       4 GLP5        0.0000 
     12 CA         -6.3665   -0.1150   13.2270 C.3       2 GLC5        0.0000 
     13 CA         -5.7360    0.3790   14.9510 C.3       6 GLL5        0.0000 
     14 CA         -6.9970   -0.6090   11.5030 C.3       4 GLP5        0.0000 
     15 CA         -7.5085   -0.8705   15.2805 C.3       2 GLC5        0.0000 
     16 CA         -9.2810   -2.1200   15.6100 C.3       4 GLP5        0.0000 
     17 CA         -5.2850   -1.3855   15.4695 C.3       2 GLC5        0.0000 
     18 CA         -4.8340   -3.1500   15.9880 C.3       4 GLP5        0.0000 
     19 CA         -6.1730    0.9925   21.1745 C.3       2 GLC5        0.0000 
     20 CA         -5.7910    0.5110   19.5240 C.3       6 GLL5        0.0000 
     21 CA         -6.5550    1.4740   22.8250 C.3       4 GLP5        0.0000 
     22 CA         -6.1050   -0.9560   20.3825 C.3       2 GLC5        0.0000 
     23 CA         -6.4190   -2.4230   21.2410 C.3       4 GLP5        0.0000 
     24 CA         -7.9465    0.1680   19.5785 C.3       2 GLC5        0.0000 
     25 CA        -10.1020   -0.1750   19.6330 C.3       4 GLP5        0.0000 
     26 CA         -4.5115    2.6400   20.9585 C.3       2 GLC5        0.0000 
     27 CA         -3.2220    1.5840   19.7610 C.3       6 GLL5        0.0000 
     28 CA         -5.8010    3.6960   22.1560 C.3       4 GLP5        0.0000 
     29 CA         -2.6700    4.2985   21.5415 C.3       2 GLC5        0.0000 
     30 CA         -2.0610    2.3530   21.4570 C.3       6 GLL5        0.0000 
     31 CA         -3.2790    6.2440   21.6260 C.3       4 GLP5        0.0000 
     32 CA         -3.9310    3.0245   21.8065 C.3       2 GLC5        0.0000 
     33 CA         -0.0410    1.0000   21.6635 C.3       2 GLC5        0.0000 
     34 CA         -1.6440    0.2260   22.6970 C.3       6 GLL5        0.0000 
     35 CA          1.5620    1.7740   20.6300 C.3       4 GLP5        0.0000 
     36 CA         -1.0555   -2.4640   19.3280 C.3       2 GLC5        0.0000 
     37 CA         -2.0920   -1.7360   21.0890 C.3       6 GLL5        0.0000 
     38 CA         -0.0190   -3.1920   17.5670 C.3       4 GLP5        0.0000 
     39 CA          0.0395   -2.3815   21.3905 C.3       2 GLC5        0.0000 
     40 CA         -1.5575    0.3000   19.5435 C.3       2 GLC5        0.0000 
     41 CA         -3.2270   -0.9140   20.4330 C.3       6 GLL5        0.0000 
     42 CA          0.1120    1.5140   18.6540 C.3       4 GLP5        0.0000 
     43 N          -1.9605   -4.7275   23.0150 N.am      1 SEC2        0.0000 
     44 N          -1.7520   -3.3570   23.1670 N.am      5 SEL2        0.0000 
     45 N          -2.1690   -6.0980   22.8630 N.am      3 SEP2        0.0000 
     46 N          -1.4585   -4.3685   24.3020 N.am      1 SEC2        0.0000 
     47 N          -1.1650   -5.3800   25.4370 N.am      3 SEP2        0.0000 
     48 CA          3.3940   -0.0635   25.2470 C.3       2 GLC5        0.0000 
     49 CA          2.1800   -0.0500   23.9140 C.3       6 GLL5        0.0000 
     50 CA          4.6080   -0.0770   26.5800 C.3       4 GLP5        0.0000 
     51 CA          2.8000   -1.6240   23.2030 C.3       2 GLC5        0.0000 
     52 CA          3.4200   -3.1980   22.4920 C.3       4 GLP5        0.0000 
     53 CA          1.8710    0.8620   22.2720 C.3       2 GLC5        0.0000 
     54 CA         -6.1610   -1.6325   30.0540 C.3       2 GLC5        0.0000 
     55 CA         -5.4650   -2.3350   31.9840 C.3       6 GLL5        0.0000 
     56 CA         -6.8570   -0.9300   28.1240 C.3       4 GLP5        0.0000 
     57 CA         -6.4760    2.1942   17.5660 C.3       2 GLC5        0.0000 
     58 CA         -5.8630    0.5360   17.1740 C.3       6 GLL5        0.0000 
     59 CA         -7.4220    3.7150   18.5120 C.3       4 GLP5        0.0000 
     60 CA         -4.9605   -0.9242   16.9685 C.3       2 GLC5        0.0000 
     61 CA         -5.1970    0.8110   16.0660 C.3       6 GLL5        0.0000 
     62 CA         -4.3910   -2.5220   17.3170 C.3       4 GLP5        0.0000 
     63 CA         -1.5575   -3.4663   26.1018 C.3       2 GLC5        0.0000 
     64 CA         -1.1390   -1.6720   24.8540 C.3       6 GLL5        0.0000 
     65 CA         -1.5700   -5.1870   26.8170 C.3       4 GLP5        0.0000 
     66 CA         -2.4117   -0.0545   16.0455 C.3       2 GLC5        0.0000 
     67 CA         -3.1990    1.7070   17.1910 C.3       6 GLL5        0.0000 
     68 CA         -1.2740   -1.6600   15.4620 C.3       4 GLP5        0.0000 
     69 CA         -1.6085   -3.2237   27.3180 C.3       2 GLC5        0.0000 
     70 CA         -1.3700   -1.2650   27.1320 C.3       6 GLL5        0.0000 
     71 CA         -6.4470    2.2030   18.7290 C.3       2 GLC5        0.0000 
     72 CA         -4.9315   -0.9155   18.1315 C.3       2 GLC5        0.0000 
     73 CA         -5.1530    0.8710   18.3680 C.3       6 GLL5        0.0000 
     74 CA         -6.9455    1.4261   14.9058 C.3       2 GLC5        0.0000 
     75 CA         -8.2580    2.3260   14.0260 C.3       4 GLP5        0.0000 
     76 CA         -4.3601    1.6785   14.0174 C.3       2 GLC5        0.0000 
     77 CA         -4.0370    2.3620   12.2470 C.3       4 GLP5        0.0000 
     78 CA         -4.2269    3.3342   17.4090 C.3       2 GLC5        0.0000 
     79 CA         -4.7410    5.2130   17.2910 C.3       4 GLP5        0.0000 
     80 CA         -4.0519   -0.5332   17.4220 C.3       2 GLC5        0.0000 
     81 CA         -3.8760    1.3600   18.4250 C.3       6 GLL5        0.0000 
     82 CA         -1.6339    1.5364   18.7193 C.3       2 GLC5        0.0000 
     83 CA         -1.0092    1.6040   20.0940 C.3       2 GLC5        0.0000 
     84 CA         -4.5392   -1.8740   21.0010 C.3       2 GLC5        0.0000 
     85 CA         -3.5253   -1.9235   19.0390 C.3       2 GLC5        0.0000 
     86 CA          0.3077   -2.3091   27.9820 C.3       2 GLC5        0.0000 
     87 CA         -0.2310   -0.6320   27.1240 C.3       6 GLL5        0.0000 
@<TRIPOS>BOND
@<TRIPOS>SUBSTRUCTURE
     1 SEC2       43 GROUP        1 X    SEC  0     ROOT SEC X 2
     2 GLC5        1 GROUP        1 X    GLC  0     **** GLC X 6
     3 SEP2       45 GROUP        1 Y    SEP  0     ROOT SEP Y 9
     4 GLP5        3 GROUP        1 Y    GLP  0     **** GLP Y 13
     5 SEL2       44 GROUP        1 Z    SEL  0     ROOT SEL Z 16
     6 GLL5        2 GROUP        1 Z    GLL  0     **** GLL Z 20
@<TRIPOS>SET

