#    Name: 2qd9_LGF_1_ligand
#    Modification time : Mon Mar 24 21:47:28 2014

@<TRIPOS>MOLECULE
2qd9_LGF_1_ligand
   65    70     1     0     0
SMALL
NO_CHARGES


@<TRIPOS>ATOM
      1 C13        -5.1970    0.8110   16.0660 C.ar      1 LGF361      0.0000 
      2 C18        -1.1390   -1.6720   24.8540 C.ar      1 LGF361      0.0000 
      3 C16        -1.6310   -2.2060   23.4880 C.2       1 LGF361      0.0000 
      4 C15        -3.1990    1.7070   17.1910 C.ar      1 LGF361      0.0000 
      5 C19        -1.9510   -1.8190   25.9190 C.ar      1 LGF361      0.0000 
      6 C21         0.1860   -0.9190   24.9690 C.ar      1 LGF361      0.0000 
      7 C22        -0.2310   -0.6320   27.1240 C.ar      1 LGF361      0.0000 
      8 C23        -1.3700   -1.2650   27.1320 C.ar      1 LGF361      0.0000 
      9 C24        -1.9240   -1.2560   28.5060 C.2       1 LGF361      0.0000 
     10 C11        -5.1530    0.8710   18.3680 C.ar      1 LGF361      0.0000 
     11 C12        -5.8630    0.5360   17.1740 C.ar      1 LGF361      0.0000 
     12 C27        -3.1870   -1.8730   29.0110 C.2       1 LGF361      0.0000 
     13 F33        -5.7360    0.3790   14.9510 F         1 LGF361      0.0000 
     14 C14        -3.9000    1.3950   16.0670 C.ar      1 LGF361      0.0000 
     15 F32        -5.7910    0.5110   19.5240 F         1 LGF361      0.0000 
     16 C10        -3.8760    1.3600   18.4250 C.ar      1 LGF361      0.0000 
     17 C9         -3.2220    1.5840   19.7610 C.2       1 LGF361      0.0000 
     18 N8         -2.7010    2.6700   20.2160 N.pl3     1 LGF361      0.0000 
     19 N5         -2.8910    0.5150   20.6160 N.pl3     1 LGF361      0.0000 
     20 C6         -2.2000    1.0350   21.6110 C.2       1 LGF361      0.0000 
     21 C7         -2.0610    2.3530   21.4570 C.2       1 LGF361      0.0000 
     22 C4         -1.6440    0.2260   22.6970 C.3       1 LGF361      0.0000 
     23 N3         -1.9080   -1.1750   22.4590 N.am      1 LGF361      0.0000 
     24 C2         -2.0920   -1.7360   21.0890 C.3       1 LGF361      0.0000 
     25 C1         -3.2270   -0.9140   20.4330 C.3       1 LGF361      0.0000 
     26 O17        -1.7520   -3.3570   23.1670 O.2       1 LGF361      0.0000 
     27 N26         0.0150   -0.2090   28.3880 N.pl3     1 LGF361      0.0000 
     28 C25        -1.0250   -0.5800   29.2420 C.2       1 LGF361      0.0000 
     29 N20         0.5780   -0.4660   26.0620 N.ar      1 LGF361      0.0000 
     30 O34         0.9070   -0.7750   23.8330 O.3       1 LGF361      0.0000 
     31 C35         2.1800   -0.0500   23.9140 C.3       1 LGF361      0.0000 
     32 O28        -3.8580   -2.6410   28.3010 O.2       1 LGF361      0.0000 
     33 C29        -3.6340   -1.6020   30.4450 C.2       1 LGF361      0.0000 
     34 O31        -3.4460   -0.4910   30.9570 O.2       1 LGF361      0.0000 
     35 N30        -4.2140   -2.5750   31.2580 N.am      1 LGF361      0.0000 
     36 C36        -3.6840   -3.8920   31.4860 C.3       1 LGF361      0.0000 
     37 C37        -5.0400   -4.5980   31.4630 C.3       1 LGF361      0.0000 
     38 O40        -5.5640   -4.6960   30.1400 O.3       1 LGF361      0.0000 
     39 C38        -5.8970   -3.7630   32.4010 C.3       1 LGF361      0.0000 
     40 C39        -5.4650   -2.3350   31.9840 C.3       1 LGF361      0.0000 
     41 H          -2.3119    2.1294   17.2121 H         1 LGF361      0.0000 
     42 H          -2.8286   -2.2360   25.9341 H         1 LGF361      0.0000 
     43 H          -6.7686    0.1365   17.2303 H         1 LGF361      0.0000 
     44 H          -3.4727    1.5905   15.1178 H         1 LGF361      0.0000 
     45 H          -2.6949    3.5593   19.8592 H         1 LGF361      0.0000 
     46 H          -1.6448    2.9865   22.0075 H         1 LGF361      0.0000 
     47 H          -2.0875    0.5410   23.6556 H         1 LGF361      0.0000 
     48 H          -0.5586    0.4033   22.7703 H         1 LGF361      0.0000 
     49 H          -2.3961   -2.7630   21.1347 H         1 LGF361      0.0000 
     50 H          -1.2013   -1.6161   20.5046 H         1 LGF361      0.0000 
     51 H          -3.2713   -1.1711   19.3881 H         1 LGF361      0.0000 
     52 H          -4.1524   -1.1608   20.9255 H         1 LGF361      0.0000 
     53 H           0.7975    0.2840   28.6809 H         1 LGF361      0.0000 
     54 H          -1.0621   -0.3769   30.1699 H         1 LGF361      0.0000 
     55 H          -3.2686   -3.9965   32.4349 H         1 LGF361      0.0000 
     56 H          -3.1137   -4.2369   30.6861 H         1 LGF361      0.0000 
     57 H          -4.8952   -5.5633   31.9300 H         1 LGF361      0.0000 
     58 H          -5.6208   -3.9310   33.3964 H         1 LGF361      0.0000 
     59 H          -6.9123   -3.8944   32.1838 H         1 LGF361      0.0000 
     60 H          -6.2154   -1.9296   31.3522 H         1 LGF361      0.0000 
     61 H          -5.3062   -1.7632   32.8640 H         1 LGF361      0.0000 
     62 H           2.8203   -0.4928   24.5417 H         1 LGF361      0.0000 
     63 H           2.6330    0.0056   23.0242 H         1 LGF361      0.0000 
     64 H           2.0534    0.8877   24.2376 H         1 LGF361      0.0000 
     65 H          -5.0145   -4.0614   29.5965 H         1 LGF361      0.0000 
@<TRIPOS>BOND
     1   11    1 ar   
     2   13    1 1    
     3   14    1 ar   
     4    3    2 1    
     5    5    2 ar   
     6    6    2 ar   
     7   23    3 am   
     8   26    3 2    
     9   14    4 ar   
    10   16    4 ar   
    11   41    4 1    
    12    8    5 ar   
    13   42    5 1    
    14   29    6 ar   
    15   30    6 1    
    16    8    7 ar   
    17   27    7 1    
    18   29    7 ar   
    19    9    8 1    
    20   12    9 1    
    21   28    9 2    
    22   11   10 ar   
    23   15   10 1    
    24   16   10 ar   
    25   43   11 1    
    26   32   12 2    
    27   33   12 1    
    28   44   14 1    
    29   17   16 1    
    30   18   17 2    
    31   19   17 1    
    32   21   18 1    
    33   45   18 1    
    34   20   19 1    
    35   25   19 1    
    36   21   20 2    
    37   22   20 1    
    38   46   21 1    
    39   23   22 1    
    40   47   22 1    
    41   48   22 1    
    42   24   23 1    
    43   25   24 1    
    44   49   24 1    
    45   50   24 1    
    46   51   25 1    
    47   52   25 1    
    48   28   27 1    
    49   53   27 1    
    50   54   28 1    
    51   31   30 1    
    52   62   31 1    
    53   63   31 1    
    54   64   31 1    
    55   34   33 2    
    56   35   33 am   
    57   36   35 1    
    58   40   35 1    
    59   37   36 1    
    60   55   36 1    
    61   56   36 1    
    62   38   37 1    
    63   39   37 1    
    64   57   37 1    
    65   65   38 1    
    66   40   39 1    
    67   58   39 1    
    68   59   39 1    
    69   60   40 1    
    70   61   40 1    
@<TRIPOS>SUBSTRUCTURE
     1 LGF361      1 GROUP   
@<TRIPOS>SET

