#    Name: 1zaf_789_2_INTS_M
#    Modification time : Mon Apr  7 16:57:27 2014

@<TRIPOS>MOLECULE
1zaf_789_2_INTS_M
   67     0     9     0     0
SMALL
NO_CHARGES


@<TRIPOS>ATOM
      1 CA         30.5365   30.0900   11.6370 C.3       3 GLC5        0.0000 
      2 CA         29.4500   28.4700   11.2690 C.3       9 GLL5        0.0000 
      3 CA         31.6230   31.7100   12.0050 C.3       6 GLP5        0.0000 
      4 CA         30.5150   30.3865    9.9460 C.3       3 GLC5        0.0000 
      5 CA         28.8610   29.3680   10.3020 C.3       9 GLL5        0.0000 
      6 CA         32.1690   31.4050    9.5900 C.3       6 GLP5        0.0000 
      7 CA         26.1210   26.5675   13.2315 C.3       3 GLC5        0.0000 
      8 CA         27.2640   27.3650   11.6500 C.3       9 GLL5        0.0000 
      9 CA         24.9780   25.7700   14.8130 C.3       6 GLP5        0.0000 
     10 CA         24.9320   30.8970   10.7100 C.3       3 GLC5        0.0000 
     11 CA         25.1870   29.3490    9.2890 C.3       9 GLL5        0.0000 
     12 CA         24.6770   32.4450   12.1310 C.3       6 GLP5        0.0000 
     13 CA         23.6760   31.1790   10.6610 C.3       3 GLC5        0.0000 
     14 CA         22.6750   29.9130    9.1910 C.3       9 GLL5        0.0000 
     15 CA         21.9725   30.0865   11.0910 C.3       3 GLC5        0.0000 
     16 CA         21.2700   30.2600   12.9910 C.3       6 GLP5        0.0000 
     17 CA         21.3760   28.2925    9.3155 C.3       3 GLC5        0.0000 
     18 CA         20.0770   26.6720    9.4400 C.3       6 GLP5        0.0000 
     19 CA         20.2985   30.6385   10.1625 C.3       3 GLC5        0.0000 
     20 CA         21.5080   30.3250    8.4860 C.3       9 GLL5        0.0000 
     21 CA         19.0890   30.9520   11.8390 C.3       6 GLP5        0.0000 
     22 CA         24.0760   32.2050    5.5870 C.3       3 GLC5        0.0000 
     23 CA         22.8670   30.5360    6.4170 C.3       9 GLL5        0.0000 
     24 CA         25.2850   33.8740    4.7570 C.3       6 GLP5        0.0000 
     25 CA         24.8610   28.1765    6.5515 C.3       3 GLC5        0.0000 
     26 CA         24.0310   30.1210    7.1310 C.3       9 GLL5        0.0000 
     27 CA         25.6910   26.2320    5.9720 C.3       6 GLP5        0.0000 
     28 CA         25.0990   31.8165    6.5510 C.3       3 GLC5        0.0000 
     29 CA         26.1670   33.5120    5.9710 C.3       6 GLP5        0.0000 
     30 N          19.3505   30.2645    5.8010 N.am      2 SEC2        0.0000 
     31 N          20.4880   31.0220    6.4260 N.am      8 SEL2        0.0000 
     32 N          18.2130   29.5070    5.1760 N.am      5 SEP2        0.0000 
     33 O          19.8480   32.0540    5.2750 O.2       1 ALC1        0.0000 
     34 O          20.4880   31.0220    6.4260 O.2       7 ALL1        0.0000 
     35 O          19.2080   33.0860    4.1240 O.2       4 ALP1        0.0000 
     36 O          20.8770   31.7500    5.5075 O.2       1 ALC1        0.0000 
     37 O          21.2660   32.4780    4.5890 O.2       4 ALP1        0.0000 
     38 O          31.2025   27.5745   12.3270 O.2       1 ALC1        0.0000 
     39 O          30.7900   28.5540   11.5630 O.2       7 ALL1        0.0000 
     40 O          31.6150   26.5950   13.0910 O.2       4 ALP1        0.0000 
     41 CA         22.0005   26.9090   10.1720 C.3       3 GLC5        0.0000 
     42 CA         23.9240   27.1460   10.9040 C.3       9 GLL5        0.0000 
     43 CA         23.3575   26.7810    9.1200 C.3       3 GLC5        0.0000 
     44 CA         22.7910   26.4160    7.3360 C.3       6 GLP5        0.0000 
     45 CA         24.4510   26.4580   12.8585 C.3       3 GLC5        0.0000 
     46 CA         24.5565   25.0200   10.6640 C.3       3 GLC5        0.0000 
     47 CA         25.1890   22.8940   10.4240 C.3       6 GLP5        0.0000 
     48 CA         22.7295   26.3990   11.9805 C.3       3 GLC5        0.0000 
     49 CA         21.5350   25.6520   13.0570 C.3       6 GLP5        0.0000 
     50 CA         30.3272   27.2577   13.0370 C.3       3 GLC5        0.0000 
     51 CA         28.6650   27.4730   11.9430 C.3       9 GLL5        0.0000 
     52 CA         31.5970   26.5440   14.4680 C.3       6 GLP5        0.0000 
     53 CA         26.9460   30.5978   11.2234 C.3       3 GLC5        0.0000 
     54 CA         26.6690   28.2630   10.6800 C.3       9 GLL5        0.0000 
     55 CA         26.4790   32.4170   12.0210 C.3       6 GLP5        0.0000 
     56 CA         28.2922   25.7560   11.1718 C.3       3 GLC5        0.0000 
     57 CA         28.6200   24.0930   10.5470 C.3       6 GLP5        0.0000 
     58 CA         26.8480   27.0696    8.9081 C.3       3 GLC5        0.0000 
     59 CA         27.4530   29.2200   10.0410 C.3       9 GLL5        0.0000 
     60 CA         27.5300   25.6200    7.5070 C.3       6 GLP5        0.0000 
     61 CA         19.9010   29.3820    8.3500 C.3       3 GLC5        0.0000 
     62 CA         18.2390   28.2860    8.9070 C.3       6 GLP5        0.0000 
     63 CA         21.5509   32.1390    8.6831 C.3       3 GLC5        0.0000 
     64 CA         21.6180   30.6310    7.1000 C.3       9 GLL5        0.0000 
     65 CA         21.2470   33.9030    9.3970 C.3       6 GLP5        0.0000 
     66 CA         22.7474   29.8746    4.9939 C.3       3 GLC5        0.0000 
     67 CA         22.3580   29.3970    3.0430 C.3       6 GLP5        0.0000 
@<TRIPOS>BOND
@<TRIPOS>SUBSTRUCTURE
     1 ALC1       33 GROUP        1 X    ALC  0     ROOT ALC X 1
     2 SEC2       30 GROUP        1 X    SEC  0     **** SEC X 2
     3 GLC5        1 GROUP        1 X    GLC  0     **** GLC X 6
     4 ALP1       35 GROUP        1 Y    ALP  0     ROOT ALP Y 8
     5 SEP2       32 GROUP        1 Y    SEP  0     **** SEP Y 9
     6 GLP5        3 GROUP        1 Y    GLP  0     **** GLP Y 13
     7 ALL1       34 GROUP        1 Z    ALL  0     ROOT ALL Z 15
     8 SEL2       31 GROUP        1 Z    SEL  0     **** SEL Z 16
     9 GLL5        2 GROUP        1 Z    GLL  0     **** GLL Z 20
@<TRIPOS>SET

