#    Name: 1zaf_789_2_ligand
#    Modification time : Mon Apr  7 16:57:27 2014

@<TRIPOS>MOLECULE
1zaf_789_2_ligand
   28    30     1     0     0
SMALL
NO_CHARGES


@<TRIPOS>ATOM
      1 C1         29.4500   28.4700   11.2690 C.ar      1 789202      0.0000 
      2 C2         28.8610   29.3680   10.3020 C.ar      1 789202      0.0000 
      3 C3         27.4530   29.2200   10.0410 C.ar      1 789202      0.0000 
      4 C4         26.6690   28.2630   10.6800 C.ar      1 789202      0.0000 
      5 C5         27.2640   27.3650   11.6500 C.ar      1 789202      0.0000 
      6 C6         28.6650   27.4730   11.9430 C.ar      1 789202      0.0000 
      7 C10        26.5810   29.9170    9.1750 C.2       1 789202      0.0000 
      8 C11        25.1870   29.3490    9.2890 C.2       1 789202      0.0000 
      9 C12        25.2710   28.2970   10.2580 C.2       1 789202      0.0000 
     10 C13        23.9510   29.8040    8.5280 C.ar      1 789202      0.0000 
     11 C15        22.6750   29.9130    9.1910 C.ar      1 789202      0.0000 
     12 C16        21.5080   30.3250    8.4860 C.ar      1 789202      0.0000 
     13 C17        21.6180   30.6310    7.1000 C.ar      1 789202      0.0000 
     14 C18        22.8670   30.5360    6.4170 C.ar      1 789202      0.0000 
     15 C19        24.0310   30.1210    7.1310 C.ar      1 789202      0.0000 
     16 O24        20.4880   31.0220    6.4260 O.3       1 789202      0.0000 
     17 O25        26.9140   30.8460    8.4310 O.2       1 789202      0.0000 
     18 O26        30.7900   28.5540   11.5630 O.3       1 789202      0.0000 
     19 BR29       23.9240   27.1460   10.9040 Br        1 789202      0.0000 
     20 H          29.4048   30.0548    9.8401 H         1 789202      0.0000 
     21 H          26.6947   26.6744   12.1103 H         1 789202      0.0000 
     22 H          29.0944   26.8559   12.6147 H         1 789202      0.0000 
     23 H          22.6147   29.6883   10.1876 H         1 789202      0.0000 
     24 H          20.6212   30.3984    8.9597 H         1 789202      0.0000 
     25 H          22.9275   30.7617    5.4311 H         1 789202      0.0000 
     26 H          24.9245   30.0485    6.6494 H         1 789202      0.0000 
     27 H          20.6964   31.9370    6.0805 H         1 789202      0.0000 
     28 H          30.9761   27.7654   12.1492 H         1 789202      0.0000 
@<TRIPOS>BOND
     1    2    1 ar   
     2    6    1 ar   
     3   18    1 1    
     4    3    2 ar   
     5   20    2 1    
     6    4    3 ar   
     7    7    3 1    
     8    5    4 ar   
     9    9    4 1    
    10    6    5 ar   
    11   21    5 1    
    12   22    6 1    
    13    8    7 1    
    14   17    7 2    
    15    9    8 2    
    16   10    8 1    
    17   19    9 1    
    18   11   10 ar   
    19   15   10 ar   
    20   12   11 ar   
    21   23   11 1    
    22   13   12 ar   
    23   24   12 1    
    24   14   13 ar   
    25   16   13 1    
    26   15   14 ar   
    27   25   14 1    
    28   26   15 1    
    29   27   16 1    
    30   28   18 1    
@<TRIPOS>SUBSTRUCTURE
     1 789202      1 GROUP   
@<TRIPOS>SET

