#    Name: 3gd7_B44_1_INTS_M
#    Modification time : Tue Mar 25 07:34:34 2014

@<TRIPOS>MOLECULE
3gd7_B44_1_INTS_M
   58     0     9     0     0
SMALL
NO_CHARGES


@<TRIPOS>ATOM
      1 CA        -55.7765   63.3845    5.5195 C.3       3 GLC5        0.0000 
      2 CA        -53.6400   63.2900    5.0160 C.3       9 GLL5        0.0000 
      3 CA        -57.9130   63.4790    6.0230 C.3       6 GLP5        0.0000 
      4 CA        -56.4005   64.2815    5.7405 C.3       3 GLC5        0.0000 
      5 CA        -54.8880   65.0840    5.4580 C.3       9 GLL5        0.0000 
      6 CA        -54.6545   66.6845    4.5130 C.3       3 GLC5        0.0000 
      7 CA        -54.4210   68.2850    3.5680 C.3       6 GLP5        0.0000 
      8 CA        -52.2395   56.8880    2.4280 C.3       3 GLC5        0.0000 
      9 CA        -51.7870   58.7990    2.5410 C.3       9 GLL5        0.0000 
     10 CA        -52.6920   54.9770    2.3150 C.3       6 GLP5        0.0000 
     11 CA        -54.2805   61.3065    4.2305 C.3       3 GLC5        0.0000 
     12 CA        -52.9700   62.1120    2.8950 C.3       9 GLL5        0.0000 
     13 CA        -55.5910   60.5010    5.5660 C.3       6 GLP5        0.0000 
     14 CA        -54.5590   60.9620    2.1005 C.3       3 GLC5        0.0000 
     15 CA        -56.1480   59.8120    1.3060 C.3       6 GLP5        0.0000 
     16 NZ        -45.6215   53.6140    2.4325 N.4       2 LYC4        0.0000 
     17 NZ        -45.4800   55.0320    2.3810 N.4       8 LYL4        0.0000 
     18 NZ        -45.7630   52.1960    2.4840 N.4       5 LYP4        0.0000 
     19 N         -45.6215   53.6140    2.4325 N.am      1 SEC2        0.0000 
     20 N         -45.4800   55.0320    2.3810 N.am      7 SEL2        0.0000 
     21 N         -45.7630   52.1960    2.4840 N.am      4 SEP2        0.0000 
     22 N         -47.3965   56.4855    1.3815 N.am      1 SEC2        0.0000 
     23 N         -47.4930   56.3610    2.9470 N.am      7 SEL2        0.0000 
     24 N         -47.3000   56.6100   -0.1840 N.am      4 SEP2        0.0000 
     25 N         -50.4615   54.8015    1.6480 N.am      1 SEC2        0.0000 
     26 N         -49.1910   54.6340    2.0880 N.am      7 SEL2        0.0000 
     27 N         -51.7320   54.9690    1.2080 N.am      4 SEP2        0.0000 
     28 N         -50.2990   54.0000    2.8420 N.am      1 SEC2        0.0000 
     29 N         -51.4070   53.3660    3.5960 N.am      4 SEP2        0.0000 
     30 N         -50.0635   54.1435    4.1115 N.am      1 SEC2        0.0000 
     31 N         -48.7200   54.9210    4.6270 N.am      7 SEL2        0.0000 
     32 N         -49.8810   54.3195    5.5570 N.am      1 SEC2        0.0000 
     33 N         -51.0420   53.7180    6.4870 N.am      4 SEP2        0.0000 
     34 N         -50.7875   55.8745    2.2775 N.am      1 SEC2        0.0000 
     35 N         -49.8430   56.7800    3.3470 N.am      7 SEL2        0.0000 
     36 N         -52.6050   56.0135    5.8710 N.am      1 SEC2        0.0000 
     37 N         -51.7920   56.8870    5.0110 N.am      7 SEL2        0.0000 
     38 N         -53.4180   55.1400    6.7310 N.am      4 SEP2        0.0000 
     39 N         -53.0600   57.0750    5.0150 N.am      1 SEC2        0.0000 
     40 N         -54.3280   57.2630    5.0190 N.am      4 SEP2        0.0000 
     41 CA        -55.9275   63.7235    6.6565 C.3       3 GLC5        0.0000 
     42 CA        -53.9420   63.9680    7.2900 C.3       9 GLL5        0.0000 
     43 CA        -55.4540   63.3580    8.6400 C.3       3 GLC5        0.0000 
     44 CA        -54.2810   64.6940    9.6420 C.3       9 GLL5        0.0000 
     45 CA        -56.6270   62.0220    7.6380 C.3       6 GLP5        0.0000 
     46 CA        -52.9160   63.8095   12.4505 C.3       3 GLC5        0.0000 
     47 CA        -54.2410   64.0480   11.0320 C.3       9 GLL5        0.0000 
     48 CA        -51.5910   63.5710   13.8690 C.3       6 GLP5        0.0000 
     49 CA        -56.1120   58.0425   11.0590 C.3       3 GLC5        0.0000 
     50 CA        -55.9790   60.1130   11.6420 C.3       9 GLL5        0.0000 
     51 CA        -56.2450   55.9720   10.4760 C.3       6 GLP5        0.0000 
     52 CA        -53.4610   58.5675    1.5932 C.3       3 GLC5        0.0000 
     53 CA        -55.0070   57.6460    0.9570 C.3       6 GLP5        0.0000 
     54 CA        -50.0615   63.0120    2.9430 C.3       3 GLC5        0.0000 
     55 CA        -50.9350   61.2040    2.1390 C.3       9 GLL5        0.0000 
     56 CA        -48.8250   64.1580    3.7040 C.3       6 GLP5        0.0000 
     57 CA        -57.4610   59.2133   12.6325 C.3       3 GLC5        0.0000 
     58 CA        -58.5620   57.7350   13.5300 C.3       6 GLP5        0.0000 
@<TRIPOS>BOND
@<TRIPOS>SUBSTRUCTURE
     1 SEC2       19 GROUP        1 X    SEC  0     ROOT SEC X 2
     2 LYC4       16 GROUP        1 X    LYC  0     **** LYC X 4
     3 GLC5        1 GROUP        1 X    GLC  0     **** GLC X 6
     4 SEP2       21 GROUP        1 Y    SEP  0     ROOT SEP Y 9
     5 LYP4       18 GROUP        1 Y    LYP  0     **** LYP Y 11
     6 GLP5        3 GROUP        1 Y    GLP  0     **** GLP Y 13
     7 SEL2       20 GROUP        1 Z    SEL  0     ROOT SEL Z 16
     8 LYL4       17 GROUP        1 Z    LYL  0     **** LYL Z 18
     9 GLL5        2 GROUP        1 Z    GLL  0     **** GLL Z 20
@<TRIPOS>SET

