#    Name: 3gd7_B44_1_ligand
#    Modification time : Tue Mar 25 07:34:34 2014

@<TRIPOS>MOLECULE
3gd7_B44_1_ligand
   59    62     1     0     0
SMALL
NO_CHARGES


@<TRIPOS>ATOM
      1 O1        -51.0060   58.9280    3.7310 O.3       1 B441        0.0000 
      2 C7        -53.6400   63.2900    5.0160 C.ar      1 B441        0.0000 
      3 O2        -53.2200   60.7310    2.5770 O.3       1 B441        0.0000 
      4 C6        -54.8880   65.0840    5.4580 C.ar      1 B441        0.0000 
      5 C1        -51.7870   58.7990    2.5410 C.3       1 B441        0.0000 
      6 N1        -54.7140   64.9860    6.7990 N.ar      1 B441        0.0000 
      7 C5        -52.9700   62.1120    2.8950 C.3       1 B441        0.0000 
      8 C4        -51.6610   62.5280    2.2250 C.3       1 B441        0.0000 
      9 C3        -50.9350   61.2040    2.1390 C.3       1 B441        0.0000 
     10 C2        -52.0430   60.1790    1.9180 C.3       1 B441        0.0000 
     11 O13       -45.4800   55.0320    2.3810 O.co2     1 B441        0.0000 
     12 P3        -45.9420   56.1220    3.3360 P.3       1 B441        0.0000 
     13 O7        -45.9860   55.6530    4.7980 O.co2     1 B441        0.0000 
     14 O10       -45.1980   57.4380    3.2020 O.co2     1 B441        0.0000 
     15 O12       -47.4930   56.3610    2.9470 O.3       1 B441        0.0000 
     16 P2        -48.8460   55.5410    3.2460 P.3       1 B441        0.0000 
     17 O6        -49.1910   54.6340    2.0880 O.co2     1 B441        0.0000 
     18 O9        -48.7200   54.9210    4.6270 O.co2     1 B441        0.0000 
     19 O11       -49.8430   56.7800    3.3470 O.3       1 B441        0.0000 
     20 P1        -50.5380   57.5790    4.5360 P.3       1 B441        0.0000 
     21 O5        -49.4870   58.0500    5.5130 O.co2     1 B441        0.0000 
     22 O8        -51.7920   56.8870    5.0110 O.co2     1 B441        0.0000 
     23 O3        -50.0170   61.2750    1.0250 O.3       1 B441        0.0000 
     24 O4        -51.8590   63.0780    0.9110 O.3       1 B441        0.0000 
     25 N9        -52.9820   62.2890    4.3460 N.pl3     1 B441        0.0000 
     26 N3        -54.3940   64.2800    4.4980 N.ar      1 B441        0.0000 
     27 C13       -52.3560   61.5250    5.2970 C.2       1 B441        0.0000 
     28 N7        -52.5710   61.9650    6.5220 N.2       1 B441        0.0000 
     29 C8        -53.3750   63.0690    6.3620 C.ar      1 B441        0.0000 
     30 C9        -53.9420   63.9680    7.2900 C.ar      1 B441        0.0000 
     31 N6        -53.7210   63.8070    8.6470 N.pl3     1 B441        0.0000 
     32 C10       -54.2810   64.6940    9.6420 C.3       1 B441        0.0000 
     33 C11       -54.2410   64.0480   11.0320 C.3       1 B441        0.0000 
     34 C12       -54.8140   62.6570   11.2290 C.ar      1 B441        0.0000 
     35 C18       -54.0590   61.4790   11.0500 C.ar      1 B441        0.0000 
     36 C17       -54.6390   60.2170   11.2530 C.ar      1 B441        0.0000 
     37 C16       -55.9790   60.1130   11.6420 C.ar      1 B441        0.0000 
     38 C15       -56.7410   61.2700   11.8280 C.ar      1 B441        0.0000 
     39 C14       -56.1620   62.5320   11.6260 C.ar      1 B441        0.0000 
     40 H         -55.5077   65.9222    5.1172 H         1 B441        0.0000 
     41 H         -52.7640   58.3408    2.7422 H         1 B441        0.0000 
     42 H         -51.2806   58.1841    1.7857 H         1 B441        0.0000 
     43 H         -53.7677   62.7223    2.4469 H         1 B441        0.0000 
     44 H         -51.1315   63.1564    2.8848 H         1 B441        0.0000 
     45 H         -50.4614   61.0179    3.0599 H         1 B441        0.0000 
     46 H         -52.2331   60.0745    0.8752 H         1 B441        0.0000 
     47 H         -51.8060   60.7310    5.0608 H         1 B441        0.0000 
     48 H         -53.1307   63.0224    8.9912 H         1 B441        0.0000 
     49 H         -55.3270   64.9383    9.4154 H         1 B441        0.0000 
     50 H         -53.7230   65.6380    9.6944 H         1 B441        0.0000 
     51 H         -54.7501   64.7501   11.7547 H         1 B441        0.0000 
     52 H         -53.1676   64.0454   11.3816 H         1 B441        0.0000 
     53 H         -53.0729   61.5487   10.7676 H         1 B441        0.0000 
     54 H         -54.0772   59.3697   11.1153 H         1 B441        0.0000 
     55 H         -56.4001   59.1908   11.7900 H         1 B441        0.0000 
     56 H         -57.7234   61.1990   12.1121 H         1 B441        0.0000 
     57 H         -56.7264   63.3813   11.7687 H         1 B441        0.0000 
     58 H         -50.4345   61.9217    0.3866 H         1 B441        0.0000 
     59 H         -52.5650   62.5052    0.4945 H         1 B441        0.0000 
@<TRIPOS>BOND
     1    5    1 1    
     2   20    1 1    
     3   25    2 1    
     4   26    2 ar   
     5   29    2 ar   
     6    7    3 1    
     7   10    3 1    
     8    6    4 ar   
     9   26    4 ar   
    10   40    4 1    
    11   10    5 1    
    12   41    5 1    
    13   42    5 1    
    14   30    6 ar   
    15    8    7 1    
    16   25    7 1    
    17   43    7 1    
    18    9    8 1    
    19   24    8 1    
    20   44    8 1    
    21   10    9 1    
    22   23    9 1    
    23   45    9 1    
    24   46   10 1    
    25   12   11 ar   
    26   13   12 ar   
    27   14   12 ar   
    28   15   12 1    
    29   16   15 1    
    30   17   16 ar   
    31   18   16 ar   
    32   19   16 1    
    33   20   19 1    
    34   21   20 ar   
    35   22   20 ar   
    36   58   23 1    
    37   59   24 1    
    38   27   25 1    
    39   28   27 2    
    40   47   27 1    
    41   29   28 1    
    42   30   29 ar   
    43   31   30 1    
    44   32   31 1    
    45   48   31 1    
    46   33   32 1    
    47   49   32 1    
    48   50   32 1    
    49   34   33 1    
    50   51   33 1    
    51   52   33 1    
    52   35   34 ar   
    53   39   34 ar   
    54   36   35 ar   
    55   53   35 1    
    56   37   36 ar   
    57   54   36 1    
    58   38   37 ar   
    59   55   37 1    
    60   39   38 ar   
    61   56   38 1    
    62   57   39 1    
@<TRIPOS>SUBSTRUCTURE
     1 B441        1 GROUP   
@<TRIPOS>SET

