#    Name: 3sl6_JN8_3_INTS_M
#    Modification time : Mon Mar 24 17:50:55 2014

@<TRIPOS>MOLECULE
3sl6_JN8_3_INTS_M
   62     0     6     0     0
SMALL
NO_CHARGES


@<TRIPOS>ATOM
      1 CA         19.2265   -5.0270   30.8395 C.3       2 GLC5        0.0000 
      2 CA         18.3880   -5.4610   32.8610 C.3       6 GLL5        0.0000 
      3 CA         20.0650   -4.5930   28.8180 C.3       4 GLP5        0.0000 
      4 CA         19.8815   -3.9015   33.0275 C.3       2 GLC5        0.0000 
      5 CA         21.3750   -2.3420   33.1940 C.3       4 GLP5        0.0000 
      6 CA         16.7590   -5.1220   34.2980 C.3       2 GLC5        0.0000 
      7 CA         15.1300   -4.7830   35.7350 C.3       4 GLP5        0.0000 
      8 CA         19.2120   -6.1015   29.9315 C.3       2 GLC5        0.0000 
      9 CA         18.3590   -7.6100   31.0450 C.3       6 GLL5        0.0000 
     10 CA         16.6140   -9.1900   34.2975 C.3       2 GLC5        0.0000 
     11 CA         18.3820   -9.4880   33.3820 C.3       6 GLL5        0.0000 
     12 CA         14.8460   -8.8920   35.2130 C.3       4 GLP5        0.0000 
     13 CA         16.7055   -1.5305   36.1515 C.3       2 GLC5        0.0000 
     14 CA         18.6410   -2.2230   36.2680 C.3       6 GLL5        0.0000 
     15 CA         14.7700   -0.8380   36.0350 C.3       4 GLP5        0.0000 
     16 CA         20.0080   -2.2825   34.7310 C.3       2 GLC5        0.0000 
     17 CA         21.0435   -3.4120   39.8685 C.3       2 GLC5        0.0000 
     18 CA         19.4220   -4.2580   39.3490 C.3       6 GLL5        0.0000 
     19 CA         22.6650   -2.5660   40.3880 C.3       4 GLP5        0.0000 
     20 CA         16.6165   -4.4165   41.1525 C.3       2 GLC5        0.0000 
     21 CA         18.0890   -4.0250   39.7830 C.3       6 GLL5        0.0000 
     22 CA         15.1440   -4.8080   42.5220 C.3       4 GLP5        0.0000 
     23 CA         16.2555   -1.8080   39.9920 C.3       2 GLC5        0.0000 
     24 CA         17.2480   -3.0490   38.6530 C.3       6 GLL5        0.0000 
     25 CA         15.2630   -0.5670   41.3310 C.3       4 GLP5        0.0000 
     26 CA         19.1985  -13.9050   36.5085 C.3       2 GLC5        0.0000 
     27 CA         18.9180  -11.8580   36.7620 C.3       6 GLL5        0.0000 
     28 CA         19.4790  -15.9520   36.2550 C.3       4 GLP5        0.0000 
     29 N          18.4465   -7.2585   38.9690 N.am      1 SEC2        0.0000 
     30 N          18.4240   -6.9980   37.2800 N.am      5 SEL2        0.0000 
     31 N          18.4690   -7.5190   40.6580 N.am      3 SEP2        0.0000 
     32 CA         13.1800  -10.3365   32.6095 C.3       2 GLC5        0.0000 
     33 CA         13.9590  -11.4190   31.2250 C.3       6 GLL5        0.0000 
     34 CA         12.4010   -9.2540   33.9940 C.3       4 GLP5        0.0000 
     35 CA         12.8910  -12.5595   32.1525 C.3       2 GLC5        0.0000 
     36 CA         11.8230  -13.7000   33.0800 C.3       4 GLP5        0.0000 
     37 CA         13.6365  -10.6320   28.6710 C.3       2 GLC5        0.0000 
     38 CA         15.0340  -11.3530   30.1760 C.3       6 GLL5        0.0000 
     39 CA         12.2390   -9.9110   27.1660 C.3       4 GLP5        0.0000 
     40 CA         16.7720   -5.6022   35.2253 C.3       2 GLC5        0.0000 
     41 CA         18.4190   -7.1400   34.8660 C.3       6 GLL5        0.0000 
     42 CA         18.8570   -1.2083   38.3800 C.3       2 GLC5        0.0000 
     43 CA         19.0780    0.1620   39.8340 C.3       4 GLP5        0.0000 
     44 CA         16.8830   -3.6808   36.3305 C.3       2 GLC5        0.0000 
     45 CA         18.6310   -2.9340   37.5840 C.3       6 GLL5        0.0000 
     46 CA         20.6307   -2.2957   38.8473 C.3       2 GLC5        0.0000 
     47 CA         22.0830   -1.3010   39.8450 C.3       4 GLP5        0.0000 
     48 CA         19.3260   -1.8952   39.2830 C.3       2 GLC5        0.0000 
     49 CA         19.7260   -3.6470   38.1150 C.3       6 GLL5        0.0000 
     50 CA         18.3732   -1.6875   39.5260 C.3       2 GLC5        0.0000 
     51 CA         16.1487   -4.7825   38.9210 C.3       2 GLC5        0.0000 
     52 CA         14.6290   -6.0280   38.6240 C.3       4 GLP5        0.0000 
     53 CA         16.2698  -10.3023   38.5940 C.3       2 GLC5        0.0000 
     54 CA         18.2200   -9.7350   37.4800 C.3       6 GLL5        0.0000 
     55 CA         14.5600  -10.1690   39.7710 C.3       4 GLP5        0.0000 
     56 CA         16.4128   -9.6638   36.3150 C.3       2 GLC5        0.0000 
     57 CA         17.7390  -11.1360   37.3540 C.3       6 GLL5        0.0000 
     58 CA         21.4305   -9.5663   37.6265 C.3       2 GLC5        0.0000 
     59 CA         20.1220  -10.9820   37.0220 C.3       6 GLL5        0.0000 
     60 CA         22.9830   -8.7110   37.7940 C.3       4 GLP5        0.0000 
     61 CA         19.5326  -11.9866   38.7588 C.3       2 GLC5        0.0000 
     62 CA         19.9620  -13.0140   40.2590 C.3       4 GLP5        0.0000 
@<TRIPOS>BOND
@<TRIPOS>SUBSTRUCTURE
     1 SEC2       29 GROUP        1 X    SEC  0     ROOT SEC X 2
     2 GLC5        1 GROUP        1 X    GLC  0     **** GLC X 6
     3 SEP2       31 GROUP        1 Y    SEP  0     ROOT SEP Y 9
     4 GLP5        3 GROUP        1 Y    GLP  0     **** GLP Y 13
     5 SEL2       30 GROUP        1 Z    SEL  0     ROOT SEL Z 16
     6 GLL5        2 GROUP        1 Z    GLL  0     **** GLL Z 20
@<TRIPOS>SET

