#    Name: 3sl6_JN8_3_ligand
#    Modification time : Mon Mar 24 17:50:55 2014

@<TRIPOS>MOLECULE
3sl6_JN8_3_ligand
   58    61     1     0     0
SMALL
NO_CHARGES


@<TRIPOS>ATOM
      1 C1         18.4010   -7.9900   33.5900 C.2       1 JN8441      0.0000 
      2 C2         18.4190   -7.1400   34.8660 C.2       1 JN8441      0.0000 
      3 C3         18.4090   -5.7030   34.5650 C.2       1 JN8441      0.0000 
      4 S4         18.3880   -5.4610   32.8610 S.3       1 JN8441      0.0000 
      5 C5         18.3920   -7.1560   32.4640 C.2       1 JN8441      0.0000 
      6 C6         18.3590   -7.6100   31.0450 C.3       1 JN8441      0.0000 
      7 N7         17.9930   -8.9940   31.0210 N.am      1 JN8441      0.0000 
      8 C8         18.7140   -9.8300   31.9510 C.3       1 JN8441      0.0000 
      9 C9         18.3820   -9.4880   33.3820 C.3       1 JN8441      0.0000 
     10 N10        18.4790   -4.6480   35.5480 N.am      1 JN8441      0.0000 
     11 C11        18.4480   -3.2530   35.1890 C.2       1 JN8441      0.0000 
     12 C12        18.6410   -2.2230   36.2680 C.3       1 JN8441      0.0000 
     13 C13        18.6310   -2.9340   37.5840 C.2       1 JN8441      0.0000 
     14 C14        19.7260   -3.6470   38.1150 C.2       1 JN8441      0.0000 
     15 C15        19.4220   -4.2580   39.3490 C.2       1 JN8441      0.0000 
     16 C16        18.0890   -4.0250   39.7830 C.2       1 JN8441      0.0000 
     17 S17        17.2480   -3.0490   38.6530 S.3       1 JN8441      0.0000 
     18 O18        18.3180   -2.9190   34.0240 O.2       1 JN8441      0.0000 
     19 C19        18.4020   -7.7450   36.2470 C.2       1 JN8441      0.0000 
     20 O20        18.0220   -8.9620   36.3230 O.3       1 JN8441      0.0000 
     21 C24        16.6540   -9.4250   30.5860 C.2       1 JN8441      0.0000 
     22 C27        18.2200   -9.7350   37.4800 C.3       1 JN8441      0.0000 
     23 C28        19.6340   -9.8610   37.8960 C.3       1 JN8441      0.0000 
     24 N28        16.2670  -10.8230   30.7400 N.am      1 JN8441      0.0000 
     25 C29        20.1220  -10.9820   37.0220 C.3       1 JN8441      0.0000 
     26 O29        15.8910   -8.6540   30.0000 O.2       1 JN8441      0.0000 
     27 C30        18.9180  -11.8580   36.7620 C.3       1 JN8441      0.0000 
     28 C31        17.7390  -11.1360   37.3540 C.3       1 JN8441      0.0000 
     29 O31        18.4240   -6.9980   37.2800 O.2       1 JN8441      0.0000 
     30 C32        13.9590  -11.4190   31.2250 C.3       1 JN8441      0.0000 
     31 C33        15.0340  -11.3530   30.1760 C.3       1 JN8441      0.0000 
     32 H          19.3463   -7.4534   30.6004 H         1 JN8441      0.0000 
     33 H          17.6367   -6.9995   30.4950 H         1 JN8441      0.0000 
     34 H          19.8044   -9.7217   31.8133 H         1 JN8441      0.0000 
     35 H          18.4777  -10.8961   31.7862 H         1 JN8441      0.0000 
     36 H          17.3913   -9.8747   33.6288 H         1 JN8441      0.0000 
     37 H          19.1114   -9.9546   34.0469 H         1 JN8441      0.0000 
     38 H          18.5538   -4.9032   36.5422 H         1 JN8441      0.0000 
     39 H          17.8342   -1.5027   36.2312 H         1 JN8441      0.0000 
     40 H          19.5895   -1.7217   36.1263 H         1 JN8441      0.0000 
     41 H          20.5897   -3.7098   37.6807 H         1 JN8441      0.0000 
     42 H          20.0599   -4.7893   39.8588 H         1 JN8441      0.0000 
     43 H          17.6140   -4.2811   40.5120 H         1 JN8441      0.0000 
     44 H          17.6763   -9.3017   38.3478 H         1 JN8441      0.0000 
     45 H          19.7024  -10.1451   38.9175 H         1 JN8441      0.0000 
     46 H          20.1724   -8.9720   37.6753 H         1 JN8441      0.0000 
     47 H          16.8829  -11.4504   31.2615 H         1 JN8441      0.0000 
     48 H          20.8763  -11.5470   37.5351 H         1 JN8441      0.0000 
     49 H          20.4918  -10.5906   36.0938 H         1 JN8441      0.0000 
     50 H          19.0492  -12.8071   37.2475 H         1 JN8441      0.0000 
     51 H          18.7807  -11.9798   35.7037 H         1 JN8441      0.0000 
     52 H          16.9103  -11.1880   36.6850 H         1 JN8441      0.0000 
     53 H          17.5120  -11.5411   38.3139 H         1 JN8441      0.0000 
     54 H          15.1953  -12.3620   29.7728 H         1 JN8441      0.0000 
     55 H          14.6823  -10.7193   29.3505 H         1 JN8441      0.0000 
     56 H          14.2214  -12.0082   31.9892 H         1 JN8441      0.0000 
     57 H          13.7564  -10.5171   31.6065 H         1 JN8441      0.0000 
     58 H          13.1025  -11.7806   30.8568 H         1 JN8441      0.0000 
@<TRIPOS>BOND
     1    2    1 1    
     2    5    1 2    
     3    9    1 1    
     4    3    2 2    
     5   19    2 1    
     6    4    3 1    
     7   10    3 1    
     8    5    4 1    
     9    6    5 1    
    10    7    6 1    
    11   32    6 1    
    12   33    6 1    
    13    8    7 1    
    14   21    7 am   
    15    9    8 1    
    16   34    8 1    
    17   35    8 1    
    18   36    9 1    
    19   37    9 1    
    20   11   10 am   
    21   38   10 1    
    22   12   11 1    
    23   18   11 2    
    24   13   12 1    
    25   39   12 1    
    26   40   12 1    
    27   14   13 2    
    28   17   13 1    
    29   15   14 1    
    30   41   14 1    
    31   16   15 2    
    32   42   15 1    
    33   17   16 1    
    34   43   16 1    
    35   20   19 1    
    36   29   19 2    
    37   22   20 1    
    38   24   21 am   
    39   26   21 2    
    40   23   22 1    
    41   28   22 1    
    42   44   22 1    
    43   25   23 1    
    44   45   23 1    
    45   46   23 1    
    46   31   24 1    
    47   47   24 1    
    48   27   25 1    
    49   48   25 1    
    50   49   25 1    
    51   28   27 1    
    52   50   27 1    
    53   51   27 1    
    54   52   28 1    
    55   53   28 1    
    56   31   30 1    
    57   56   30 1    
    58   57   30 1    
    59   58   30 1    
    60   54   31 1    
    61   55   31 1    
@<TRIPOS>SUBSTRUCTURE
     1 JN8441      1 GROUP   
@<TRIPOS>SET

