#    Name: 1jra_FAD_4_INTS_M
#    Modification time : Tue Mar 25 09:20:39 2014

@<TRIPOS>MOLECULE
1jra_FAD_4_INTS_M
   95     0    12     0     0
SMALL
NO_CHARGES


@<TRIPOS>ATOM
      1 N          26.1530   21.7755   11.5910 N.am      2 SEC2        0.0000 
      2 N          26.0860   20.7660   12.5700 N.am     10 SEL2        0.0000 
      3 N          26.2200   22.7850   10.6120 N.am      6 SEP2        0.0000 
      4 CA         22.2605   21.8595   10.8295 C.3       4 GLC5        0.0000 
      5 CA         22.8060   19.8950   10.6360 C.3      12 GLL5        0.0000 
      6 CA         21.7150   23.8240   11.0230 C.3       8 GLP5        0.0000 
      7 N          28.5810   21.1855    8.6225 N.am      2 SEC2        0.0000 
      8 N          27.2670   20.9230    7.9080 N.am     10 SEL2        0.0000 
      9 N          29.8950   21.4480    9.3370 N.am      6 SEP2        0.0000 
     10 CA         27.5805   23.3430    4.4400 C.3       4 GLC5        0.0000 
     11 CA         27.0020   22.7160    6.1470 C.3      12 GLL5        0.0000 
     12 CA         28.1590   23.9700    2.7330 C.3       8 GLP5        0.0000 
     13 O          28.8320   24.4560    5.8365 O.2       1 ALC1        0.0000 
     14 O          28.2600   23.1370    6.3710 O.2       9 ALL1        0.0000 
     15 O          29.4040   25.7750    5.3020 O.2       5 ALP1        0.0000 
     16 O          29.7285   22.6260    6.5240 O.2       1 ALC1        0.0000 
     17 O          31.1970   22.1150    6.6770 O.2       5 ALP1        0.0000 
     18 CA         23.5945   23.7530    5.9440 C.3       4 GLC5        0.0000 
     19 CA         24.8540   22.8260    5.0310 C.3      12 GLL5        0.0000 
     20 CA         22.3350   24.6800    6.8570 C.3       8 GLP5        0.0000 
     21 CA         26.5065   23.3980    3.8820 C.3       4 GLC5        0.0000 
     22 CA         24.4140   23.6125    3.4100 C.3       4 GLC5        0.0000 
     23 CA         23.9740   24.3990    1.7890 C.3       8 GLP5        0.0000 
     24 N          23.0790   21.5965    5.8240 N.am      2 SEC2        0.0000 
     25 N          24.4260   21.7620    5.8540 N.am     10 SEL2        0.0000 
     26 N          21.7320   21.4310    5.7940 N.am      6 SEP2        0.0000 
     27 N          28.4990   23.1880   22.6125 N.am      2 SEC2        0.0000 
     28 N          28.9930   23.2350   21.2110 N.am     10 SEL2        0.0000 
     29 N          28.0050   23.1410   24.0140 N.am      6 SEP2        0.0000 
     30 CA         27.8985   26.3050   15.8480 C.3       4 GLC5        0.0000 
     31 CA         26.3390   27.2200   16.8990 C.3      12 GLL5        0.0000 
     32 CA         29.4580   25.3900   14.7970 C.3       8 GLP5        0.0000 
     33 CA         26.7705   30.3980   15.9555 C.3       4 GLC5        0.0000 
     34 CA         25.9750   28.3680   16.1630 C.3      12 GLL5        0.0000 
     35 CA         27.5660   32.4280   15.7480 C.3       8 GLP5        0.0000 
     36 CA         25.2050   28.4165   13.1060 C.3       4 GLC5        0.0000 
     37 CA         24.5210   29.6120   14.5950 C.3      12 GLL5        0.0000 
     38 CA         25.8890   27.2210   11.6170 C.3       8 GLP5        0.0000 
     39 CA         23.2595   30.6065   13.6980 C.3       4 GLC5        0.0000 
     40 CA         21.9980   31.6010   12.8010 C.3       8 GLP5        0.0000 
     41 CA         22.9655   29.8775   15.9040 C.3       4 GLC5        0.0000 
     42 CA         21.4100   30.1430   17.2130 C.3       8 GLP5        0.0000 
     43 CA         25.7965   30.8880   14.4745 C.3       4 GLC5        0.0000 
     44 CA         27.0720   32.1640   14.3540 C.3       8 GLP5        0.0000 
     45 CA         21.9710   25.1030   15.7370 C.3       4 GLC5        0.0000 
     46 CA         22.6790   26.7640   14.6570 C.3      12 GLL5        0.0000 
     47 CA         21.2630   23.4420   16.8170 C.3       8 GLP5        0.0000 
     48 CA         20.9340   26.7100   14.6965 C.3       4 GLC5        0.0000 
     49 CA         19.1890   26.6560   14.7360 C.3       8 GLP5        0.0000 
     50 CA         23.7770   26.0120   13.5740 C.3       4 GLC5        0.0000 
     51 CA         24.8750   25.2600   12.4910 C.3       8 GLP5        0.0000 
     52 CA         21.9175   27.7710   15.8570 C.3       4 GLC5        0.0000 
     53 CA         21.1560   28.7780   17.0570 C.3       8 GLP5        0.0000 
     54 CA         22.7885   24.7500   16.4745 C.3       4 GLC5        0.0000 
     55 CA         24.3140   26.0580   16.1320 C.3      12 GLL5        0.0000 
     56 CA         23.4060   23.5345   17.2190 C.3       4 GLC5        0.0000 
     57 CA         25.5490   23.6270   17.6210 C.3      12 GLL5        0.0000 
     58 CA         28.0260   22.6400   16.8425 C.3       4 GLC5        0.0000 
     59 CA         26.0640   22.6890   16.5720 C.3      12 GLL5        0.0000 
     60 CA         29.9880   22.5910   17.1130 C.3       8 GLP5        0.0000 
     61 N          25.5860   23.7895   14.3405 N.am      2 SEC2        0.0000 
     62 N          26.5210   23.4220   15.4080 N.am     10 SEL2        0.0000 
     63 N          24.6510   24.1570   13.2730 N.am      6 SEP2        0.0000 
     64 CA         23.2635   22.4735   16.4750 C.3       4 GLC5        0.0000 
     65 CA         25.2640   21.5050   16.1330 C.3      12 GLL5        0.0000 
     66 CA         24.3775   22.5215   14.4960 C.3       4 GLC5        0.0000 
     67 CA         23.4910   23.5380   12.8590 C.3       8 GLP5        0.0000 
     68 CA         22.7565   18.8450   15.6880 C.3       4 GLC5        0.0000 
     69 CA         24.5970   19.0710   16.4400 C.3      12 GLL5        0.0000 
     70 CA         20.9160   18.6190   14.9360 C.3       8 GLP5        0.0000 
     71 NZ         27.2850   17.1030   14.9020 N.4       3 LYC4        0.0000 
     72 NZ         26.0260   16.5340   14.1930 N.4      11 LYL4        0.0000 
     73 NZ         28.5440   17.6720   15.6110 N.4       7 LYP4        0.0000 
     74 N          27.2850   17.1030   14.9020 N.am      2 SEC2        0.0000 
     75 N          26.0260   16.5340   14.1930 N.am     10 SEL2        0.0000 
     76 N          28.5440   17.6720   15.6110 N.am      6 SEP2        0.0000 
     77 NZ         22.6205   16.7300   15.5070 N.4       3 LYC4        0.0000 
     78 NZ         23.7600   16.8670   14.7990 N.4      11 LYL4        0.0000 
     79 NZ         21.2650   15.7120   17.1820 N.4       7 LYP4        0.0000 
     80 N          22.6205   16.7300   15.5070 N.am      2 SEC2        0.0000 
     81 N          23.7600   16.8670   14.7990 N.am     10 SEL2        0.0000 
     82 N          21.4810   16.5930   16.2150 N.am      6 SEP2        0.0000 
     83 CA         24.8373   18.2700    6.0460 C.3       4 GLC5        0.0000 
     84 CA         24.1480   17.6520    8.0260 C.3      12 GLL5        0.0000 
     85 CA         25.5930   18.1320    4.2040 C.3       8 GLP5        0.0000 
     86 CA         26.3459   23.0656    7.9493 C.3       4 GLC5        0.0000 
     87 CA         26.5770   21.6350    6.9370 C.3      12 GLL5        0.0000 
     88 CA         26.6260   24.4440    9.2330 C.3       8 GLP5        0.0000 
     89 CA         27.4904   20.6511    5.9972 C.3       4 GLC5        0.0000 
     90 CA         28.9150   19.6150    5.3290 C.3       8 GLP5        0.0000 
     91 CA         25.9817   27.8317   18.4922 C.3       4 GLC5        0.0000 
     92 CA         26.1410   28.7660   20.2540 C.3       8 GLP5        0.0000 
     93 CA         23.6223   19.6630   18.2365 C.3       4 GLC5        0.0000 
     94 CA         25.1300   20.2990   17.0480 C.3      12 GLL5        0.0000 
     95 CA         22.3810   19.6410   19.7290 C.3       8 GLP5        0.0000 
@<TRIPOS>BOND
@<TRIPOS>SUBSTRUCTURE
     1 ALC1       13 GROUP        1 X    ALC  0     ROOT ALC X 1
     2 SEC2        1 GROUP        1 X    SEC  0     **** SEC X 2
     3 LYC4       71 GROUP        1 X    LYC  0     **** LYC X 4
     4 GLC5        4 GROUP        1 X    GLC  0     **** GLC X 6
     5 ALP1       15 GROUP        1 Y    ALP  0     ROOT ALP Y 8
     6 SEP2        3 GROUP        1 Y    SEP  0     **** SEP Y 9
     7 LYP4       73 GROUP        1 Y    LYP  0     **** LYP Y 11
     8 GLP5        6 GROUP        1 Y    GLP  0     **** GLP Y 13
     9 ALL1       14 GROUP        1 Z    ALL  0     ROOT ALL Z 15
    10 SEL2        2 GROUP        1 Z    SEL  0     **** SEL Z 16
    11 LYL4       72 GROUP        1 Z    LYL  0     **** LYL Z 18
    12 GLL5        5 GROUP        1 Z    GLL  0     **** GLL Z 20
@<TRIPOS>SET

