#    Name: 1jra_FAD_4_ligand
#    Modification time : Tue Mar 25 09:20:39 2014

@<TRIPOS>MOLECULE
1jra_FAD_4_ligand
   84    89     1     0     0
SMALL
NO_CHARGES


@<TRIPOS>ATOM
      1 PA         24.7420   20.1180   12.6650 P.3       1 FAD336      0.0000 
      2 O1A        26.0860   20.7660   12.5700 O.co2     1 FAD336      0.0000 
      3 O2A        23.5950   20.2880   13.6180 O.co2     1 FAD336      0.0000 
      4 O5B        23.9910   19.6400   11.3770 O.3       1 FAD336      0.0000 
      5 C5B        22.8060   19.8950   10.6360 C.3       1 FAD336      0.0000 
      6 C4B        22.7930   18.7090    9.6940 C.3       1 FAD336      0.0000 
      7 O4B        22.9530   19.6420    8.5910 O.3       1 FAD336      0.0000 
      8 C3B        23.7840   17.5360    9.4380 C.3       1 FAD336      0.0000 
      9 O3B        23.3140   16.3640   10.1080 O.3       1 FAD336      0.0000 
     10 C2B        24.1480   17.6520    8.0260 C.3       1 FAD336      0.0000 
     11 O2B        23.1680   17.0610    7.2280 O.3       1 FAD336      0.0000 
     12 C1B        24.0150   19.1640    7.7500 C.3       1 FAD336      0.0000 
     13 N9A        25.0840   20.0990    7.6040 N.pl3     1 FAD336      0.0000 
     14 C8A        26.3530   20.0520    8.2360 C.2       1 FAD336      0.0000 
     15 N7A        27.2670   20.9230    7.9080 N.2       1 FAD336      0.0000 
     16 C5A        26.5770   21.6350    6.9370 C.ar      1 FAD336      0.0000 
     17 C6A        27.0020   22.7160    6.1470 C.ar      1 FAD336      0.0000 
     18 N6A        28.2600   23.1370    6.3710 N.pl3     1 FAD336      0.0000 
     19 N1A        26.1140   23.2950    5.2590 N.ar      1 FAD336      0.0000 
     20 C2A        24.8540   22.8260    5.0310 C.ar      1 FAD336      0.0000 
     21 N3A        24.4260   21.7620    5.8540 N.ar      1 FAD336      0.0000 
     22 C4A        25.3420   21.1990    6.7890 C.ar      1 FAD336      0.0000 
     23 N1         27.5660   24.0080   19.5330 N.2       1 FAD336      0.0000 
     24 C2         28.6620   24.0870   20.3750 C.2       1 FAD336      0.0000 
     25 O2         28.9930   23.2350   21.2110 O.2       1 FAD336      0.0000 
     26 N3         29.3630   25.2760   20.2480 N.am      1 FAD336      0.0000 
     27 C4         29.0470   26.3390   19.3690 C.2       1 FAD336      0.0000 
     28 O4         29.7460   27.3970   19.4720 O.2       1 FAD336      0.0000 
     29 C4X        27.9540   26.1810   18.5410 C.2       1 FAD336      0.0000 
     30 N5         27.5310   27.2350   17.6710 N.2       1 FAD336      0.0000 
     31 C5X        26.3390   27.2200   16.8990 C.ar      1 FAD336      0.0000 
     32 C6         25.9750   28.3680   16.1630 C.ar      1 FAD336      0.0000 
     33 C7         24.7890   28.3310   15.3820 C.ar      1 FAD336      0.0000 
     34 C7M        24.5210   29.6120   14.5950 C.3       1 FAD336      0.0000 
     35 C8         23.9650   27.1670   15.3570 C.ar      1 FAD336      0.0000 
     36 C8M        22.6790   26.7640   14.6570 C.3       1 FAD336      0.0000 
     37 C9         24.3140   26.0580   16.1320 C.ar      1 FAD336      0.0000 
     38 C9A        25.4880   26.0010   16.9300 C.ar      1 FAD336      0.0000 
     39 N10        26.1160   24.9300   17.7560 N.pl3     1 FAD336      0.0000 
     40 C10        27.1870   24.9720   18.6240 C.2       1 FAD336      0.0000 
     41 C1'        25.5490   23.6270   17.6210 C.3       1 FAD336      0.0000 
     42 C2'        26.0640   22.6890   16.5720 C.3       1 FAD336      0.0000 
     43 O2'        26.5210   23.4220   15.4080 O.3       1 FAD336      0.0000 
     44 C3'        25.2640   21.5050   16.1330 C.3       1 FAD336      0.0000 
     45 O3'        23.9480   21.8650   15.7250 O.3       1 FAD336      0.0000 
     46 C4'        25.1300   20.2990   17.0480 C.3       1 FAD336      0.0000 
     47 O4'        26.3560   19.9240   17.7450 O.3       1 FAD336      0.0000 
     48 C5'        24.5970   19.0710   16.4400 C.3       1 FAD336      0.0000 
     49 O5'        25.4760   18.4760   15.4710 O.3       1 FAD336      0.0000 
     50 P          24.9860   17.5600   14.3040 P.3       1 FAD336      0.0000 
     51 O1P        26.0260   16.5340   14.1930 O.co2     1 FAD336      0.0000 
     52 O2P        23.7600   16.8670   14.7990 O.co2     1 FAD336      0.0000 
     53 O3P        24.9730   18.5760   13.0560 O.3       1 FAD336      0.0000 
     54 H          22.8695   20.7873   10.0589 H         1 FAD336      0.0000 
     55 H          21.9307   19.8589   11.2408 H         1 FAD336      0.0000 
     56 H          21.7512   18.3836    9.5899 H         1 FAD336      0.0000 
     57 H          24.7112   17.9349   10.0320 H         1 FAD336      0.0000 
     58 H          25.1136   17.3678    7.8374 H         1 FAD336      0.0000 
     59 H          23.4546   19.1499    6.6746 H         1 FAD336      0.0000 
     60 H          26.5017   19.3121    8.9457 H         1 FAD336      0.0000 
     61 H          28.5598   23.9297    5.8402 H         1 FAD336      0.0000 
     62 H          28.7831   22.6197    7.0483 H         1 FAD336      0.0000 
     63 H          24.2476   23.1999    4.3244 H         1 FAD336      0.0000 
     64 H          30.2233   25.4133   20.8662 H         1 FAD336      0.0000 
     65 H          26.5446   29.2027   16.1884 H         1 FAD336      0.0000 
     66 H          23.6849   25.2221   16.1311 H         1 FAD336      0.0000 
     67 H          24.4176   23.7106   17.4703 H         1 FAD336      0.0000 
     68 H          25.6049   23.0747   18.6218 H         1 FAD336      0.0000 
     69 H          27.0438   22.2414   17.0179 H         1 FAD336      0.0000 
     70 H          25.7738   21.0964   15.1876 H         1 FAD336      0.0000 
     71 H          24.3889   20.5914   17.8615 H         1 FAD336      0.0000 
     72 H          23.6082   19.3005   15.9721 H         1 FAD336      0.0000 
     73 H          24.3669   18.3377   17.2516 H         1 FAD336      0.0000 
     74 H          25.2627   29.8177   13.9566 H         1 FAD336      0.0000 
     75 H          23.6804   29.5484   14.0571 H         1 FAD336      0.0000 
     76 H          24.4244   30.4045   15.1972 H         1 FAD336      0.0000 
     77 H          22.7746   26.7879   13.6619 H         1 FAD336      0.0000 
     78 H          22.3977   25.8363   14.9023 H         1 FAD336      0.0000 
     79 H          21.9212   27.3722   14.8933 H         1 FAD336      0.0000 
     80 H          24.1080   15.7580   10.1568 H         1 FAD336      0.0000 
     81 H          23.1895   17.5737    6.3697 H         1 FAD336      0.0000 
     82 H          27.0751   22.7687   14.8920 H         1 FAD336      0.0000 
     83 H          23.7610   21.2967   14.9237 H         1 FAD336      0.0000 
     84 H          26.3896   20.5193   18.5478 H         1 FAD336      0.0000 
@<TRIPOS>BOND
     1    2    1 ar   
     2    3    1 ar   
     3    4    1 1    
     4   53    1 1    
     5    5    4 1    
     6    6    5 1    
     7   54    5 1    
     8   55    5 1    
     9    7    6 1    
    10    8    6 1    
    11   56    6 1    
    12   12    7 1    
    13    9    8 1    
    14   10    8 1    
    15   57    8 1    
    16   80    9 1    
    17   11   10 1    
    18   12   10 1    
    19   58   10 1    
    20   81   11 1    
    21   13   12 1    
    22   59   12 1    
    23   14   13 1    
    24   22   13 1    
    25   15   14 2    
    26   60   14 1    
    27   16   15 1    
    28   17   16 ar   
    29   22   16 ar   
    30   18   17 1    
    31   19   17 ar   
    32   61   18 1    
    33   62   18 1    
    34   20   19 ar   
    35   21   20 ar   
    36   63   20 1    
    37   22   21 ar   
    38   24   23 1    
    39   40   23 2    
    40   25   24 2    
    41   26   24 am   
    42   27   26 am   
    43   64   26 1    
    44   28   27 2    
    45   29   27 1    
    46   30   29 2    
    47   40   29 1    
    48   31   30 1    
    49   32   31 ar   
    50   38   31 ar   
    51   33   32 ar   
    52   65   32 1    
    53   34   33 1    
    54   35   33 ar   
    55   74   34 1    
    56   75   34 1    
    57   76   34 1    
    58   36   35 1    
    59   37   35 ar   
    60   77   36 1    
    61   78   36 1    
    62   79   36 1    
    63   38   37 ar   
    64   66   37 1    
    65   39   38 1    
    66   40   39 1    
    67   41   39 1    
    68   42   41 1    
    69   67   41 1    
    70   68   41 1    
    71   43   42 1    
    72   44   42 1    
    73   69   42 1    
    74   82   43 1    
    75   45   44 1    
    76   46   44 1    
    77   70   44 1    
    78   83   45 1    
    79   47   46 1    
    80   48   46 1    
    81   71   46 1    
    82   84   47 1    
    83   49   48 1    
    84   72   48 1    
    85   73   48 1    
    86   50   49 1    
    87   51   50 ar   
    88   52   50 ar   
    89   53   50 1    
@<TRIPOS>SUBSTRUCTURE
     1 FAD336      1 GROUP   
@<TRIPOS>SET

