#    Name: 4bz7_B3N_3_INTS_M
#    Modification time : Tue Mar 25 08:32:17 2014

@<TRIPOS>MOLECULE
4bz7_B3N_3_INTS_M
   81     0    12     0     0
SMALL
NO_CHARGES


@<TRIPOS>ATOM
      1 N          72.4335   31.1955   75.7995 N.am      2 SEC2        0.0000 
      2 N          73.8840   31.0840   76.1440 N.am     10 SEL2        0.0000 
      3 N          70.9830   31.3070   75.4550 N.am      6 SEP2        0.0000 
      4 CA         70.8035   27.3180   79.3315 C.3       4 GLC5        0.0000 
      5 CA         72.8150   27.7660   78.5260 C.3      12 GLL5        0.0000 
      6 CA         68.7920   26.8700   80.1370 C.3       8 GLP5        0.0000 
      7 CA         75.0780   25.7475   79.0320 C.3       4 GLC5        0.0000 
      8 CA         73.2040   26.4760   78.0740 C.3      12 GLL5        0.0000 
      9 CA         76.9520   25.0190   79.9900 C.3       8 GLP5        0.0000 
     10 CA         71.1305   25.5620   81.9070 C.3       4 GLC5        0.0000 
     11 CA         72.2440   25.2980   80.1340 C.3      12 GLL5        0.0000 
     12 CA         70.0170   25.8260   83.6800 C.3       8 GLP5        0.0000 
     13 CA         72.8490   26.5880   81.6650 C.3       4 GLC5        0.0000 
     14 CA         73.4540   27.8780   83.1960 C.3       8 GLP5        0.0000 
     15 CA         70.5180   26.0840   80.1355 C.3       4 GLC5        0.0000 
     16 CA         73.8540   24.2465   80.5355 C.3       4 GLC5        0.0000 
     17 CA         75.4640   23.1950   80.9370 C.3       8 GLP5        0.0000 
     18 CA         71.5235   22.9640   78.0650 C.3       4 GLC5        0.0000 
     19 CA         73.1350   23.9550   78.2670 C.3      12 GLL5        0.0000 
     20 CA         69.9120   21.9730   77.8630 C.3       8 GLP5        0.0000 
     21 CA         74.2995   23.5750   79.6020 C.3       4 GLC5        0.0000 
     22 O          76.3325   28.8235   74.6340 O.2       1 ALC1        0.0000 
     23 O          75.2860   29.8980   74.7150 O.2       9 ALL1        0.0000 
     24 O          77.3790   27.7490   74.5530 O.2       5 ALP1        0.0000 
     25 CA         76.9720   33.8400   73.6405 C.3       4 GLC5        0.0000 
     26 CA         77.6910   32.2920   72.9390 C.3      12 GLL5        0.0000 
     27 CA         76.2530   35.3880   74.3420 C.3       8 GLP5        0.0000 
     28 CA         80.1355   33.0145   74.6290 C.3       4 GLC5        0.0000 
     29 CA         79.0610   32.8970   73.1050 C.3      12 GLL5        0.0000 
     30 CA         81.2100   33.1320   76.1530 C.3       8 GLP5        0.0000 
     31 CA         78.6435   35.5610   71.1480 C.3       4 GLC5        0.0000 
     32 CA         79.5240   33.8390   71.9590 C.3      12 GLL5        0.0000 
     33 CA         77.7630   37.2830   70.3370 C.3       8 GLP5        0.0000 
     34 CA         81.1055   33.6735   74.1060 C.3       4 GLC5        0.0000 
     35 CA         81.0010   34.2150   72.0590 C.3      12 GLL5        0.0000 
     36 CA         79.7365   35.0965   73.5885 C.3       4 GLC5        0.0000 
     37 CA         78.4720   35.9780   75.1180 C.3       8 GLP5        0.0000 
     38 CA         80.2910   36.5830   70.7315 C.3       4 GLC5        0.0000 
     39 CA         81.6120   35.2650   71.1570 C.3      12 GLL5        0.0000 
     40 CA         78.9700   37.9010   70.3060 C.3       8 GLP5        0.0000 
     41 CA         82.4675   33.8435   69.8540 C.3       4 GLC5        0.0000 
     42 CA         83.3230   32.4220   68.5510 C.3       8 GLP5        0.0000 
     43 Zn         81.8630   36.1655   69.5610 Zn        3 ZIC7        0.0000 
     44 Zn         81.8920   35.0610   69.9670 Zn       11 ZIL7        0.0000 
     45 Zn         81.8340   37.2700   69.1550 Zn        7 ZIP7        0.0000 
     46 N          82.6420   34.0755   69.8645 N.am      2 SEC2        0.0000 
     47 N          81.8920   35.0610   69.9670 N.am     10 SEL2        0.0000 
     48 N          83.3920   33.0900   69.7620 N.am      6 SEP2        0.0000 
     49 Zn         81.8845   36.8865   70.4430 Zn        3 ZIC7        0.0000 
     50 Zn         81.9350   36.5030   71.7310 Zn       11 ZIL7        0.0000 
     51 N          82.7625   37.8980   72.1970 N.am      2 SEC2        0.0000 
     52 N          81.9350   36.5030   71.7310 N.am     10 SEL2        0.0000 
     53 N          83.5900   39.2930   72.6630 N.am      6 SEP2        0.0000 
     54 N          81.6475   37.0700   72.8490 N.am      2 SEC2        0.0000 
     55 N          81.3600   37.6370   73.9670 N.am      6 SEP2        0.0000 
     56 Zn         82.1870   37.3320   70.1105 Zn        3 ZIC7        0.0000 
     57 Zn         82.5400   37.3940   71.0660 Zn       11 ZIL7        0.0000 
     58 N          83.0650   38.3435   71.8645 N.am      2 SEC2        0.0000 
     59 N          82.5400   37.3940   71.0660 N.am     10 SEL2        0.0000 
     60 N          81.9500   37.5155   72.5165 N.am      2 SEC2        0.0000 
     61 CA         72.4495   27.9132   75.5635 C.3       4 GLC5        0.0000 
     62 CA         73.9640   28.8000   76.5880 C.3      12 GLL5        0.0000 
     63 CA         70.7270   27.6580   74.7630 C.3       8 GLP5        0.0000 
     64 CA         73.4892   28.5053   80.0805 C.3       4 GLC5        0.0000 
     65 CA         73.2180   28.9210   77.8280 C.3      12 GLL5        0.0000 
     66 CA         73.9620   28.6670   81.9840 C.3       8 GLP5        0.0000 
     67 CA         71.4243   29.0388   77.5650 C.3       4 GLC5        0.0000 
     68 CA         69.8320   29.7340   76.9530 C.3       8 GLP5        0.0000 
     69 CA         72.1598   27.0413   76.1167 C.3       4 GLC5        0.0000 
     70 CA         76.2403   32.9638   74.7635 C.3       4 GLC5        0.0000 
     71 CA         75.7000   31.0420   73.9270 C.3      12 GLL5        0.0000 
     72 CA         76.0420   34.7230   75.5410 C.3       8 GLP5        0.0000 
     73 CA         79.1050   30.7178   72.8555 C.3       4 GLC5        0.0000 
     74 CA         77.1770   31.3670   74.0450 C.3      12 GLL5        0.0000 
     75 CA         80.7760   29.6060   72.2190 C.3       8 GLP5        0.0000 
     76 CA         78.3852   34.6950   73.3355 C.3       4 GLC5        0.0000 
     77 CA         77.4780   36.0220   74.1390 C.3       8 GLP5        0.0000 
     78 CA         81.6852   35.8390   73.2640 C.3       4 GLC5        0.0000 
     79 CA         82.0640   36.9380   74.9200 C.3       8 GLP5        0.0000 
     80 CA         80.9124   32.1567   72.0173 C.3       4 GLC5        0.0000 
     81 CA         81.6780   30.5220   71.7390 C.3       8 GLP5        0.0000 
@<TRIPOS>BOND
@<TRIPOS>SUBSTRUCTURE
     1 ALC1       22 GROUP        1 X    ALC  0     ROOT ALC X 1
     2 SEC2        1 GROUP        1 X    SEC  0     **** SEC X 2
     3 ZIC7       43 GROUP        1 X    ZIC  0     **** ZIC X 5
     4 GLC5        4 GROUP        1 X    GLC  0     **** GLC X 6
     5 ALP1       24 GROUP        1 Y    ALP  0     ROOT ALP Y 8
     6 SEP2        3 GROUP        1 Y    SEP  0     **** SEP Y 9
     7 ZIP7       45 GROUP        1 Y    ZIP  0     **** ZIP Y 12
     8 GLP5        6 GROUP        1 Y    GLP  0     **** GLP Y 13
     9 ALL1       23 GROUP        1 Z    ALL  0     ROOT ALL Z 15
    10 SEL2        2 GROUP        1 Z    SEL  0     **** SEL Z 16
    11 ZIL7       44 GROUP        1 Z    ZIL  0     **** ZIL Z 19
    12 GLL5        5 GROUP        1 Z    GLL  0     **** GLL Z 20
@<TRIPOS>SET

