#    Name: 4bz7_B3N_3_ligand
#    Modification time : Tue Mar 25 08:32:18 2014

@<TRIPOS>MOLECULE
4bz7_B3N_3_ligand
   46    46     1     0     0
SMALL
NO_CHARGES


@<TRIPOS>ATOM
      1 O23        73.8840   31.0840   76.1440 O.2       1 B3N700      0.0000 
      2 C13        74.3390   30.0240   75.8350 C.2       1 B3N700      0.0000 
      3 C14        73.9640   28.8000   76.5880 C.ar      1 B3N700      0.0000 
      4 C15        73.2180   28.9210   77.8280 C.ar      1 B3N700      0.0000 
      5 C16        72.8150   27.7660   78.5260 C.ar      1 B3N700      0.0000 
      6 C17        73.2040   26.4760   78.0740 C.ar      1 B3N700      0.0000 
      7 N20        72.8420   25.2590   78.8240 N.pl3     1 B3N700      0.0000 
      8 C22        72.2440   25.2980   80.1340 C.3       1 B3N700      0.0000 
      9 C21        73.1350   23.9550   78.2670 C.3       1 B3N700      0.0000 
     10 C18        73.9810   26.3730   76.8670 C.ar      1 B3N700      0.0000 
     11 C19        74.3800   27.5370   76.1400 C.ar      1 B3N700      0.0000 
     12 N12        75.2860   29.8980   74.7150 N.am      1 B3N700      0.0000 
     13 C10        75.7000   31.0420   73.9270 C.3       1 B3N700      0.0000 
     14 C9         77.1770   31.3670   74.0450 C.3       1 B3N700      0.0000 
     15 C8         77.6910   32.2920   72.9390 C.3       1 B3N700      0.0000 
     16 C7         79.0610   32.8970   73.1050 C.3       1 B3N700      0.0000 
     17 C6         79.5240   33.8390   71.9590 C.3       1 B3N700      0.0000 
     18 C5         81.0010   34.2150   72.0590 C.3       1 B3N700      0.0000 
     19 C1         81.6120   35.2650   71.1570 C.3       1 B3N700      0.0000 
     20 O2         81.8920   35.0610   69.9670 O.3       1 B3N700      0.0000 
     21 N3         81.9350   36.5030   71.7310 N.2       1 B3N700      0.0000 
     22 O4         82.5400   37.3940   71.0660 O.2       1 B3N700      0.0000 
     23 H          72.9958   29.8492   78.1767 H         1 B3N700      0.0000 
     24 H          72.2367   27.8505   79.3671 H         1 B3N700      0.0000 
     25 H          74.2508   25.4469   76.5264 H         1 B3N700      0.0000 
     26 H          74.9569   27.4389   75.3118 H         1 B3N700      0.0000 
     27 H          75.6566   28.9741   74.4944 H         1 B3N700      0.0000 
     28 H          75.1261   31.9478   74.2217 H         1 B3N700      0.0000 
     29 H          75.4708   30.8789   72.8511 H         1 B3N700      0.0000 
     30 H          77.7580   30.4314   74.0217 H         1 B3N700      0.0000 
     31 H          77.3678   31.8422   75.0204 H         1 B3N700      0.0000 
     32 H          76.9430   33.1175   72.8020 H         1 B3N700      0.0000 
     33 H          77.6583   31.7257   71.9705 H         1 B3N700      0.0000 
     34 H          79.8152   32.0893   73.2049 H         1 B3N700      0.0000 
     35 H          79.1019   33.4719   74.0531 H         1 B3N700      0.0000 
     36 H          78.9132   34.7472   71.9896 H         1 B3N700      0.0000 
     37 H          79.3388   33.3380   71.0032 H         1 B3N700      0.0000 
     38 H          81.6084   33.2576   71.9512 H         1 B3N700      0.0000 
     39 H          81.2090   34.5104   73.1391 H         1 B3N700      0.0000 
     40 H          80.3003   35.7440   70.8496 H         1 B3N700      0.0000 
     41 H          72.8314   25.7624   80.7967 H         1 B3N700      0.0000 
     42 H          71.3688   25.7818   80.1285 H         1 B3N700      0.0000 
     43 H          72.0692   24.3800   80.4900 H         1 B3N700      0.0000 
     44 H          74.1148   23.8291   78.1116 H         1 B3N700      0.0000 
     45 H          72.8371   23.2170   78.8725 H         1 B3N700      0.0000 
     46 H          72.6786   23.8154   77.3882 H         1 B3N700      0.0000 
@<TRIPOS>BOND
     1    2    1 2    
     2    3    2 1    
     3   12    2 am   
     4    4    3 ar   
     5   11    3 ar   
     6    5    4 ar   
     7   23    4 1    
     8    6    5 ar   
     9   24    5 1    
    10    7    6 1    
    11   10    6 ar   
    12    8    7 1    
    13    9    7 1    
    14   41    8 1    
    15   42    8 1    
    16   43    8 1    
    17   44    9 1    
    18   45    9 1    
    19   46    9 1    
    20   11   10 ar   
    21   25   10 1    
    22   26   11 1    
    23   13   12 1    
    24   27   12 1    
    25   14   13 1    
    26   28   13 1    
    27   29   13 1    
    28   15   14 1    
    29   30   14 1    
    30   31   14 1    
    31   16   15 1    
    32   32   15 1    
    33   33   15 1    
    34   17   16 1    
    35   34   16 1    
    36   35   16 1    
    37   18   17 1    
    38   36   17 1    
    39   37   17 1    
    40   19   18 1    
    41   38   18 1    
    42   39   18 1    
    43   20   19 1    
    44   21   19 1    
    45   40   19 1    
    46   22   21 2    
@<TRIPOS>SUBSTRUCTURE
     1 B3N700      1 GROUP   
@<TRIPOS>SET

