#    Name: 3uds_ADP_1_INTS_M
#    Modification time : Mon Mar 24 22:11:47 2014

@<TRIPOS>MOLECULE
3uds_ADP_1_INTS_M
   69     0    15     0     0
SMALL
NO_CHARGES


@<TRIPOS>ATOM
      1 NZ         19.8835    7.0320  -41.2455 N.4       3 LYC4        0.0000 
      2 NZ         19.1150    6.1400  -40.5020 N.4      13 LYL4        0.0000 
      3 NZ         20.6150    8.8540  -42.9350 N.4       8 LYP4        0.0000 
      4 N          18.5675    7.4115  -41.2080 N.am      2 SEC2        0.0000 
      5 N          19.1150    6.1400  -40.5020 N.am     12 SEL2        0.0000 
      6 N          18.0200    8.6830  -41.9140 N.am      7 SEP2        0.0000 
      7 N          19.8835    7.0320  -41.2455 N.am      2 SEC2        0.0000 
      8 N          20.6520    7.9240  -41.9890 N.am      7 SEP2        0.0000 
      9 Zn         19.5985    2.8050  -40.7380 Zn        4 ZIC7        0.0000 
     10 Zn         18.7430    3.6520  -40.7600 Zn       14 ZIL7        0.0000 
     11 Zn         20.4540    1.9580  -40.7160 Zn        9 ZIP7        0.0000 
     12 N          16.0090    6.4250  -41.3370 N.am      2 SEC2        0.0000 
     13 N          16.7990    5.2700  -41.0230 N.am     12 SEL2        0.0000 
     14 N          15.2190    7.5800  -41.6510 N.am      7 SEP2        0.0000 
     15 Zn         20.4930    2.7330  -41.7650 Zn        4 ZIC7        0.0000 
     16 Zn         20.5320    3.5080  -42.8140 Zn       14 ZIL7        0.0000 
     17 NZ         20.6525    7.3850  -43.3555 N.4       3 LYC4        0.0000 
     18 NZ         20.6900    5.9160  -43.7760 N.4      13 LYL4        0.0000 
     19 N          17.1810    3.9870  -42.5065 N.am      2 SEC2        0.0000 
     20 N          18.5020    5.0810  -42.7510 N.am     12 SEL2        0.0000 
     21 N          15.8600    2.8930  -42.2620 N.am      7 SEP2        0.0000 
     22 CA         17.2030    1.5940  -46.9250 C.3       5 GLC5        0.0000 
     23 CA         18.8570    2.1580  -45.9850 C.3      15 GLL5        0.0000 
     24 CA         15.5490    1.0300  -47.8650 C.3      10 GLP5        0.0000 
     25 O          21.7485    0.1345  -45.1465 O.2       1 ALC1        0.0000 
     26 O          20.4100    0.6930  -44.7630 O.2      11 ALL1        0.0000 
     27 O          23.0870   -0.4240  -45.5300 O.2       6 ALP1        0.0000 
     28 O          20.8970   -0.9835  -46.4465 O.2       1 ALC1        0.0000 
     29 O          20.2930   -0.0500  -47.3100 O.2      11 ALL1        0.0000 
     30 O          21.5010   -1.9170  -45.5830 O.2       6 ALP1        0.0000 
     31 O          21.6900   -0.2370  -46.4200 O.2       1 ALC1        0.0000 
     32 CA         18.8635    1.9740  -49.6860 C.3       5 GLC5        0.0000 
     33 CA         20.0440    2.2570  -47.9940 C.3      15 GLL5        0.0000 
     34 CA         17.6830    1.6910  -51.3780 C.3      10 GLP5        0.0000 
     35 CA         19.1180    3.9315  -48.8450 C.3       5 GLC5        0.0000 
     36 CA         18.1920    5.6060  -49.6960 C.3      10 GLP5        0.0000 
     37 CA         22.5975    5.8715  -51.6470 C.3       5 GLC5        0.0000 
     38 CA         23.6130    5.1690  -49.9710 C.3      15 GLL5        0.0000 
     39 CA         21.5820    6.5740  -53.3230 C.3      10 GLP5        0.0000 
     40 CA         25.6860    4.7150  -50.6900 C.3       5 GLC5        0.0000 
     41 CA         27.7590    4.2610  -51.4090 C.3      10 GLP5        0.0000 
     42 CA         24.4485    3.1250  -49.6920 C.3       5 GLC5        0.0000 
     43 CA         25.2840    1.0810  -49.4130 C.3      10 GLP5        0.0000 
     44 O          24.7485    6.6125  -51.1915 O.2       1 ALC1        0.0000 
     45 O          24.4250    6.2360  -49.7500 O.2      11 ALL1        0.0000 
     46 O          25.0720    6.9890  -52.6330 O.2       6 ALP1        0.0000 
     47 N          24.7705    4.2645  -52.3475 N.am      2 SEC2        0.0000 
     48 N          23.6540    4.4980  -51.1480 N.am     12 SEL2        0.0000 
     49 N          25.8870    4.0310  -53.5470 N.am      7 SEP2        0.0000 
     50 CA         22.2155    5.0090  -52.3470 C.3       5 GLC5        0.0000 
     51 CA         22.8490    3.4440  -51.3710 C.3      15 GLL5        0.0000 
     52 CA         23.5225    4.3990  -53.0210 C.3       5 GLC5        0.0000 
     53 CA         24.1960    5.3540  -54.6710 C.3      10 GLP5        0.0000 
     54 CA         24.0665    2.2625  -50.3920 C.3       5 GLC5        0.0000 
     55 CA         19.9990    4.5745  -49.4690 C.3       5 GLC5        0.0000 
     56 CA         21.8060    3.5430  -49.2420 C.3      15 GLL5        0.0000 
     57 CA         23.5450    2.3120  -49.3275 C.3       5 GLC5        0.0000 
     58 CA         22.8015    2.9885  -47.3425 C.3       5 GLC5        0.0000 
     59 CA         23.7970    2.4340  -45.4430 C.3      10 GLP5        0.0000 
     60 CA         16.6780    2.5950  -44.9507 C.3       5 GLC5        0.0000 
     61 CA         14.7560    2.5290  -44.4280 C.3      10 GLP5        0.0000 
     62 CA         18.1930    4.4095  -46.3852 C.3       5 GLC5        0.0000 
     63 CA         18.3430    3.1640  -44.9620 C.3      15 GLL5        0.0000 
     64 CA         17.7860    6.1580  -47.2970 C.3      10 GLP5        0.0000 
     65 CA         22.1578    1.9723  -45.9217 C.3       5 GLC5        0.0000 
     66 CA         20.2890    1.7380  -45.7210 C.3      15 GLL5        0.0000 
     67 CA         24.5993    4.5730  -48.1358 C.3       5 GLC5        0.0000 
     68 CA         22.6520    4.7090  -48.9200 C.3      15 GLL5        0.0000 
     69 CA         26.0660    4.2070  -46.8260 C.3      10 GLP5        0.0000 
@<TRIPOS>BOND
@<TRIPOS>SUBSTRUCTURE
     1 ALC1       25 GROUP        1 X    ALC  0     ROOT ALC X 1
     2 SEC2        4 GROUP        1 X    SEC  0     **** SEC X 2
     3 LYC4        1 GROUP        1 X    LYC  0     **** LYC X 4
     4 ZIC7        9 GROUP        1 X    ZIC  0     **** ZIC X 5
     5 GLC5       22 GROUP        1 X    GLC  0     **** GLC X 6
     6 ALP1       27 GROUP        1 Y    ALP  0     ROOT ALP Y 8
     7 SEP2        6 GROUP        1 Y    SEP  0     **** SEP Y 9
     8 LYP4        3 GROUP        1 Y    LYP  0     **** LYP Y 11
     9 ZIP7       11 GROUP        1 Y    ZIP  0     **** ZIP Y 12
    10 GLP5       24 GROUP        1 Y    GLP  0     **** GLP Y 13
    11 ALL1       26 GROUP        1 Z    ALL  0     ROOT ALL Z 15
    12 SEL2        5 GROUP        1 Z    SEL  0     **** SEL Z 16
    13 LYL4        2 GROUP        1 Z    LYL  0     **** LYL Z 18
    14 ZIL7       10 GROUP        1 Z    ZIL  0     **** ZIL Z 19
    15 GLL5       23 GROUP        1 Z    GLL  0     **** GLL Z 20
@<TRIPOS>SET

