#    Name: 3uds_ADP_1_ligand
#    Modification time : Mon Mar 24 22:11:47 2014

@<TRIPOS>MOLECULE
3uds_ADP_1_ligand
   39    41     1     0     0
SMALL
NO_CHARGES


@<TRIPOS>ATOM
      1 PB         18.2840    5.0450  -41.1390 P.3       1 ADP600      0.0000 
      2 O1B        19.1150    6.1400  -40.5020 O.co2     1 ADP600      0.0000 
      3 O2B        18.7430    3.6520  -40.7600 O.co2     1 ADP600      0.0000 
      4 O3B        16.7990    5.2700  -41.0230 O.co2     1 ADP600      0.0000 
      5 PA         19.8770    4.6810  -43.5040 P.3       1 ADP600      0.0000 
      6 O1A        20.5320    3.5080  -42.8140 O.co2     1 ADP600      0.0000 
      7 O2A        20.6900    5.9160  -43.7760 O.co2     1 ADP600      0.0000 
      8 O3A        18.5020    5.0810  -42.7510 O.3       1 ADP600      0.0000 
      9 O5'        19.3120    4.1890  -44.9090 O.3       1 ADP600      0.0000 
     10 C5'        18.3430    3.1640  -44.9620 C.3       1 ADP600      0.0000 
     11 C4'        18.8570    2.1580  -45.9850 C.3       1 ADP600      0.0000 
     12 O4'        18.9110    2.7430  -47.2830 O.3       1 ADP600      0.0000 
     13 C3'        20.2890    1.7380  -45.7210 C.3       1 ADP600      0.0000 
     14 O3'        20.4100    0.6930  -44.7630 O.3       1 ADP600      0.0000 
     15 C2'        20.7480    1.2830  -47.0800 C.3       1 ADP600      0.0000 
     16 O2'        20.2930   -0.0500  -47.3100 O.3       1 ADP600      0.0000 
     17 C1'        20.0440    2.2570  -47.9940 C.3       1 ADP600      0.0000 
     18 N9         21.0330    3.3360  -48.1610 N.pl3     1 ADP600      0.0000 
     19 C8         21.3460    4.2490  -47.2220 C.2       1 ADP600      0.0000 
     20 N7         22.3180    5.0840  -47.6620 N.2       1 ADP600      0.0000 
     21 C5         22.6520    4.7090  -48.9200 C.ar      1 ADP600      0.0000 
     22 C6         23.6130    5.1690  -49.9710 C.ar      1 ADP600      0.0000 
     23 N6         24.4250    6.2360  -49.7500 N.pl3     1 ADP600      0.0000 
     24 N1         23.6540    4.4980  -51.1480 N.ar      1 ADP600      0.0000 
     25 C2         22.8490    3.4440  -51.3710 C.ar      1 ADP600      0.0000 
     26 N3         21.9530    2.9690  -50.4740 N.ar      1 ADP600      0.0000 
     27 C4         21.8060    3.5430  -49.2420 C.ar      1 ADP600      0.0000 
     28 H          17.3787    3.5215  -45.3014 H         1 ADP600      0.0000 
     29 H          18.2308    2.6494  -44.0156 H         1 ADP600      0.0000 
     30 H          18.2420    1.2863  -45.9849 H         1 ADP600      0.0000 
     31 H          20.8483    2.6170  -45.4684 H         1 ADP600      0.0000 
     32 H          21.7800    1.4124  -47.1581 H         1 ADP600      0.0000 
     33 H          19.8258    1.7953  -48.8914 H         1 ADP600      0.0000 
     34 H          20.9283    4.3058  -46.3354 H         1 ADP600      0.0000 
     35 H          24.6948    6.7585  -50.5588 H         1 ADP600      0.0000 
     36 H          24.6810    6.4044  -48.7981 H         1 ADP600      0.0000 
     37 H          22.9182    2.9466  -52.3164 H         1 ADP600      0.0000 
     38 H          21.3871    0.4827  -44.7317 H         1 ADP600      0.0000 
     39 H          20.7585   -0.6048  -46.6204 H         1 ADP600      0.0000 
@<TRIPOS>BOND
     1    2    1 ar   
     2    3    1 ar   
     3    4    1 ar   
     4    8    1 1    
     5    6    5 ar   
     6    7    5 ar   
     7    8    5 1    
     8    9    5 1    
     9   10    9 1    
    10   11   10 1    
    11   28   10 1    
    12   29   10 1    
    13   12   11 1    
    14   13   11 1    
    15   30   11 1    
    16   17   12 1    
    17   14   13 1    
    18   15   13 1    
    19   31   13 1    
    20   38   14 1    
    21   16   15 1    
    22   17   15 1    
    23   32   15 1    
    24   39   16 1    
    25   18   17 1    
    26   33   17 1    
    27   19   18 1    
    28   27   18 1    
    29   20   19 2    
    30   34   19 1    
    31   21   20 1    
    32   22   21 ar   
    33   27   21 ar   
    34   23   22 1    
    35   24   22 ar   
    36   35   23 1    
    37   36   23 1    
    38   25   24 ar   
    39   26   25 ar   
    40   37   25 1    
    41   27   26 ar   
@<TRIPOS>SUBSTRUCTURE
     1 ADP600      1 GROUP   
@<TRIPOS>SET

