#    Name: 2d4h_5GP_2_INTS_M
#    Modification time : Tue Mar 25 09:39:27 2014

@<TRIPOS>MOLECULE
2d4h_5GP_2_INTS_M
   51     0    12     0     0
SMALL
NO_CHARGES


@<TRIPOS>ATOM
      1 N          -0.6210   45.3395   -3.2075 N.am      2 SEC2        0.0000 
      2 N          -1.9280   45.0710   -2.9290 N.am     10 SEL2        0.0000 
      3 N           0.6860   45.6080   -3.4860 N.am      6 SEP2        0.0000 
      4 NZ         -3.2520   44.7070    0.2485 N.4       3 LYC4        0.0000 
      5 NZ         -3.9470   44.4620   -1.4630 N.4      11 LYL4        0.0000 
      6 NZ         -2.5570   44.9520    1.9600 N.4       7 LYP4        0.0000 
      7 N          -5.0290   45.4415   -0.6465 N.am      2 SEC2        0.0000 
      8 N          -3.9470   44.4620   -1.4630 N.am     10 SEL2        0.0000 
      9 N          -6.1110   46.4210    0.1700 N.am      6 SEP2        0.0000 
     10 NZ         -2.5725   45.7665    0.5010 N.4       3 LYC4        0.0000 
     11 NZ         -2.5880   46.5810   -0.9580 N.4      11 LYL4        0.0000 
     12 N          -3.3970   47.6355   -0.4860 N.am      2 SEC2        0.0000 
     13 N          -2.5880   46.5810   -0.9580 N.am     10 SEL2        0.0000 
     14 N          -4.2060   48.6900   -0.0140 N.am      6 SEP2        0.0000 
     15 N          -2.3545   47.9840   -1.2925 N.am      2 SEC2        0.0000 
     16 N          -2.1210   49.3870   -1.6270 N.am      6 SEP2        0.0000 
     17 N          -1.2995   47.1010   -1.3100 N.am      2 SEC2        0.0000 
     18 N          -0.0110   47.6210   -1.6620 N.am      6 SEP2        0.0000 
     19 N          -2.5725   45.7665    0.5010 N.am      2 SEC2        0.0000 
     20 N          -2.5570   44.9520    1.9600 N.am      6 SEP2        0.0000 
     21 CA         -2.3640   48.4865   -3.3230 C.3       4 GLC5        0.0000 
     22 CA         -3.6730   47.3800   -4.0510 C.3      12 GLL5        0.0000 
     23 CA         -1.0550   49.5930   -2.5950 C.3       8 GLP5        0.0000 
     24 O          -6.6160   46.7105   -7.4435 O.2       1 ALC1        0.0000 
     25 O          -6.2520   48.1070   -6.6930 O.2       9 ALL1        0.0000 
     26 O          -6.9800   45.3140   -8.1940 O.2       5 ALP1        0.0000 
     27 CA         -3.2965   50.8385   -7.8880 C.3       4 GLC5        0.0000 
     28 CA         -4.0900   49.2160   -6.6260 C.3      12 GLL5        0.0000 
     29 CA         -2.5030   52.4610   -9.1500 C.3       8 GLP5        0.0000 
     30 N          -0.2580   52.2940   -4.4600 N.am      2 SEC2        0.0000 
     31 N          -1.4700   52.1700   -5.0310 N.am     10 SEL2        0.0000 
     32 N           0.9540   52.4180   -3.8890 N.am      6 SEP2        0.0000 
     33 N          -0.0080   53.8125   -2.4705 N.am      2 SEC2        0.0000 
     34 N          -1.0410   54.3920   -3.1930 N.am     10 SEL2        0.0000 
     35 N           1.0250   53.2330   -1.7480 N.am      6 SEP2        0.0000 
     36 N          -0.0435   53.4050   -3.5410 N.am      2 SEC2        0.0000 
     37 O          -3.1425   55.5840   -2.4410 O.2       1 ALC1        0.0000 
     38 O          -3.2000   54.2280   -2.4790 O.2       9 ALL1        0.0000 
     39 O          -3.0850   56.9400   -2.4030 O.2       5 ALP1        0.0000 
     40 O          -3.7980   55.2340   -1.6680 O.2       1 ALC1        0.0000 
     41 O          -4.3960   56.2400   -0.8570 O.2       5 ALP1        0.0000 
     42 O          -4.9235   55.1015   -1.3370 O.2       1 ALC1        0.0000 
     43 O          -5.4510   53.9630   -1.8170 O.2       9 ALL1        0.0000 
     44 CA         -5.2047   47.5898   -2.6250 C.3       4 GLC5        0.0000 
     45 CA         -4.8940   48.0670   -4.6990 C.3      12 GLL5        0.0000 
     46 CA         -6.1260   47.4560   -0.8750 C.3       8 GLP5        0.0000 
     47 CA         -1.9785   51.0163   -3.4043 C.3       4 GLC5        0.0000 
     48 CA         -3.5140   52.1180   -4.2600 C.3      12 GLL5        0.0000 
     49 CA         -2.5235   53.9418   -5.3243 C.3       4 GLC5        0.0000 
     50 CA         -2.2900   52.7610   -4.1670 C.3      12 GLL5        0.0000 
     51 CA         -2.1450   55.4440   -6.4350 C.3       8 GLP5        0.0000 
@<TRIPOS>BOND
@<TRIPOS>SUBSTRUCTURE
     1 ALC1       24 GROUP        1 X    ALC  0     ROOT ALC X 1
     2 SEC2        1 GROUP        1 X    SEC  0     **** SEC X 2
     3 LYC4        4 GROUP        1 X    LYC  0     **** LYC X 4
     4 GLC5       21 GROUP        1 X    GLC  0     **** GLC X 6
     5 ALP1       26 GROUP        1 Y    ALP  0     ROOT ALP Y 8
     6 SEP2        3 GROUP        1 Y    SEP  0     **** SEP Y 9
     7 LYP4        6 GROUP        1 Y    LYP  0     **** LYP Y 11
     8 GLP5       23 GROUP        1 Y    GLP  0     **** GLP Y 13
     9 ALL1       25 GROUP        1 Z    ALL  0     ROOT ALL Z 15
    10 SEL2        2 GROUP        1 Z    SEL  0     **** SEL Z 16
    11 LYL4        5 GROUP        1 Z    LYL  0     **** LYL Z 18
    12 GLL5       22 GROUP        1 Z    GLL  0     **** GLL Z 20
@<TRIPOS>SET

