#    Name: 2d4h_5GP_2_ligand
#    Modification time : Tue Mar 25 09:39:27 2014

@<TRIPOS>MOLECULE
2d4h_5GP_2_ligand
   36    38     1     0     0
SMALL
NO_CHARGES


@<TRIPOS>ATOM
      1 P          -3.0720   45.6250   -2.1670 P.3       1 5GP593      0.0000 
      2 O1P        -1.9280   45.0710   -2.9290 O.co2     1 5GP593      0.0000 
      3 O2P        -3.9470   44.4620   -1.4630 O.co2     1 5GP593      0.0000 
      4 O3P        -2.5880   46.5810   -0.9580 O.co2     1 5GP593      0.0000 
      5 O5'        -4.1110   46.4540   -3.0630 O.3       1 5GP593      0.0000 
      6 C5'        -3.6730   47.3800   -4.0510 C.3       1 5GP593      0.0000 
      7 C4'        -4.8940   48.0670   -4.6990 C.3       1 5GP593      0.0000 
      8 O4'        -4.8740   49.4840   -4.3780 O.3       1 5GP593      0.0000 
      9 C3'        -4.9030   47.9910   -6.2260 C.3       1 5GP593      0.0000 
     10 O3'        -6.2520   48.1070   -6.6930 O.3       1 5GP593      0.0000 
     11 C2'        -4.0900   49.2160   -6.6260 C.3       1 5GP593      0.0000 
     12 O2'        -4.4920   49.6960   -7.9070 O.3       1 5GP593      0.0000 
     13 C1'        -4.4890   50.2420   -5.5690 C.3       1 5GP593      0.0000 
     14 N9         -3.3930   51.1610   -5.1720 N.pl3     1 5GP593      0.0000 
     15 C8         -2.1420   51.1950   -5.6400 C.2       1 5GP593      0.0000 
     16 N7         -1.4700   52.1700   -5.0310 N.2       1 5GP593      0.0000 
     17 C5         -2.2900   52.7610   -4.1670 C.2       1 5GP593      0.0000 
     18 C6         -2.1230   53.8180   -3.2780 C.2       1 5GP593      0.0000 
     19 O6         -1.0410   54.3920   -3.1930 O.2       1 5GP593      0.0000 
     20 N1         -3.2000   54.2280   -2.4790 N.am      1 5GP593      0.0000 
     21 C2         -4.4330   53.5770   -2.5760 C.2       1 5GP593      0.0000 
     22 N2         -5.4510   53.9630   -1.8170 N.pl3     1 5GP593      0.0000 
     23 N3         -4.5940   52.5200   -3.4680 N.2       1 5GP593      0.0000 
     24 C4         -3.5140   52.1180   -4.2600 C.2       1 5GP593      0.0000 
     25 H          -3.1100   46.8919   -4.8537 H         1 5GP593      0.0000 
     26 H          -3.0426   48.1688   -3.6270 H         1 5GP593      0.0000 
     27 H          -5.7926   47.6196   -4.3256 H         1 5GP593      0.0000 
     28 H          -4.4072   47.1282   -6.5268 H         1 5GP593      0.0000 
     29 H          -3.0749   49.0086   -6.5313 H         1 5GP593      0.0000 
     30 H          -5.3355   50.7954   -5.9223 H         1 5GP593      0.0000 
     31 H          -1.7793   50.5967   -6.3226 H         1 5GP593      0.0000 
     32 H          -3.0806   55.0075   -1.8226 H         1 5GP593      0.0000 
     33 H          -5.2646   54.7080   -1.1765 H         1 5GP593      0.0000 
     34 H          -6.3124   53.4740   -1.9542 H         1 5GP593      0.0000 
     35 H          -6.3814   47.3276   -7.3060 H         1 5GP593      0.0000 
     36 H          -5.3932   49.2919   -8.0635 H         1 5GP593      0.0000 
@<TRIPOS>BOND
     1    2    1 ar   
     2    3    1 ar   
     3    4    1 ar   
     4    5    1 1    
     5    6    5 1    
     6    7    6 1    
     7   25    6 1    
     8   26    6 1    
     9    8    7 1    
    10    9    7 1    
    11   27    7 1    
    12   13    8 1    
    13   10    9 1    
    14   11    9 1    
    15   28    9 1    
    16   35   10 1    
    17   12   11 1    
    18   13   11 1    
    19   29   11 1    
    20   36   12 1    
    21   14   13 1    
    22   30   13 1    
    23   15   14 1    
    24   24   14 1    
    25   16   15 2    
    26   31   15 1    
    27   17   16 1    
    28   18   17 1    
    29   24   17 2    
    30   19   18 2    
    31   20   18 am   
    32   21   20 1    
    33   32   20 1    
    34   22   21 1    
    35   23   21 2    
    36   33   22 1    
    37   34   22 1    
    38   24   23 1    
@<TRIPOS>SUBSTRUCTURE
     1 5GP593      1 GROUP   
@<TRIPOS>SET

