#    Name: 1svl_ADP_1_INTS_M
#    Modification time : Tue Mar 25 02:49:51 2014

@<TRIPOS>MOLECULE
1svl_ADP_1_INTS_M
   68     0    15     0     0
SMALL
NO_CHARGES


@<TRIPOS>ATOM
      1 NZ         33.8810   41.1975   76.9130 N.4       3 LYC4        0.0000 
      2 NZ         32.8210   42.1940   76.8120 N.4      13 LYL4        0.0000 
      3 NZ         34.9410   40.2010   77.0140 N.4       8 LYP4        0.0000 
      4 N          31.5675   41.5355   77.3130 N.am      2 SEC2        0.0000 
      5 N          32.8210   42.1940   76.8120 N.am     12 SEL2        0.0000 
      6 N          30.3140   40.8770   77.8140 N.am      7 SEP2        0.0000 
      7 N          31.8085   42.7005   77.9000 N.am      2 SEC2        0.0000 
      8 N          30.7960   43.2070   78.9880 N.am      7 SEP2        0.0000 
      9 N          33.1015   43.2410   77.9305 N.am      2 SEC2        0.0000 
     10 N          33.3820   44.2880   79.0490 N.am      7 SEP2        0.0000 
     11 N          33.8810   41.1975   76.9130 N.am      2 SEC2        0.0000 
     12 N          34.9410   40.2010   77.0140 N.am      7 SEP2        0.0000 
     13 Zn         34.6140   43.6455   74.3010 Zn        4 ZIC7        0.0000 
     14 Zn         33.9490   43.6650   75.0730 Zn       14 ZIL7        0.0000 
     15 Zn         35.2790   43.6260   73.5290 Zn        9 ZIP7        0.0000 
     16 N          34.2755   44.8140   75.9990 N.am      2 SEC2        0.0000 
     17 N          33.9490   43.6650   75.0730 N.am     12 SEL2        0.0000 
     18 N          34.6020   45.9630   76.9250 N.am      7 SEP2        0.0000 
     19 NZ         33.9190   40.8185   75.7545 N.4       3 LYC4        0.0000 
     20 NZ         32.8970   41.4360   74.4950 N.4      13 LYL4        0.0000 
     21 N          31.7910   40.7240   74.7800 N.am      2 SEC2        0.0000 
     22 N          32.8970   41.4360   74.4950 N.am     12 SEL2        0.0000 
     23 N          30.6850   40.0120   75.0650 N.am      7 SEP2        0.0000 
     24 N          32.0315   46.8005   76.7115 N.am      2 SEC2        0.0000 
     25 N          31.3260   45.5690   76.4690 N.am     12 SEL2        0.0000 
     26 N          32.7370   48.0320   76.9540 N.am      7 SEP2        0.0000 
     27 N          30.5990   46.6405   76.6935 N.am      2 SEC2        0.0000 
     28 N          29.8720   47.7120   76.9180 N.am      7 SEP2        0.0000 
     29 CA         29.0800   42.3090   75.0455 C.3       5 GLC5        0.0000 
     30 CA         28.6530   43.8870   74.5820 C.3      15 GLL5        0.0000 
     31 CA         29.5070   40.7310   75.5090 C.3      10 GLP5        0.0000 
     32 CA         29.6290   44.0905   72.9160 C.3       5 GLC5        0.0000 
     33 CA         30.6050   44.2940   71.2500 C.3      10 GLP5        0.0000 
     34 CA         27.7445   42.3025   74.5510 C.3       5 GLC5        0.0000 
     35 CA         27.2150   44.3920   74.3510 C.3      15 GLL5        0.0000 
     36 CA         28.2740   40.2130   74.7510 C.3      10 GLP5        0.0000 
     37 CA         28.2425   44.4160   72.4415 C.3       5 GLC5        0.0000 
     38 CA         29.2700   44.4400   70.5320 C.3      10 GLP5        0.0000 
     39 CA         24.8350   47.5815   75.0065 C.3       5 GLC5        0.0000 
     40 CA         25.6090   45.5990   75.7290 C.3      15 GLL5        0.0000 
     41 CA         24.0610   49.5640   74.2840 C.3      10 GLP5        0.0000 
     42 CA         26.6765   40.0090   80.7095 C.3       5 GLC5        0.0000 
     43 CA         26.4410   41.8250   80.3800 C.3      15 GLL5        0.0000 
     44 CA         26.9120   38.1930   81.0390 C.3      10 GLP5        0.0000 
     45 O          27.6360   40.6285   82.3195 O.2       1 ALC1        0.0000 
     46 O          27.2080   41.7690   81.4880 O.2      11 ALL1        0.0000 
     47 O          28.0640   39.4880   83.1510 O.2       6 ALP1        0.0000 
     48 N          25.1005   39.9070   81.1130 N.am      2 SEC2        0.0000 
     49 N          25.4090   40.9370   80.2250 N.am     12 SEL2        0.0000 
     50 N          24.7920   38.8770   82.0010 N.am      7 SEP2        0.0000 
     51 CA         25.7555   39.5690   80.0845 C.3       5 GLC5        0.0000 
     52 CA         24.5990   40.9450   79.1300 C.3      15 GLL5        0.0000 
     53 CA         24.1300   39.8760   81.0245 C.3       5 GLC5        0.0000 
     54 CA         23.6610   38.8070   82.9190 C.3      10 GLP5        0.0000 
     55 CA         23.7215   42.0845   80.5550 C.3       5 GLC5        0.0000 
     56 CA         22.8440   43.2240   81.9800 C.3      10 GLP5        0.0000 
     57 CA         22.6250   40.9300   78.4445 C.3       5 GLC5        0.0000 
     58 CA         20.6510   40.9150   77.7590 C.3      10 GLP5        0.0000 
     59 CA         23.9872   45.7540   76.6688 C.3       5 GLC5        0.0000 
     60 CA         25.6060   44.1070   76.0820 C.3      15 GLL5        0.0000 
     61 CA         22.3670   46.6550   77.4320 C.3      10 GLP5        0.0000 
     62 CA         27.4337   43.7355   81.2490 C.3       5 GLC5        0.0000 
     63 CA         26.6820   42.7890   79.3820 C.3      15 GLL5        0.0000 
     64 CA         28.3060   45.1640   82.6170 C.3      10 GLP5        0.0000 
     65 CA         28.3493   41.5925   79.5740 C.3       5 GLC5        0.0000 
     66 CA         30.1370   40.8780   79.2670 C.3      10 GLP5        0.0000 
     67 CA         25.7553   42.7990   81.6115 C.3       5 GLC5        0.0000 
     68 CA         24.9490   43.2910   83.3420 C.3      10 GLP5        0.0000 
@<TRIPOS>BOND
@<TRIPOS>SUBSTRUCTURE
     1 ALC1       45 GROUP        1 X    ALC  0     ROOT ALC X 1
     2 SEC2        4 GROUP        1 X    SEC  0     **** SEC X 2
     3 LYC4        1 GROUP        1 X    LYC  0     **** LYC X 4
     4 ZIC7       13 GROUP        1 X    ZIC  0     **** ZIC X 5
     5 GLC5       29 GROUP        1 X    GLC  0     **** GLC X 6
     6 ALP1       47 GROUP        1 Y    ALP  0     ROOT ALP Y 8
     7 SEP2        6 GROUP        1 Y    SEP  0     **** SEP Y 9
     8 LYP4        3 GROUP        1 Y    LYP  0     **** LYP Y 11
     9 ZIP7       15 GROUP        1 Y    ZIP  0     **** ZIP Y 12
    10 GLP5       31 GROUP        1 Y    GLP  0     **** GLP Y 13
    11 ALL1       46 GROUP        1 Z    ALL  0     ROOT ALL Z 15
    12 SEL2        5 GROUP        1 Z    SEL  0     **** SEL Z 16
    13 LYL4        2 GROUP        1 Z    LYL  0     **** LYL Z 18
    14 ZIL7       14 GROUP        1 Z    ZIL  0     **** ZIL Z 19
    15 GLL5       30 GROUP        1 Z    GLL  0     **** GLL Z 20
@<TRIPOS>SET

