#    Name: 1svl_ADP_1_ligand
#    Modification time : Tue Mar 25 02:49:51 2014

@<TRIPOS>MOLECULE
1svl_ADP_1_ligand
   39    41     1     0     0
SMALL
NO_CHARGES


@<TRIPOS>ATOM
      1 PB         32.7920   42.6260   75.3970 P.3       1 ADP800      0.0000 
      2 O1B        32.8210   42.1940   76.8120 O.co2     1 ADP800      0.0000 
      3 O2B        33.9490   43.6650   75.0730 O.co2     1 ADP800      0.0000 
      4 O3B        32.8970   41.4360   74.4950 O.co2     1 ADP800      0.0000 
      5 PA         31.0250   44.9510   75.1690 P.3       1 ADP800      0.0000 
      6 O1A        31.3260   45.5690   76.4690 O.co2     1 ADP800      0.0000 
      7 O2A        31.7060   45.6860   74.1080 O.co2     1 ADP800      0.0000 
      8 O3A        31.4580   43.4140   75.1370 O.3       1 ADP800      0.0000 
      9 O5'        29.4840   45.0150   74.8600 O.3       1 ADP800      0.0000 
     10 C5'        28.6530   43.8870   74.5820 C.3       1 ADP800      0.0000 
     11 C4'        27.2150   44.3920   74.3510 C.3       1 ADP800      0.0000 
     12 O4'        26.4090   43.4600   75.0800 O.3       1 ADP800      0.0000 
     13 C3'        26.8960   45.7750   74.9450 C.3       1 ADP800      0.0000 
     14 O3'        26.7750   46.8080   73.9380 O.3       1 ADP800      0.0000 
     15 C2'        25.6090   45.5990   75.7290 C.3       1 ADP800      0.0000 
     16 O2'        24.4750   46.0660   74.9620 O.3       1 ADP800      0.0000 
     17 C1'        25.6060   44.1070   76.0820 C.3       1 ADP800      0.0000 
     18 N9         26.2150   43.7370   77.4310 N.pl3     1 ADP800      0.0000 
     19 C8         27.2900   44.3480   78.0270 C.2       1 ADP800      0.0000 
     20 N7         27.5490   43.7580   79.1940 N.2       1 ADP800      0.0000 
     21 C5         26.6820   42.7890   79.3820 C.ar      1 ADP800      0.0000 
     22 C6         26.4410   41.8250   80.3800 C.ar      1 ADP800      0.0000 
     23 N6         27.2080   41.7690   81.4880 N.pl3     1 ADP800      0.0000 
     24 N1         25.4090   40.9370   80.2250 N.ar      1 ADP800      0.0000 
     25 C2         24.5990   40.9450   79.1300 C.ar      1 ADP800      0.0000 
     26 N3         24.8120   41.8520   78.1670 N.ar      1 ADP800      0.0000 
     27 C4         25.8150   42.7680   78.2380 C.ar      1 ADP800      0.0000 
     28 H          28.6248   43.1834   75.4123 H         1 ADP800      0.0000 
     29 H          28.9645   43.3595   73.6821 H         1 ADP800      0.0000 
     30 H          26.9847   44.3652   73.3265 H         1 ADP800      0.0000 
     31 H          27.6817   46.0026   75.6594 H         1 ADP800      0.0000 
     32 H          25.7336   46.1500   76.6550 H         1 ADP800      0.0000 
     33 H          24.5999   43.7357   76.0296 H         1 ADP800      0.0000 
     34 H          27.7740   45.0962   77.6386 H         1 ADP800      0.0000 
     35 H          27.2686   40.8773   81.9366 H         1 ADP800      0.0000 
     36 H          27.6478   42.6242   81.7624 H         1 ADP800      0.0000 
     37 H          23.8309   40.2545   79.0522 H         1 ADP800      0.0000 
     38 H          25.8214   47.1053   73.9856 H         1 ADP800      0.0000 
     39 H          24.1222   45.2522   74.5002 H         1 ADP800      0.0000 
@<TRIPOS>BOND
     1    2    1 ar   
     2    3    1 ar   
     3    4    1 ar   
     4    8    1 1    
     5    6    5 ar   
     6    7    5 ar   
     7    8    5 1    
     8    9    5 1    
     9   10    9 1    
    10   11   10 1    
    11   28   10 1    
    12   29   10 1    
    13   12   11 1    
    14   13   11 1    
    15   30   11 1    
    16   17   12 1    
    17   14   13 1    
    18   15   13 1    
    19   31   13 1    
    20   38   14 1    
    21   16   15 1    
    22   17   15 1    
    23   32   15 1    
    24   39   16 1    
    25   18   17 1    
    26   33   17 1    
    27   19   18 1    
    28   27   18 1    
    29   20   19 2    
    30   34   19 1    
    31   21   20 1    
    32   22   21 ar   
    33   27   21 ar   
    34   23   22 1    
    35   24   22 ar   
    36   35   23 1    
    37   36   23 1    
    38   25   24 ar   
    39   26   25 ar   
    40   37   25 1    
    41   27   26 ar   
@<TRIPOS>SUBSTRUCTURE
     1 ADP800      1 GROUP   
@<TRIPOS>SET

