#    Name: 3rf4_FUN_3_INTS_M
#    Modification time : Tue Mar 25 11:23:30 2014

@<TRIPOS>MOLECULE
3rf4_FUN_3_INTS_M
   59     0     9     0     0
SMALL
NO_CHARGES


@<TRIPOS>ATOM
      1 CA        -46.6575   15.1410   13.3115 C.3       3 GLC5        0.0000 
      2 CA        -46.6780   16.2950   14.8520 C.3       9 GLL5        0.0000 
      3 CA        -46.6370   13.9870   11.7710 C.3       6 GLP5        0.0000 
      4 CA        -47.9455   17.6105   16.1115 C.3       3 GLC5        0.0000 
      5 CA        -49.2130   18.9260   17.3710 C.3       6 GLP5        0.0000 
      6 CA        -50.5180   16.7330   12.3990 C.3       3 GLC5        0.0000 
      7 CA        -49.2250   16.3700   13.9760 C.3       9 GLL5        0.0000 
      8 CA        -51.8110   17.0960   10.8220 C.3       6 GLP5        0.0000 
      9 CA        -47.0615   20.5080   13.1090 C.3       3 GLC5        0.0000 
     10 CA        -46.2780   18.5270   13.0530 C.3       9 GLL5        0.0000 
     11 CA        -47.8450   22.4890   13.1650 C.3       6 GLP5        0.0000 
     12 CA        -47.4135   21.2630   12.1545 C.3       3 GLC5        0.0000 
     13 CA        -46.9820   20.0370   11.1440 C.3       9 GLL5        0.0000 
     14 CA        -44.3520   16.8625    7.8615 C.3       3 GLC5        0.0000 
     15 CA        -46.2660   17.8660    8.2960 C.3       9 GLL5        0.0000 
     16 CA        -42.4380   15.8590    7.4270 C.3       6 GLP5        0.0000 
     17 CA        -43.3775   17.4510   12.8820 C.3       3 GLC5        0.0000 
     18 CA        -45.2080   17.9800   13.9290 C.3       9 GLL5        0.0000 
     19 CA        -41.5470   16.9220   11.8350 C.3       6 GLP5        0.0000 
     20 NZ        -42.5945   18.1580   12.8970 N.4       2 LYC4        0.0000 
     21 NZ        -43.0420   18.2210   14.7250 N.4       8 LYL4        0.0000 
     22 NZ        -42.1470   18.0950   11.0690 N.4       5 LYP4        0.0000 
     23 NZ        -42.5485   17.3460   15.7120 N.4       2 LYC4        0.0000 
     24 NZ        -42.0550   16.4710   16.6990 N.4       5 LYP4        0.0000 
     25 N         -42.5485   17.3460   15.7120 N.am      1 SEC2        0.0000 
     26 N         -43.0420   18.2210   14.7250 N.am      7 SEL2        0.0000 
     27 N         -42.0550   16.4710   16.6990 N.am      4 SEP2        0.0000 
     28 N         -42.3895   19.4450   15.3670 N.am      1 SEC2        0.0000 
     29 N         -41.7370   20.6690   16.0090 N.am      4 SEP2        0.0000 
     30 NZ        -42.8765   18.7765   12.0535 N.4       2 LYC4        0.0000 
     31 NZ        -43.6060   19.4580   13.0380 N.4       8 LYL4        0.0000 
     32 N         -42.8765   18.7765   12.0535 N.am      1 SEC2        0.0000 
     33 N         -43.6060   19.4580   13.0380 N.am      7 SEL2        0.0000 
     34 N         -42.1470   18.0950   11.0690 N.am      4 SEP2        0.0000 
     35 CA        -49.0883   18.3667   14.5883 C.3       3 GLC5        0.0000 
     36 CA        -49.6700   20.1070   15.1880 C.3       6 GLP5        0.0000 
     37 CA        -47.9546   15.9364   12.3926 C.3       3 GLC5        0.0000 
     38 CA        -47.7880   16.8830   14.0010 C.3       9 GLL5        0.0000 
     39 CA        -47.8810   14.5860   11.2310 C.3       6 GLP5        0.0000 
     40 CA        -46.4785   19.3505   14.7703 C.3       3 GLC5        0.0000 
     41 CA        -47.5500   17.9470   13.1200 C.3       9 GLL5        0.0000 
     42 CA        -46.0430   20.4640   16.4540 C.3       6 GLP5        0.0000 
     43 CA        -48.2920   19.1720   14.1372 C.3       3 GLC5        0.0000 
     44 CA        -46.9419   20.6235    8.8939 C.3       3 GLC5        0.0000 
     45 CA        -46.9610   19.0770    9.9810 C.3       9 GLL5        0.0000 
     46 CA        -47.4570   22.0670    7.8930 C.3       6 GLP5        0.0000 
     47 CA        -45.1844   20.3955   10.0719 C.3       3 GLC5        0.0000 
     48 CA        -43.9420   21.6110   10.2490 C.3       6 GLP5        0.0000 
     49 CA        -46.9493   16.6390    6.7295 C.3       3 GLC5        0.0000 
     50 CA        -46.9870   15.5650    5.0510 C.3       6 GLP5        0.0000 
     51 CA        -47.3107   18.7815    6.9790 C.3       3 GLC5        0.0000 
     52 CA        -47.5570   17.5600    8.5200 C.3       9 GLL5        0.0000 
     53 CA        -47.7100   19.8500    5.5500 C.3       6 GLP5        0.0000 
     54 CA        -46.0902   16.2966    9.1469 C.3       3 GLC5        0.0000 
     55 CA        -45.3650   14.6460    9.6530 C.3       6 GLP5        0.0000 
     56 CA        -45.6690   18.9413   15.4093 C.3       3 GLC5        0.0000 
     57 CA        -45.4528   16.0541   12.6687 C.3       3 GLC5        0.0000 
     58 CA        -45.3820   16.8570   14.8000 C.3       9 GLL5        0.0000 
     59 CA        -45.3430   14.5530   11.1920 C.3       6 GLP5        0.0000 
@<TRIPOS>BOND
@<TRIPOS>SUBSTRUCTURE
     1 SEC2       25 GROUP        1 X    SEC  0     ROOT SEC X 2
     2 LYC4       20 GROUP        1 X    LYC  0     **** LYC X 4
     3 GLC5        1 GROUP        1 X    GLC  0     **** GLC X 6
     4 SEP2       27 GROUP        1 Y    SEP  0     ROOT SEP Y 9
     5 LYP4       22 GROUP        1 Y    LYP  0     **** LYP Y 11
     6 GLP5        3 GROUP        1 Y    GLP  0     **** GLP Y 13
     7 SEL2       26 GROUP        1 Z    SEL  0     ROOT SEL Z 16
     8 LYL4       21 GROUP        1 Z    LYL  0     **** LYL Z 18
     9 GLL5        2 GROUP        1 Z    GLL  0     **** GLL Z 20
@<TRIPOS>SET

