#    Name: 3rf4_FUN_3_ligand
#    Modification time : Tue Mar 25 11:23:30 2014

@<TRIPOS>MOLECULE
3rf4_FUN_3_ligand
   31    32     1     0     0
SMALL
NO_CHARGES


@<TRIPOS>ATOM
      1 N1        -47.5840   13.9070   14.9810 N.pl3     1 FUN202      0.0000 
      2 S1        -47.0000   14.9840   15.8830 S.o2      1 FUN202      0.0000 
      3 O1        -45.7050   14.5310   16.3800 O.2       1 FUN202      0.0000 
      4 O2        -47.9030   15.4620   16.9110 O.2       1 FUN202      0.0000 
      5 C1        -46.6780   16.2950   14.8520 C.ar      1 FUN202      0.0000 
      6 C2        -47.7880   16.8830   14.0010 C.ar      1 FUN202      0.0000 
      7 CL1       -49.2250   16.3700   13.9760 Cl        1 FUN202      0.0000 
      8 C3        -47.5500   17.9470   13.1200 C.ar      1 FUN202      0.0000 
      9 C4        -46.2780   18.5270   13.0530 C.ar      1 FUN202      0.0000 
     10 N2        -46.0060   19.5950   12.1710 N.pl3     1 FUN202      0.0000 
     11 C5        -46.9820   20.0370   11.1440 C.3       1 FUN202      0.0000 
     12 C6        -46.9610   19.0770    9.9810 C.2       1 FUN202      0.0000 
     13 C7        -45.8820   18.8030    9.2270 C.2       1 FUN202      0.0000 
     14 C8        -46.2660   17.8660    8.2960 C.2       1 FUN202      0.0000 
     15 C9        -47.5570   17.5600    8.5200 C.2       1 FUN202      0.0000 
     16 O3        -48.0220   18.3210    9.5890 O.3       1 FUN202      0.0000 
     17 C10       -45.2080   17.9800   13.9290 C.ar      1 FUN202      0.0000 
     18 C11       -45.3820   16.8570   14.8000 C.ar      1 FUN202      0.0000 
     19 C12       -43.8740   18.5950   13.8770 C.2       1 FUN202      0.0000 
     20 O4        -43.0420   18.2210   14.7250 O.co2     1 FUN202      0.0000 
     21 O5        -43.6060   19.4580   13.0380 O.co2     1 FUN202      0.0000 
     22 H         -48.4651   14.1178   14.5577 H         1 FUN202      0.0000 
     23 H         -47.0407   13.0733   14.8826 H         1 FUN202      0.0000 
     24 H         -48.3069   18.2990   12.5262 H         1 FUN202      0.0000 
     25 H         -45.1156   20.1003   12.2169 H         1 FUN202      0.0000 
     26 H         -46.7262   21.0357   10.7884 H         1 FUN202      0.0000 
     27 H         -47.9864   20.0639   11.5678 H         1 FUN202      0.0000 
     28 H         -45.0088   19.1770    9.3074 H         1 FUN202      0.0000 
     29 H         -45.6985   17.5044    7.6125 H         1 FUN202      0.0000 
     30 H         -48.0934   16.9249    8.0368 H         1 FUN202      0.0000 
     31 H         -44.6270   16.4986   15.3353 H         1 FUN202      0.0000 
@<TRIPOS>BOND
     1    2    1 1    
     2   22    1 1    
     3   23    1 1    
     4    3    2 2    
     5    4    2 2    
     6    5    2 1    
     7    6    5 ar   
     8   18    5 ar   
     9    7    6 1    
    10    8    6 ar   
    11    9    8 ar   
    12   24    8 1    
    13   10    9 1    
    14   17    9 ar   
    15   11   10 1    
    16   25   10 1    
    17   12   11 1    
    18   26   11 1    
    19   27   11 1    
    20   13   12 2    
    21   16   12 1    
    22   14   13 1    
    23   28   13 1    
    24   15   14 2    
    25   29   14 1    
    26   16   15 1    
    27   30   15 1    
    28   18   17 ar   
    29   19   17 1    
    30   31   18 1    
    31   20   19 ar   
    32   21   19 ar   
@<TRIPOS>SUBSTRUCTURE
     1 FUN202      1 GROUP   
@<TRIPOS>SET

