#    Name: 4aa0_AA0_1_INTS_M
#    Modification time : Tue Mar 25 05:20:51 2014

@<TRIPOS>MOLECULE
4aa0_AA0_1_INTS_M
   95     0     9     0     0
SMALL
NO_CHARGES


@<TRIPOS>ATOM
      1 CA         -5.3065   -2.3925   24.1530 C.3       3 GLC5        0.0000 
      2 CA         -4.0520   -0.7470   23.6010 C.3       9 GLL5        0.0000 
      3 CA         -6.5610   -4.0380   24.7050 C.3       6 GLP5        0.0000 
      4 O          -3.3085    4.2715   15.1400 O.2       1 ALC1        0.0000 
      5 O          -2.5080    3.2070   15.7910 O.2       7 ALL1        0.0000 
      6 O          -4.1090    5.3360   14.4890 O.2       4 ALP1        0.0000 
      7 N           0.6815    2.5120   17.1105 N.am      2 SEC2        0.0000 
      8 N          -0.6360    2.0640   16.5550 N.am      8 SEL2        0.0000 
      9 N           1.9990    2.9600   17.6660 N.am      5 SEP2        0.0000 
     10 CA          0.8780    5.0485   11.5905 C.3       3 GLC5        0.0000 
     11 CA          0.2550    5.4680   13.4620 C.3       9 GLL5        0.0000 
     12 CA          1.5010    4.6290    9.7190 C.3       6 GLP5        0.0000 
     13 CA          1.5975    4.1305   11.5665 C.3       3 GLC5        0.0000 
     14 CA          1.6940    3.6320   13.4140 C.3       9 GLL5        0.0000 
     15 CA          1.5100    2.1060   11.8385 C.3       3 GLC5        0.0000 
     16 CA          1.3260    0.5800   10.2630 C.3       6 GLP5        0.0000 
     17 CA          0.5210    1.0520   14.5285 C.3       3 GLC5        0.0000 
     18 CA          0.8610    2.9950   14.3380 C.3       9 GLL5        0.0000 
     19 CA          0.1810   -0.8910   14.7190 C.3       6 GLP5        0.0000 
     20 CA          1.8590    1.8620   15.7900 C.3       3 GLC5        0.0000 
     21 CA          2.8570    0.7290   17.2420 C.3       6 GLP5        0.0000 
     22 CA          2.3390    1.1790   11.8985 C.3       3 GLC5        0.0000 
     23 CA          3.3520    1.7780   13.5340 C.3       9 GLL5        0.0000 
     24 CA          1.7665    0.4435   14.1265 C.3       3 GLC5        0.0000 
     25 CA          3.1045    1.2535   15.3880 C.3       3 GLC5        0.0000 
     26 CA          3.6290    0.7590   11.0140 C.3       3 GLC5        0.0000 
     27 CA          4.4100    1.0460   12.7050 C.3       9 GLL5        0.0000 
     28 CA          2.8480    0.4720    9.3230 C.3       6 GLP5        0.0000 
     29 CA          4.0360   -0.6670   12.2405 C.3       3 GLC5        0.0000 
     30 CA          3.6620   -2.3800   11.7760 C.3       6 GLP5        0.0000 
     31 CA          5.5695    0.2365   10.9580 C.3       3 GLC5        0.0000 
     32 CA          6.7290   -0.5730    9.2110 C.3       6 GLP5        0.0000 
     33 CA          3.9155    1.7615   10.4785 C.3       3 GLC5        0.0000 
     34 CA          4.9830    3.0510   11.6340 C.3       9 GLL5        0.0000 
     35 CA          6.8435    2.2720   11.1050 C.3       3 GLC5        0.0000 
     36 CA          8.7040    1.4930   10.5760 C.3       6 GLP5        0.0000 
     37 CA          5.5210    3.3185    9.7070 C.3       3 GLC5        0.0000 
     38 CA          6.0590    3.5860    7.7800 C.3       6 GLP5        0.0000 
     39 CA         -6.1595    3.5270   14.7005 C.3       3 GLC5        0.0000 
     40 CA         -4.7610    2.4720   16.0070 C.3       9 GLL5        0.0000 
     41 CA         -7.5580    4.5820   13.3940 C.3       6 GLP5        0.0000 
     42 CA         -7.3585    2.1970   15.3905 C.3       3 GLC5        0.0000 
     43 CA         -5.8220    1.8800   16.6590 C.3       9 GLL5        0.0000 
     44 CA         -8.8950    2.5140   14.1220 C.3       6 GLP5        0.0000 
     45 CA         -7.0630   -0.6235   19.9875 C.3       3 GLC5        0.0000 
     46 CA         -6.7400    0.7070   18.6280 C.3       9 GLL5        0.0000 
     47 CA         -7.3860   -1.9540   21.3470 C.3       6 GLP5        0.0000 
     48 CA         -5.6030    1.2650   27.5115 C.3       3 GLC5        0.0000 
     49 CA         -3.4460    1.6010   26.9710 C.3       9 GLL5        0.0000 
     50 CA         -7.7600    0.9290   28.0520 C.3       6 GLP5        0.0000 
     51 CA         -5.5215    4.7030   26.8825 C.3       3 GLC5        0.0000 
     52 CA         -3.9830    3.6670   25.6130 C.3       9 GLL5        0.0000 
     53 CA         -7.0600    5.7390   28.1520 C.3       6 GLP5        0.0000 
     54 CA         -5.9925    0.8955   25.5995 C.3       3 GLC5        0.0000 
     55 CA         -4.0690    1.4570   24.6210 C.3       9 GLL5        0.0000 
     56 CA         -7.9270    1.0220   26.5310 C.3       6 GLP5        0.0000 
     57 CA         -5.7275   -1.2098   22.1568 C.3       3 GLC5        0.0000 
     58 CA         -2.7510   -1.8702   22.4913 C.3       3 GLC5        0.0000 
     59 CA         -4.0860   -0.1840   22.3320 C.3       9 GLL5        0.0000 
     60 CA         -1.4330   -3.2750   22.0160 C.3       6 GLP5        0.0000 
     61 CA         -6.0370    1.1618   22.6330 C.3       3 GLC5        0.0000 
     62 CA         -7.9770    1.8180   22.9820 C.3       6 GLP5        0.0000 
     63 CA         -2.7564    0.3930   17.1716 C.3       3 GLC5        0.0000 
     64 CA         -3.4990    2.5460   16.5630 C.3       9 GLL5        0.0000 
     65 CA         -1.8660   -1.3480   16.9740 C.3       6 GLP5        0.0000 
     66 CA         -1.0263    2.2555   13.3777 C.3       3 GLC5        0.0000 
     67 CA         -0.2900    3.6170   14.8150 C.3       9 GLL5        0.0000 
     68 CA         -2.3380    1.2050   12.1790 C.3       6 GLP5        0.0000 
     69 CA         -1.9675    5.6020   13.0667 C.3       3 GLC5        0.0000 
     70 CA         -0.6110    4.8860   14.3690 C.3       9 GLL5        0.0000 
     71 CA         -3.7570    6.0270   12.2180 C.3       6 GLP5        0.0000 
     72 CA          1.1036    5.0819   15.4500 C.3       3 GLC5        0.0000 
     73 CA          2.3050    5.3040   16.8730 C.3       6 GLP5        0.0000 
     74 CA          1.7913    4.3087   15.3745 C.3       3 GLC5        0.0000 
     75 CA          5.3305    2.5160   14.0833 C.3       3 GLC5        0.0000 
     76 CA          6.7800    3.6200   15.0470 C.3       6 GLP5        0.0000 
     77 CA          5.4110    0.7550   14.3833 C.3       3 GLC5        0.0000 
     78 CA          6.9410    0.0980   15.6470 C.3       6 GLP5        0.0000 
     79 CA          2.9852    4.0430   10.8768 C.3       3 GLC5        0.0000 
     80 CA          5.6248    3.5385   13.5407 C.3       3 GLC5        0.0000 
     81 CA          3.9560    3.8630   12.4350 C.3       9 GLL5        0.0000 
     82 CA         -5.4023    0.2745   16.0250 C.3       3 GLC5        0.0000 
     83 CA         -5.5130   -1.6270   15.7170 C.3       6 GLP5        0.0000 
     84 CA         -5.6430    3.9117   16.8010 C.3       3 GLC5        0.0000 
     85 CA         -6.3100    5.6290   17.1300 C.3       6 GLP5        0.0000 
     86 CA         -4.8010    2.2008   14.4280 C.3       3 GLC5        0.0000 
     87 CA         -4.6260    2.2070   12.3840 C.3       6 GLP5        0.0000 
     88 CA         -7.3995    2.5522   18.4615 C.3       3 GLC5        0.0000 
     89 CA         -5.5880    1.3500   17.9240 C.3       9 GLL5        0.0000 
     90 CA         -8.6350    4.0760   18.6470 C.3       6 GLP5        0.0000 
     91 CA         -5.6804   -0.2908   17.0696 C.3       3 GLC5        0.0000 
     92 CA         -6.0307    1.7783   23.4838 C.3       3 GLC5        0.0000 
     93 CA         -4.1000    2.0200   23.3500 C.3       9 GLL5        0.0000 
     94 CA         -2.0365    3.3417   24.1280 C.3       3 GLC5        0.0000 
     95 CA         -0.8100    2.7960   22.5510 C.3       6 GLP5        0.0000 
@<TRIPOS>BOND
@<TRIPOS>SUBSTRUCTURE
     1 ALC1        4 GROUP        1 X    ALC  0     ROOT ALC X 1
     2 SEC2        7 GROUP        1 X    SEC  0     **** SEC X 2
     3 GLC5        1 GROUP        1 X    GLC  0     **** GLC X 6
     4 ALP1        6 GROUP        1 Y    ALP  0     ROOT ALP Y 8
     5 SEP2        9 GROUP        1 Y    SEP  0     **** SEP Y 9
     6 GLP5        3 GROUP        1 Y    GLP  0     **** GLP Y 13
     7 ALL1        5 GROUP        1 Z    ALL  0     ROOT ALL Z 15
     8 SEL2        8 GROUP        1 Z    SEL  0     **** SEL Z 16
     9 GLL5        2 GROUP        1 Z    GLL  0     **** GLL Z 20
@<TRIPOS>SET

