#    Name: 4aa0_AA0_1_ligand
#    Modification time : Tue Mar 25 05:20:51 2014

@<TRIPOS>MOLECULE
4aa0_AA0_1_ligand
   74    79     1     0     0
SMALL
NO_CHARGES


@<TRIPOS>ATOM
      1 C3         -4.0470    0.0810   24.7150 C.ar      1 AA01353     0.0000 
      2 C4         -4.0520   -0.7470   23.6010 C.ar      1 AA01353     0.0000 
      3 C5         -4.0860   -0.1840   22.3320 C.ar      1 AA01353     0.0000 
      4 N6         -4.0880   -1.0350   21.1970 N.2       1 AA01353     0.0000 
      5 C9         -4.1350    1.7980   20.8860 C.2       1 AA01353     0.0000 
      6 N10        -4.1360    0.9010   19.8270 N.am      1 AA01353     0.0000 
      7 C11        -4.3230    1.4180   18.5090 C.ar      1 AA01353     0.0000 
      8 C12        -3.2660    2.0260   17.8420 C.ar      1 AA01353     0.0000 
      9 C13        -3.4990    2.5460   16.5630 C.ar      1 AA01353     0.0000 
     10 N14        -2.5080    3.2070   15.7910 N.am      1 AA01353     0.0000 
     11 C15        -1.1510    2.9030   15.8110 C.2       1 AA01353     0.0000 
     12 O16        -0.6360    2.0640   16.5550 O.2       1 AA01353     0.0000 
     13 C17        -0.2900    3.6170   14.8150 C.ar      1 AA01353     0.0000 
     14 C18        -0.6110    4.8860   14.3690 C.ar      1 AA01353     0.0000 
     15 C19         0.2550    5.4680   13.4620 C.ar      1 AA01353     0.0000 
     16 N20         1.3800    4.8820   13.0000 N.ar      1 AA01353     0.0000 
     17 C21         1.6940    3.6320   13.4140 C.ar      1 AA01353     0.0000 
     18 C22         0.8610    2.9950   14.3380 C.ar      1 AA01353     0.0000 
     19 N23         2.8650    2.9920   12.8790 N.3       1 AA01353     0.0000 
     20 C28         3.3520    1.7780   13.5340 C.3       1 AA01353     0.0000 
     21 C27         4.4100    1.0460   12.7050 C.3       1 AA01353     0.0000 
     22 O26         5.5030    1.9080   12.3560 O.3       1 AA01353     0.0000 
     23 C25         4.9830    3.0510   11.6340 C.3       1 AA01353     0.0000 
     24 C24         3.9560    3.8630   12.4350 C.3       1 AA01353     0.0000 
     25 C29        -4.7610    2.4720   16.0070 C.ar      1 AA01353     0.0000 
     26 C30        -5.8220    1.8800   16.6590 C.ar      1 AA01353     0.0000 
     27 C31        -5.5880    1.3500   17.9240 C.ar      1 AA01353     0.0000 
     28 C20        -4.1140   -0.4600   20.0290 C.2       1 AA01353     0.0000 
     29 C32        -6.7400    0.7070   18.6280 C.3       1 AA01353     0.0000 
     30 C33        -4.1080    1.1950   22.2360 C.ar      1 AA01353     0.0000 
     31 C34        -4.1000    2.0200   23.3500 C.ar      1 AA01353     0.0000 
     32 C35        -4.0690    1.4570   24.6210 C.ar      1 AA01353     0.0000 
     33 C41        -3.4460    1.6010   26.9710 C.3       1 AA01353     0.0000 
     34 C40        -2.0690    2.1540   27.2670 C.3       1 AA01353     0.0000 
     35 N31        -4.0760    2.2300   25.8030 N.3       1 AA01353     0.0000 
     36 N39        -2.0730    3.6410   27.1310 N.4       1 AA01353     0.0000 
     37 C38        -2.5430    4.1080   25.7970 C.3       1 AA01353     0.0000 
     38 O39        -4.1440    3.0160   20.7820 O.2       1 AA01353     0.0000 
     39 C37        -3.9830    3.6670   25.6130 C.3       1 AA01353     0.0000 
     40 C43        -0.7200    4.1760   27.3700 C.3       1 AA01353     0.0000 
     41 H          -4.0256   -0.3616   25.6664 H         1 AA01353     0.0000 
     42 H          -4.0308   -1.7657   23.7137 H         1 AA01353     0.0000 
     43 H          -2.3468    2.0937   18.2671 H         1 AA01353     0.0000 
     44 H          -2.8376    3.9874   15.1567 H         1 AA01353     0.0000 
     45 H          -1.4393    5.3650   14.6909 H         1 AA01353     0.0000 
     46 H           0.0064    6.4443   13.1121 H         1 AA01353     0.0000 
     47 H           1.1051    2.0471   14.6712 H         1 AA01353     0.0000 
     48 H           2.5208    1.0764   13.7208 H         1 AA01353     0.0000 
     49 H           3.7947    2.0167   14.5163 H         1 AA01353     0.0000 
     50 H           3.9108    0.6447   11.8065 H         1 AA01353     0.0000 
     51 H           4.7536    0.1783   13.2938 H         1 AA01353     0.0000 
     52 H           4.4956    2.7351   10.6899 H         1 AA01353     0.0000 
     53 H           5.8002    3.7410   11.3428 H         1 AA01353     0.0000 
     54 H           4.4683    4.3132   13.2876 H         1 AA01353     0.0000 
     55 H           3.5808    4.6637   11.7945 H         1 AA01353     0.0000 
     56 H          -4.9171    2.8812   15.0543 H         1 AA01353     0.0000 
     57 H          -6.7423    1.8297   16.2367 H         1 AA01353     0.0000 
     58 H          -4.1193   -1.0673   19.1387 H         1 AA01353     0.0000 
     59 H          -4.1168    3.0400   23.2394 H         1 AA01353     0.0000 
     60 H          -4.0787    1.7404   27.8674 H         1 AA01353     0.0000 
     61 H          -3.3584    0.5094   26.8159 H         1 AA01353     0.0000 
     62 H          -1.3513    1.7186   26.5699 H         1 AA01353     0.0000 
     63 H          -1.7817    1.8740   28.2818 H         1 AA01353     0.0000 
     64 H          -2.7408    4.0590   27.8963 H         1 AA01353     0.0000 
     65 H          -1.9350    3.6730   25.0114 H         1 AA01353     0.0000 
     66 H          -2.4924    5.1897   25.7387 H         1 AA01353     0.0000 
     67 H          -4.6031    4.1998   26.3381 H         1 AA01353     0.0000 
     68 H          -4.3062    3.9520   24.6088 H         1 AA01353     0.0000 
     69 H          -6.5587   -0.2543   18.8355 H         1 AA01353     0.0000 
     70 H          -6.9451    1.1605   19.4954 H         1 AA01353     0.0000 
     71 H          -7.5745    0.7358   18.0777 H         1 AA01353     0.0000 
     72 H          -0.0552    3.8091   26.7193 H         1 AA01353     0.0000 
     73 H          -0.6942    5.1721   27.2852 H         1 AA01353     0.0000 
     74 H          -0.3882    3.9511   28.2862 H         1 AA01353     0.0000 
@<TRIPOS>BOND
     1    2    1 ar   
     2   32    1 ar   
     3   41    1 1    
     4    3    2 ar   
     5   42    2 1    
     6    4    3 1    
     7   30    3 ar   
     8   28    4 2    
     9    6    5 am   
    10   30    5 1    
    11   38    5 2    
    12    7    6 1    
    13   28    6 1    
    14    8    7 ar   
    15   27    7 ar   
    16    9    8 ar   
    17   43    8 1    
    18   10    9 1    
    19   25    9 ar   
    20   11   10 am   
    21   44   10 1    
    22   12   11 2    
    23   13   11 1    
    24   14   13 ar   
    25   18   13 ar   
    26   15   14 ar   
    27   45   14 1    
    28   16   15 ar   
    29   46   15 1    
    30   17   16 ar   
    31   18   17 ar   
    32   19   17 1    
    33   47   18 1    
    34   20   19 1    
    35   24   19 1    
    36   21   20 1    
    37   48   20 1    
    38   49   20 1    
    39   22   21 1    
    40   50   21 1    
    41   51   21 1    
    42   23   22 1    
    43   24   23 1    
    44   52   23 1    
    45   53   23 1    
    46   54   24 1    
    47   55   24 1    
    48   26   25 ar   
    49   56   25 1    
    50   27   26 ar   
    51   57   26 1    
    52   29   27 1    
    53   58   28 1    
    54   69   29 1    
    55   70   29 1    
    56   71   29 1    
    57   31   30 ar   
    58   32   31 ar   
    59   59   31 1    
    60   35   32 1    
    61   34   33 1    
    62   35   33 1    
    63   60   33 1    
    64   61   33 1    
    65   36   34 1    
    66   62   34 1    
    67   63   34 1    
    68   39   35 1    
    69   37   36 1    
    70   40   36 1    
    71   64   36 1    
    72   39   37 1    
    73   65   37 1    
    74   66   37 1    
    75   67   39 1    
    76   68   39 1    
    77   72   40 1    
    78   73   40 1    
    79   74   40 1    
@<TRIPOS>SUBSTRUCTURE
     1 AA01353     1 GROUP   
@<TRIPOS>SET

