#    Name: 1wlv_COA_1_INTS_M
#    Modification time : Tue Mar 25 09:08:55 2014

@<TRIPOS>MOLECULE
1wlv_COA_1_INTS_M
   95     0    12     0     0
SMALL
NO_CHARGES


@<TRIPOS>ATOM
      1 CA         19.9700   24.3555  -13.7025 C.3       4 GLC5        0.0000 
      2 CA         21.6320   23.3810  -14.5610 C.3      12 GLL5        0.0000 
      3 CA         18.3080   25.3300  -12.8440 C.3       8 GLP5        0.0000 
      4 CA         19.3470   23.7420  -10.7440 C.3       4 GLC5        0.0000 
      5 CA         20.8650   22.7860   -9.9490 C.3      12 GLL5        0.0000 
      6 CA         17.8290   24.6980  -11.5390 C.3       8 GLP5        0.0000 
      7 NZ         19.2135   18.2295   -6.3365 N.4       3 LYC4        0.0000 
      8 NZ         20.6880   18.4400   -6.8340 N.4      11 LYL4        0.0000 
      9 NZ         16.9400   18.6500   -6.6920 N.4       7 LYP4        0.0000 
     10 N          19.2135   18.2295   -6.3365 N.am      2 SEC2        0.0000 
     11 N          20.6880   18.4400   -6.8340 N.am     10 SEL2        0.0000 
     12 N          17.7390   18.0190   -5.8390 N.am      6 SEP2        0.0000 
     13 NZ         18.4885   18.2395   -8.5295 N.4       3 LYC4        0.0000 
     14 NZ         19.6770   17.7100   -9.0900 N.4      11 LYL4        0.0000 
     15 NZ         19.5550   16.1490   -8.8560 N.4       3 LYC4        0.0000 
     16 NZ         19.4330   14.5880   -8.6220 N.4       7 LYP4        0.0000 
     17 N          18.4885   18.2395   -8.5295 N.am      2 SEC2        0.0000 
     18 N          19.6770   17.7100   -9.0900 N.am     10 SEL2        0.0000 
     19 N          17.3000   18.7690   -7.9690 N.am      6 SEP2        0.0000 
     20 N          19.5550   16.1490   -8.8560 N.am      2 SEC2        0.0000 
     21 N          19.4330   14.5880   -8.6220 N.am      6 SEP2        0.0000 
     22 CA         18.3815   21.6495   -8.2490 C.3       4 GLC5        0.0000 
     23 CA         20.2090   22.3170   -7.7480 C.3      12 GLL5        0.0000 
     24 CA         16.5540   20.9820   -8.7500 C.3       8 GLP5        0.0000 
     25 CA         20.6625   23.2390   -4.8030 C.3       4 GLC5        0.0000 
     26 CA         20.8840   23.1890   -6.6500 C.3      12 GLL5        0.0000 
     27 CA         20.4410   23.2890   -2.9560 C.3       8 GLP5        0.0000 
     28 N          23.3145   23.1715   -3.4945 N.am      2 SEC2        0.0000 
     29 N          23.3460   23.1990   -4.9140 N.am     10 SEL2        0.0000 
     30 N          23.2830   23.1440   -2.0750 N.am      6 SEP2        0.0000 
     31 NZ         25.9315   23.1280   -6.5400 N.4       3 LYC4        0.0000 
     32 NZ         24.5940   23.9060   -7.0710 N.4      11 LYL4        0.0000 
     33 NZ         27.2690   22.3500   -6.0090 N.4       7 LYP4        0.0000 
     34 N          21.3150   25.2025   -2.8540 N.am      2 SEC2        0.0000 
     35 N          22.3410   25.8990   -3.4630 N.am     10 SEL2        0.0000 
     36 N          20.2890   24.5060   -2.2450 N.am      6 SEP2        0.0000 
     37 N          22.8500   25.8245   -2.1875 N.am      2 SEC2        0.0000 
     38 N          23.3590   25.7500   -0.9120 N.am      6 SEP2        0.0000 
     39 N          24.6400   27.7065   -4.4545 N.am      2 SEC2        0.0000 
     40 N          23.1510   27.8940   -4.8120 N.am     10 SEL2        0.0000 
     41 N          26.1290   27.5190   -4.0970 N.am      6 SEP2        0.0000 
     42 CA         20.5400   29.1200   -3.7880 C.3       4 GLC5        0.0000 
     43 CA         20.0300   27.5190   -4.9980 C.3      12 GLL5        0.0000 
     44 CA         21.0500   30.7210   -2.5780 C.3       8 GLP5        0.0000 
     45 CA         19.5145   27.7480   -3.0310 C.3       4 GLC5        0.0000 
     46 CA         18.9990   27.9770   -1.0640 C.3       8 GLP5        0.0000 
     47 CA         17.7195   30.2465   -7.0175 C.3       4 GLC5        0.0000 
     48 CA         17.9780   28.8330   -5.5410 C.3      12 GLL5        0.0000 
     49 CA         17.4610   31.6600   -8.4940 C.3       8 GLP5        0.0000 
     50 CA         16.7035   29.2175   -4.3220 C.3       4 GLC5        0.0000 
     51 CA         15.4290   29.6020   -3.1030 C.3       8 GLP5        0.0000 
     52 CA         18.7055   30.2375   -7.7945 C.3       4 GLC5        0.0000 
     53 CA         19.9500   28.8150   -7.0950 C.3      12 GLL5        0.0000 
     54 CA         20.3420   30.4320   -6.0475 C.3       4 GLC5        0.0000 
     55 CA         20.7340   32.0490   -5.0000 C.3       8 GLP5        0.0000 
     56 CA         20.9940   30.3195   -7.9965 C.3       4 GLC5        0.0000 
     57 CA         22.0380   31.8240   -8.8980 C.3       8 GLP5        0.0000 
     58 O          17.2750   24.8915   -6.4615 O.2       1 ALC1        0.0000 
     59 O          17.7950   25.9250   -5.7870 O.2       9 ALL1        0.0000 
     60 O          16.7550   23.8580   -7.1360 O.2       5 ALP1        0.0000 
     61 O          15.1545   26.7645   -6.7015 O.2       1 ALC1        0.0000 
     62 O          16.4030   26.9270   -7.8160 O.2       9 ALL1        0.0000 
     63 O          13.9060   26.6020   -5.5870 O.2       5 ALP1        0.0000 
     64 CA         15.0085   25.5520   -7.6040 C.3       4 GLC5        0.0000 
     65 CA         15.4860   27.1000   -8.9420 C.3      12 GLL5        0.0000 
     66 CA         14.5310   24.0040   -6.2660 C.3       8 GLP5        0.0000 
     67 CA         15.7230   25.1935   -9.3285 C.3       4 GLC5        0.0000 
     68 CA         15.9600   23.2870   -9.7150 C.3       8 GLP5        0.0000 
     69 CA         16.6575   25.8990  -10.2405 C.3       4 GLC5        0.0000 
     70 CA         16.3850   30.1200   -8.9075 C.3       4 GLC5        0.0000 
     71 CA         15.3090   28.5800   -9.3210 C.3      12 GLL5        0.0000 
     72 O          13.3875   30.1705   -8.7645 O.2       1 ALC1        0.0000 
     73 O          13.3810   29.6160  -10.2750 O.2       9 ALL1        0.0000 
     74 O          13.3940   30.7250   -7.2540 O.2       5 ALP1        0.0000 
     75 CA         11.9150   31.3295   -9.9000 C.3       4 GLC5        0.0000 
     76 CA         12.3310   29.9120  -11.2620 C.3      12 GLL5        0.0000 
     77 CA         11.4990   32.7470   -8.5380 C.3       8 GLP5        0.0000 
     78 CA         11.1700   28.8775  -10.2215 C.3       4 GLC5        0.0000 
     79 CA         10.0090   27.8430   -9.1810 C.3       8 GLP5        0.0000 
     80 CA         15.2440   32.1955  -10.9395 C.3       4 GLC5        0.0000 
     81 CA         13.6980   32.1840  -12.1360 C.3      12 GLL5        0.0000 
     82 CA         16.7900   32.2070   -9.7430 C.3       8 GLP5        0.0000 
     83 CA         12.5985   32.4655  -10.3370 C.3       4 GLC5        0.0000 
     84 CA         20.1890   25.1816  -12.9655 C.3       4 GLC5        0.0000 
     85 CA         22.0630   25.2110  -12.4920 C.3      12 GLL5        0.0000 
     86 CA         23.8975   24.4991  -12.3585 C.3       4 GLC5        0.0000 
     87 CA         21.5430   23.9080  -12.2160 C.3      12 GLL5        0.0000 
     88 CA         25.7250   23.9650  -11.6300 C.3       8 GLP5        0.0000 
     89 CA         19.0883   30.1587   -4.9920 C.3       4 GLC5        0.0000 
     90 CA         19.0950   27.9500   -6.1350 C.3      12 GLL5        0.0000 
     91 CA         19.6400   31.9260   -4.1460 C.3       8 GLP5        0.0000 
     92 CA         13.6702   27.7900   -8.3373 C.3       4 GLC5        0.0000 
     93 CA         11.9430   27.7400   -7.5430 C.3       8 GLP5        0.0000 
     94 CA         10.6107   30.3897  -12.3040 C.3       4 GLC5        0.0000 
     95 CA          8.6210   30.5130  -12.7190 C.3       8 GLP5        0.0000 
@<TRIPOS>BOND
@<TRIPOS>SUBSTRUCTURE
     1 ALC1       58 GROUP        1 X    ALC  0     ROOT ALC X 1
     2 SEC2       10 GROUP        1 X    SEC  0     **** SEC X 2
     3 LYC4        7 GROUP        1 X    LYC  0     **** LYC X 4
     4 GLC5        1 GROUP        1 X    GLC  0     **** GLC X 6
     5 ALP1       60 GROUP        1 Y    ALP  0     ROOT ALP Y 8
     6 SEP2       12 GROUP        1 Y    SEP  0     **** SEP Y 9
     7 LYP4        9 GROUP        1 Y    LYP  0     **** LYP Y 11
     8 GLP5        3 GROUP        1 Y    GLP  0     **** GLP Y 13
     9 ALL1       59 GROUP        1 Z    ALL  0     ROOT ALL Z 15
    10 SEL2       11 GROUP        1 Z    SEL  0     **** SEL Z 16
    11 LYL4        8 GROUP        1 Z    LYL  0     **** LYL Z 18
    12 GLL5        2 GROUP        1 Z    GLL  0     **** GLL Z 20
@<TRIPOS>SET

