#    Name: 1wlv_COA_1_ligand
#    Modification time : Tue Mar 25 09:08:56 2014

@<TRIPOS>MOLECULE
1wlv_COA_1_ligand
   79    81     1     0     0
SMALL
NO_CHARGES


@<TRIPOS>ATOM
      1 N1A        22.1290   24.6180  -14.8300 N.ar      1 COA2003     0.0000 
      2 C2A        21.6320   23.3810  -14.5610 C.ar      1 COA2003     0.0000 
      3 N3A        21.3570   23.0670  -13.2650 N.ar      1 COA2003     0.0000 
      4 C4A        21.5430   23.9080  -12.2160 C.ar      1 COA2003     0.0000 
      5 C5A        22.0630   25.2110  -12.4920 C.ar      1 COA2003     0.0000 
      6 C6A        22.3370   25.5070  -13.8200 C.ar      1 COA2003     0.0000 
      7 N6A        22.8370   26.7370  -14.1330 N.pl3     1 COA2003     0.0000 
      8 N7A        22.1710   25.8970  -11.2930 N.2       1 COA2003     0.0000 
      9 C8A        21.7340   25.0270  -10.3720 C.2       1 COA2003     0.0000 
     10 N9A        21.3490   23.8330  -10.8480 N.pl3     1 COA2003     0.0000 
     11 C1B        20.8650   22.7860   -9.9490 C.3       1 COA2003     0.0000 
     12 C2B        21.8830   21.8220   -9.3200 C.3       1 COA2003     0.0000 
     13 O2B        22.5570   20.9590  -10.2350 O.3       1 COA2003     0.0000 
     14 C3B        21.0550   21.1210   -8.2380 C.3       1 COA2003     0.0000 
     15 O3B        20.2350   20.0570   -8.7830 O.3       1 COA2003     0.0000 
     16 P3B        20.7160   18.6190   -8.3810 P.3       1 COA2003     0.0000 
     17 O7A        20.6880   18.4400   -6.8340 O.co2     1 COA2003     0.0000 
     18 O8A        22.1680   18.3710   -8.8920 O.co2     1 COA2003     0.0000 
     19 O9A        19.6770   17.7100   -9.0900 O.co2     1 COA2003     0.0000 
     20 C4B        20.2090   22.3170   -7.7480 C.3       1 COA2003     0.0000 
     21 O4B        19.9550   23.1200   -8.8990 O.3       1 COA2003     0.0000 
     22 C5B        20.8840   23.1890   -6.6500 C.3       1 COA2003     0.0000 
     23 O5B        22.1030   23.8920   -7.0620 O.3       1 COA2003     0.0000 
     24 P1A        23.3520   24.1230   -6.1550 P.3       1 COA2003     0.0000 
     25 O1A        23.3460   23.1990   -4.9140 O.co2     1 COA2003     0.0000 
     26 O2A        24.5940   23.9060   -7.0710 O.co2     1 COA2003     0.0000 
     27 O3A        23.4380   25.6150   -5.7110 O.3       1 COA2003     0.0000 
     28 P2A        22.4830   26.5050   -4.8520 P.3       1 COA2003     0.0000 
     29 O4A        22.3410   25.8990   -3.4630 O.co2     1 COA2003     0.0000 
     30 O5A        23.1510   27.8940   -4.8120 O.co2     1 COA2003     0.0000 
     31 O6A        21.0890   26.6730   -5.5590 O.3       1 COA2003     0.0000 
     32 CBP        19.0950   27.9500   -6.1350 C.3       1 COA2003     0.0000 
     33 CCP        20.0300   27.5190   -4.9980 C.3       1 COA2003     0.0000 
     34 CDP        17.9780   28.8330   -5.5410 C.3       1 COA2003     0.0000 
     35 CEP        19.9500   28.8150   -7.0950 C.3       1 COA2003     0.0000 
     36 CAP        18.5580   26.6430   -6.7670 C.3       1 COA2003     0.0000 
     37 OAP        17.7950   25.9250   -5.7870 O.3       1 COA2003     0.0000 
     38 C9P        17.7280   26.8160   -8.0420 C.2       1 COA2003     0.0000 
     39 O9P        18.2440   26.8520   -9.1560 O.2       1 COA2003     0.0000 
     40 N8P        16.4030   26.9270   -7.8160 N.am      1 COA2003     0.0000 
     41 C7P        15.4860   27.1000   -8.9420 C.3       1 COA2003     0.0000 
     42 C6P        15.3090   28.5800   -9.3210 C.3       1 COA2003     0.0000 
     43 C5P        14.3490   28.7010  -10.4920 C.2       1 COA2003     0.0000 
     44 O5P        14.4680   28.0250  -11.5110 O.2       1 COA2003     0.0000 
     45 N4P        13.3810   29.6160  -10.2750 N.am      1 COA2003     0.0000 
     46 C3P        12.3310   29.9120  -11.2620 C.3       1 COA2003     0.0000 
     47 C2P        12.8700   30.6210  -12.5160 C.3       1 COA2003     0.0000 
     48 S1P        13.6980   32.1840  -12.1360 S.3       1 COA2003     0.0000 
     49 H          21.4686   22.7029  -15.3129 H         1 COA2003     0.0000 
     50 H          22.9706   27.3657  -13.3669 H         1 COA2003     0.0000 
     51 H          23.0260   26.9018  -15.1010 H         1 COA2003     0.0000 
     52 H          21.6966   25.2542   -9.3850 H         1 COA2003     0.0000 
     53 H          20.2399   22.0366  -10.6290 H         1 COA2003     0.0000 
     54 H          22.5908   22.4736   -8.7662 H         1 COA2003     0.0000 
     55 H          21.6970   20.8373   -7.4615 H         1 COA2003     0.0000 
     56 H          19.2798   21.9285   -7.3534 H         1 COA2003     0.0000 
     57 H          21.0911   22.5209   -5.7835 H         1 COA2003     0.0000 
     58 H          20.1176   23.9122   -6.2900 H         1 COA2003     0.0000 
     59 H          20.4453   28.4116   -4.5400 H         1 COA2003     0.0000 
     60 H          19.4453   26.9755   -4.2620 H         1 COA2003     0.0000 
     61 H          19.4460   26.0324   -7.0337 H         1 COA2003     0.0000 
     62 H          15.9910   26.8966   -6.8801 H         1 COA2003     0.0000 
     63 H          14.4920   26.6919   -8.7038 H         1 COA2003     0.0000 
     64 H          15.8530   26.5659   -9.8316 H         1 COA2003     0.0000 
     65 H          16.2742   28.9917   -9.5948 H         1 COA2003     0.0000 
     66 H          14.9137   29.1180   -8.4664 H         1 COA2003     0.0000 
     67 H          13.3314   30.1619   -9.3882 H         1 COA2003     0.0000 
     68 H          11.5525   30.5551  -10.8177 H         1 COA2003     0.0000 
     69 H          11.8319   28.9831  -11.5864 H         1 COA2003     0.0000 
     70 H          12.0975   30.9245  -13.1945 H         1 COA2003     0.0000 
     71 H          13.6374   30.0658  -13.0180 H         1 COA2003     0.0000 
     72 H          18.3464   29.6519   -5.1009 H         1 COA2003     0.0000 
     73 H          17.3355   29.1411   -6.2426 H         1 COA2003     0.0000 
     74 H          17.4454   28.3436   -4.8505 H         1 COA2003     0.0000 
     75 H          20.3239   29.6206   -6.6355 H         1 COA2003     0.0000 
     76 H          20.7249   28.3030   -7.4657 H         1 COA2003     0.0000 
     77 H          19.4160   29.1434   -7.8741 H         1 COA2003     0.0000 
     78 H          22.4616   20.0432   -9.8449 H         1 COA2003     0.0000 
     79 H          17.8522   24.9665   -6.0660 H         1 COA2003     0.0000 
@<TRIPOS>BOND
     1    2    1 ar   
     2    6    1 ar   
     3    3    2 ar   
     4   49    2 1    
     5    4    3 ar   
     6    5    4 ar   
     7   10    4 1    
     8    6    5 ar   
     9    8    5 1    
    10    7    6 1    
    11   50    7 1    
    12   51    7 1    
    13    9    8 2    
    14   10    9 1    
    15   52    9 1    
    16   11   10 1    
    17   12   11 1    
    18   21   11 1    
    19   53   11 1    
    20   13   12 1    
    21   14   12 1    
    22   54   12 1    
    23   78   13 1    
    24   15   14 1    
    25   20   14 1    
    26   55   14 1    
    27   16   15 1    
    28   17   16 ar   
    29   18   16 ar   
    30   19   16 ar   
    31   21   20 1    
    32   22   20 1    
    33   56   20 1    
    34   23   22 1    
    35   57   22 1    
    36   58   22 1    
    37   24   23 1    
    38   25   24 ar   
    39   26   24 ar   
    40   27   24 1    
    41   28   27 1    
    42   29   28 ar   
    43   30   28 ar   
    44   31   28 1    
    45   33   31 1    
    46   33   32 1    
    47   34   32 1    
    48   35   32 1    
    49   36   32 1    
    50   59   33 1    
    51   60   33 1    
    52   72   34 1    
    53   73   34 1    
    54   74   34 1    
    55   75   35 1    
    56   76   35 1    
    57   77   35 1    
    58   37   36 1    
    59   38   36 1    
    60   61   36 1    
    61   79   37 1    
    62   39   38 2    
    63   40   38 am   
    64   41   40 1    
    65   62   40 1    
    66   42   41 1    
    67   63   41 1    
    68   64   41 1    
    69   43   42 1    
    70   65   42 1    
    71   66   42 1    
    72   44   43 2    
    73   45   43 am   
    74   46   45 1    
    75   67   45 1    
    76   47   46 1    
    77   68   46 1    
    78   69   46 1    
    79   48   47 1    
    80   70   47 1    
    81   71   47 1    
@<TRIPOS>SUBSTRUCTURE
     1 COA2003     1 GROUP   
@<TRIPOS>SET

