#    Name: 1mlv_SAH_1_INTS_M
#    Modification time : Mon Apr  7 14:40:42 2014

@<TRIPOS>MOLECULE
1mlv_SAH_1_INTS_M
   43     0    12     0     0
SMALL
NO_CHARGES


@<TRIPOS>ATOM
      1 O          72.5815  131.0465   50.5670 O.2       1 ALC1        0.0000 
      2 O          71.4650  131.6150   51.1260 O.2       9 ALL1        0.0000 
      3 O          73.6980  130.4780   50.0080 O.2       5 ALP1        0.0000 
      4 O          71.4935  132.8315   50.4580 O.2       1 ALC1        0.0000 
      5 O          71.5220  134.0480   49.7900 O.2       5 ALP1        0.0000 
      6 O          72.2795  132.3350   51.9870 O.2       1 ALC1        0.0000 
      7 O          73.0940  133.0550   52.8480 O.2       5 ALP1        0.0000 
      8 CA         67.3315  130.9650   55.8085 C.3       4 GLC5        0.0000 
      9 CA         69.0730  131.5580   54.9620 C.3      12 GLL5        0.0000 
     10 CA         65.5900  130.3720   56.6550 C.3       8 GLP5        0.0000 
     11 NZ         66.7075  130.8045   52.0440 N.4       3 LYC4        0.0000 
     12 NZ         67.9860  130.6180   50.6180 N.4      11 LYL4        0.0000 
     13 NZ         65.4290  130.9910   53.4700 N.4       7 LYP4        0.0000 
     14 N          70.5050  131.5645   48.5245 N.am      2 SEC2        0.0000 
     15 N          69.6430  130.8910   49.2410 N.am     10 SEL2        0.0000 
     16 N          71.3670  132.2380   47.8080 N.am      6 SEP2        0.0000 
     17 CA         71.5850  131.8480   56.9515 C.3       4 GLC5        0.0000 
     18 CA         70.4900  130.7450   55.6810 C.3      12 GLL5        0.0000 
     19 CA         72.6800  132.9510   58.2220 C.3       8 GLP5        0.0000 
     20 CA         74.3350  127.9330   56.0560 C.3       4 GLC5        0.0000 
     21 CA         72.6760  127.9200   54.6380 C.3      12 GLL5        0.0000 
     22 CA         75.9940  127.9460   57.4740 C.3       8 GLP5        0.0000 
     23 N          75.5265  132.8145   55.9695 N.am      2 SEC2        0.0000 
     24 N          75.4290  131.5020   55.2810 N.am     10 SEL2        0.0000 
     25 N          75.6240  134.1270   56.6580 N.am      6 SEP2        0.0000 
     26 CA         75.5305  132.4695   54.2390 C.3       4 GLC5        0.0000 
     27 CA         76.2430  130.5230   54.7320 C.3      12 GLL5        0.0000 
     28 CA         74.8180  134.4160   53.7460 C.3       8 GLP5        0.0000 
     29 O          78.4245  132.6115   55.7260 O.2       1 ALC1        0.0000 
     30 O          78.5110  131.2000   55.2630 O.2       9 ALL1        0.0000 
     31 O          78.3380  134.0230   56.1890 O.2       5 ALP1        0.0000 
     32 CA         76.7935  129.7055   52.1470 C.3       4 GLC5        0.0000 
     33 CA         77.3090  128.3430   53.4910 C.3      12 GLL5        0.0000 
     34 CA         76.2780  131.0680   50.8030 C.3       8 GLP5        0.0000 
     35 CA         77.4555  127.2745   55.0450 C.3       4 GLC5        0.0000 
     36 CA         77.6020  126.2060   56.5990 C.3       8 GLP5        0.0000 
     37 CA         68.9700  134.4447   53.0378 C.3       4 GLC5        0.0000 
     38 CA         69.9540  132.6450   53.7910 C.3      12 GLL5        0.0000 
     39 CA         68.1960  136.2930   53.0000 C.3       8 GLP5        0.0000 
     40 CA         72.5108  127.5790   57.0805 C.3       4 GLC5        0.0000 
     41 CA         71.7810  128.5440   55.6860 C.3      12 GLL5        0.0000 
     42 CA         72.7930  126.9260   58.9990 C.3       8 GLP5        0.0000 
     43 CA         76.2461  130.5240   52.6079 C.3       4 GLC5        0.0000 
@<TRIPOS>BOND
@<TRIPOS>SUBSTRUCTURE
     1 ALC1        1 GROUP        1 X    ALC  0     ROOT ALC X 1
     2 SEC2       14 GROUP        1 X    SEC  0     **** SEC X 2
     3 LYC4       11 GROUP        1 X    LYC  0     **** LYC X 4
     4 GLC5        8 GROUP        1 X    GLC  0     **** GLC X 6
     5 ALP1        3 GROUP        1 Y    ALP  0     ROOT ALP Y 8
     6 SEP2       16 GROUP        1 Y    SEP  0     **** SEP Y 9
     7 LYP4       13 GROUP        1 Y    LYP  0     **** LYP Y 11
     8 GLP5       10 GROUP        1 Y    GLP  0     **** GLP Y 13
     9 ALL1        2 GROUP        1 Z    ALL  0     ROOT ALL Z 15
    10 SEL2       15 GROUP        1 Z    SEL  0     **** SEL Z 16
    11 LYL4       12 GROUP        1 Z    LYL  0     **** LYL Z 18
    12 GLL5        9 GROUP        1 Z    GLL  0     **** GLL Z 20
@<TRIPOS>SET

