#    Name: 1mlv_SAH_1_ligand
#    Modification time : Mon Apr  7 14:40:42 2014

@<TRIPOS>MOLECULE
1mlv_SAH_1_ligand
   46    48     1     0     0
SMALL
NO_CHARGES


@<TRIPOS>ATOM
      1 N          71.4650  131.6150   51.1260 N.4       1 SAH700      0.0000 
      2 CA         70.1050  131.3260   51.5970 C.3       1 SAH700      0.0000 
      3 CB         69.5340  132.5480   52.3600 C.3       1 SAH700      0.0000 
      4 CG         69.9540  132.6450   53.7910 C.3       1 SAH700      0.0000 
      5 SD         69.0730  131.5580   54.9620 S.3       1 SAH700      0.0000 
      6 C          69.1820  130.9190   50.4010 C.2       1 SAH700      0.0000 
      7 O          67.9860  130.6180   50.6180 O.co2     1 SAH700      0.0000 
      8 OXT        69.6430  130.8910   49.2410 O.co2     1 SAH700      0.0000 
      9 C5'        70.4900  130.7450   55.6810 C.3       1 SAH700      0.0000 
     10 C4'        70.9550  129.5400   54.8960 C.3       1 SAH700      0.0000 
     11 O4'        71.8320  129.9640   53.8150 O.3       1 SAH700      0.0000 
     12 C3'        71.7810  128.5440   55.6860 C.3       1 SAH700      0.0000 
     13 O3'        70.9720  127.5940   56.3690 O.3       1 SAH700      0.0000 
     14 C2'        72.6760  127.9200   54.6380 C.3       1 SAH700      0.0000 
     15 O2'        72.1580  126.8090   53.9410 O.3       1 SAH700      0.0000 
     16 C1'        72.9960  129.1520   53.7840 C.3       1 SAH700      0.0000 
     17 N9         74.1690  129.9160   54.2760 N.pl3     1 SAH700      0.0000 
     18 C8         74.2240  131.1040   54.9860 C.2       1 SAH700      0.0000 
     19 N7         75.4290  131.5020   55.2810 N.2       1 SAH700      0.0000 
     20 C5         76.2430  130.5230   54.7320 C.ar      1 SAH700      0.0000 
     21 C6         77.6600  130.3430   54.7050 C.ar      1 SAH700      0.0000 
     22 N6         78.5110  131.2000   55.2630 N.pl3     1 SAH700      0.0000 
     23 N1         78.1670  129.2350   54.0670 N.ar      1 SAH700      0.0000 
     24 C2         77.3090  128.3430   53.4910 C.ar      1 SAH700      0.0000 
     25 N3         75.9480  128.4030   53.4550 N.ar      1 SAH700      0.0000 
     26 C4         75.4770  129.5270   54.1070 C.ar      1 SAH700      0.0000 
     27 H          70.1242  130.4862   52.2898 H         1 SAH700      0.0000 
     28 H          68.4295  132.5026   52.2928 H         1 SAH700      0.0000 
     29 H          69.8407  133.4612   51.8136 H         1 SAH700      0.0000 
     30 H          69.7849  133.6268   54.2398 H         1 SAH700      0.0000 
     31 H          70.9929  132.3584   53.9712 H         1 SAH700      0.0000 
     32 H          70.1453  130.5020   56.6756 H         1 SAH700      0.0000 
     33 H          71.2226  131.5379   55.7237 H         1 SAH700      0.0000 
     34 H          70.1067  129.0225   54.4764 H         1 SAH700      0.0000 
     35 H          72.4134  129.1144   56.3526 H         1 SAH700      0.0000 
     36 H          73.6261  127.6931   55.1640 H         1 SAH700      0.0000 
     37 H          73.1788  128.8042   52.7733 H         1 SAH700      0.0000 
     38 H          73.3763  131.5895   55.2342 H         1 SAH700      0.0000 
     39 H          78.2206  132.1567   55.2857 H         1 SAH700      0.0000 
     40 H          79.3643  130.8102   55.6093 H         1 SAH700      0.0000 
     41 H          77.7669  127.4823   53.0029 H         1 SAH700      0.0000 
     42 H          71.8569  130.8426   50.6261 H         1 SAH700      0.0000 
     43 H          71.4853  132.4031   50.5107 H         1 SAH700      0.0000 
     44 H          72.0850  131.8187   51.8837 H         1 SAH700      0.0000 
     45 H          71.0236  126.7637   55.8140 H         1 SAH700      0.0000 
     46 H          71.7821  127.1867   53.0949 H         1 SAH700      0.0000 
@<TRIPOS>BOND
     1    2    1 1    
     2   42    1 1    
     3   43    1 1    
     4   44    1 1    
     5    3    2 1    
     6    6    2 1    
     7   27    2 1    
     8    4    3 1    
     9   28    3 1    
    10   29    3 1    
    11    5    4 1    
    12   30    4 1    
    13   31    4 1    
    14    9    5 1    
    15    7    6 ar   
    16    8    6 ar   
    17   10    9 1    
    18   32    9 1    
    19   33    9 1    
    20   11   10 1    
    21   12   10 1    
    22   34   10 1    
    23   16   11 1    
    24   13   12 1    
    25   14   12 1    
    26   35   12 1    
    27   45   13 1    
    28   15   14 1    
    29   16   14 1    
    30   36   14 1    
    31   46   15 1    
    32   17   16 1    
    33   37   16 1    
    34   18   17 1    
    35   26   17 1    
    36   19   18 2    
    37   38   18 1    
    38   20   19 1    
    39   21   20 ar   
    40   26   20 ar   
    41   22   21 1    
    42   23   21 ar   
    43   39   22 1    
    44   40   22 1    
    45   24   23 ar   
    46   25   24 ar   
    47   41   24 1    
    48   26   25 ar   
@<TRIPOS>SUBSTRUCTURE
     1 SAH700      1 GROUP   
@<TRIPOS>SET

