#    Name: 4b42_942_3_INTS_M
#    Modification time : Tue Mar 25 06:37:06 2014

@<TRIPOS>MOLECULE
4b42_942_3_INTS_M
   42     0     9     0     0
SMALL
NO_CHARGES


@<TRIPOS>ATOM
      1 CA         19.9420  -42.7105    9.7020 C.3       3 GLC5        0.0000 
      2 CA         21.8620  -42.6110    9.0900 C.3       9 GLL5        0.0000 
      3 CA         18.0220  -42.8100   10.3140 C.3       6 GLP5        0.0000 
      4 CA         20.1970  -41.1205    7.8450 C.3       3 GLC5        0.0000 
      5 CA         22.3290  -40.8690    7.4450 C.3       9 GLL5        0.0000 
      6 CA         18.0650  -41.3720    8.2450 C.3       6 GLP5        0.0000 
      7 O          22.4040  -36.2250    8.4275 O.2       1 ALC1        0.0000 
      8 O          22.9850  -37.2300    7.9530 O.2       7 ALL1        0.0000 
      9 O          21.8230  -35.2200    8.9020 O.2       4 ALP1        0.0000 
     10 N          24.7320  -34.9645    8.4555 N.am      2 SEC2        0.0000 
     11 N          24.8040  -35.9520    7.3600 N.am      8 SEL2        0.0000 
     12 N          24.6600  -33.9770    9.5510 N.am      5 SEP2        0.0000 
     13 N          23.3135  -35.5860    8.1310 N.am      2 SEC2        0.0000 
     14 N          21.8230  -35.2200    8.9020 N.am      5 SEP2        0.0000 
     15 CA         27.0940  -36.6095    3.6900 C.3       3 GLC5        0.0000 
     16 CA         26.1950  -38.1750    4.7230 C.3       9 GLL5        0.0000 
     17 CA         27.9930  -35.0440    2.6570 C.3       6 GLP5        0.0000 
     18 N          29.5735  -37.6805    5.2105 N.am      2 SEC2        0.0000 
     19 N          28.2400  -37.8890    6.0680 N.am      8 SEL2        0.0000 
     20 N          30.9070  -37.4720    4.3530 N.am      5 SEP2        0.0000 
     21 CA         28.6500  -38.2260   12.6540 C.3       3 GLC5        0.0000 
     22 CA         27.7470  -37.6490   10.9970 C.3       9 GLL5        0.0000 
     23 CA         29.5530  -38.8030   14.3110 C.3       6 GLP5        0.0000 
     24 CA         29.8130  -36.3090    7.2870 C.3       3 GLC5        0.0000 
     25 CA         28.3250  -37.0200    8.7640 C.3       9 GLL5        0.0000 
     26 CA         31.3010  -35.5980    5.8100 C.3       6 GLP5        0.0000 
     27 CA         27.6465  -34.9530    8.2640 C.3       3 GLC5        0.0000 
     28 CA         26.9680  -32.8860    7.7640 C.3       6 GLP5        0.0000 
     29 CA         24.0909  -42.7785    9.9091 C.3       3 GLC5        0.0000 
     30 CA         25.5760  -43.1530   10.8130 C.3       6 GLP5        0.0000 
     31 CA         26.5608  -37.1043   12.3628 C.3       3 GLC5        0.0000 
     32 CA         26.7920  -38.5020   10.4780 C.3       9 GLL5        0.0000 
     33 CA         25.8520  -36.1330   13.9880 C.3       6 GLP5        0.0000 
     34 CA         27.4228  -40.0293   10.3153 C.3       3 GLC5        0.0000 
     35 CA         27.5760  -41.9830    9.8930 C.3       6 GLP5        0.0000 
     36 CA         27.2012  -35.3852   10.9575 C.3       3 GLC5        0.0000 
     37 CA         26.2700  -33.4970   11.3540 C.3       6 GLP5        0.0000 
     38 CA         27.2840  -40.1115    9.2713 C.3       3 GLC5        0.0000 
     39 CA         27.3660  -37.8670    8.2120 C.3       9 GLL5        0.0000 
     40 CA         25.4454  -38.2866   11.2386 C.3       3 GLC5        0.0000 
     41 CA         26.6180  -38.6130    9.0870 C.3       9 GLL5        0.0000 
     42 CA         23.9470  -38.2290   12.5650 C.3       6 GLP5        0.0000 
@<TRIPOS>BOND
@<TRIPOS>SUBSTRUCTURE
     1 ALC1        7 GROUP        1 X    ALC  0     ROOT ALC X 1
     2 SEC2       10 GROUP        1 X    SEC  0     **** SEC X 2
     3 GLC5        1 GROUP        1 X    GLC  0     **** GLC X 6
     4 ALP1        9 GROUP        1 Y    ALP  0     ROOT ALP Y 8
     5 SEP2       12 GROUP        1 Y    SEP  0     **** SEP Y 9
     6 GLP5        3 GROUP        1 Y    GLP  0     **** GLP Y 13
     7 ALL1        8 GROUP        1 Z    ALL  0     ROOT ALL Z 15
     8 SEL2       11 GROUP        1 Z    SEL  0     **** SEL Z 16
     9 GLL5        2 GROUP        1 Z    GLL  0     **** GLL Z 20
@<TRIPOS>SET

