#    Name: 4b42_942_3_ligand
#    Modification time : Tue Mar 25 06:37:06 2014

@<TRIPOS>MOLECULE
4b42_942_3_ligand
   43    44     1     0     0
SMALL
NO_CHARGES


@<TRIPOS>ATOM
      1 CAW        22.6690  -43.7190    9.7590 C.3       1 9421294     0.0000 
      2 CAX        21.8620  -42.6110    9.0900 C.3       1 9421294     0.0000 
      3 CAV        22.9460  -41.6430    8.5860 C.3       1 9421294     0.0000 
      4 CAU        22.3290  -40.8690    7.4450 C.3       1 9421294     0.0000 
      5 NAQ        22.9630  -39.5070    7.4250 N.am      1 9421294     0.0000 
      6 CAR        24.1930  -39.3870    6.8640 C.2       1 9421294     0.0000 
      7 NAS        24.8730  -40.4350    6.3570 N.pl3     1 9421294     0.0000 
      8 CAP        22.3370  -38.4510    7.9730 C.2       1 9421294     0.0000 
      9 OAO        21.2070  -38.5440    8.4920 O.2       1 9421294     0.0000 
     10 NAG        22.9850  -37.2300    7.9530 N.am      1 9421294     0.0000 
     11 CAH        24.2570  -37.0620    7.3770 C.2       1 9421294     0.0000 
     12 OAA        24.8040  -35.9520    7.3600 O.2       1 9421294     0.0000 
     13 CAI        24.8590  -38.1710    6.8370 C.2       1 9421294     0.0000 
     14 NAJ        26.0750  -38.0870    6.2300 N.am      1 9421294     0.0000 
     15 CAB        26.1950  -38.1750    4.7230 C.3       1 9421294     0.0000 
     16 OAT        28.2400  -37.8890    6.0680 O.2       1 9421294     0.0000 
     17 CAE        26.7920  -38.5020   10.4780 C.ar      1 9421294     0.0000 
     18 CAD        27.7470  -37.6490   10.9970 C.ar      1 9421294     0.0000 
     19 CAL        28.5180  -36.8980   10.1250 C.ar      1 9421294     0.0000 
     20 CAM        28.3250  -37.0200    8.7640 C.ar      1 9421294     0.0000 
     21 CAK        27.2580  -37.9430    6.8190 C.2       1 9421294     0.0000 
     22 CAN        27.3660  -37.8670    8.2120 C.ar      1 9421294     0.0000 
     23 CAF        26.6180  -38.6130    9.0870 C.ar      1 9421294     0.0000 
     24 H          21.2557  -42.1218    9.8045 H         1 9421294     0.0000 
     25 H          21.3248  -42.9999    8.2668 H         1 9421294     0.0000 
     26 H          23.7870  -42.2083    8.2384 H         1 9421294     0.0000 
     27 H          23.2191  -40.9779    9.3801 H         1 9421294     0.0000 
     28 H          21.2647  -40.7769    7.6038 H         1 9421294     0.0000 
     29 H          22.5249  -41.3795    6.5136 H         1 9421294     0.0000 
     30 H          24.4009  -41.3164    6.3756 H         1 9421294     0.0000 
     31 H          25.7889  -40.2377    6.0075 H         1 9421294     0.0000 
     32 H          22.5220  -36.3967    8.3781 H         1 9421294     0.0000 
     33 H          26.1987  -39.0644   11.1044 H         1 9421294     0.0000 
     34 H          27.8836  -37.5722   12.0078 H         1 9421294     0.0000 
     35 H          29.2303  -36.2532   10.4924 H         1 9421294     0.0000 
     36 H          28.9220  -36.4542    8.1134 H         1 9421294     0.0000 
     37 H          25.9046  -39.2777    8.7296 H         1 9421294     0.0000 
     38 H          23.2907  -44.1659    9.1157 H         1 9421294     0.0000 
     39 H          23.2274  -43.3693   10.5113 H         1 9421294     0.0000 
     40 H          22.0785  -44.4311   10.1387 H         1 9421294     0.0000 
     41 H          27.1453  -38.0990    4.4210 H         1 9421294     0.0000 
     42 H          25.8447  -39.0436    4.3726 H         1 9421294     0.0000 
     43 H          25.6833  -37.4471    4.2666 H         1 9421294     0.0000 
@<TRIPOS>BOND
     1    2    1 1    
     2   38    1 1    
     3   39    1 1    
     4   40    1 1    
     5    3    2 1    
     6   24    2 1    
     7   25    2 1    
     8    4    3 1    
     9   26    3 1    
    10   27    3 1    
    11    5    4 1    
    12   28    4 1    
    13   29    4 1    
    14    6    5 1    
    15    8    5 1    
    16    7    6 1    
    17   13    6 2    
    18   30    7 1    
    19   31    7 1    
    20    9    8 2    
    21   10    8 1    
    22   11   10 1    
    23   32   10 1    
    24   12   11 2    
    25   13   11 1    
    26   14   13 1    
    27   15   14 1    
    28   21   14 am   
    29   41   15 1    
    30   42   15 1    
    31   43   15 1    
    32   21   16 2    
    33   18   17 ar   
    34   23   17 ar   
    35   33   17 1    
    36   19   18 ar   
    37   34   18 1    
    38   20   19 ar   
    39   35   19 1    
    40   22   20 ar   
    41   36   20 1    
    42   22   21 1    
    43   23   22 ar   
    44   37   23 1    
@<TRIPOS>SUBSTRUCTURE
     1 9421294     1 GROUP   
@<TRIPOS>SET

