#    Name: 1lru_BB2_3_INTS_M
#    Modification time : Tue Mar 25 11:16:21 2014

@<TRIPOS>MOLECULE
1lru_BB2_3_INTS_M
   68     0    12     0     0
SMALL
NO_CHARGES


@<TRIPOS>ATOM
      1 CA         33.1070   55.4045   23.4910 C.3       4 GLC5        0.0000 
      2 CA         33.0960   54.7770   25.5220 C.3      12 GLL5        0.0000 
      3 CA         33.1180   56.0320   21.4600 C.3       8 GLP5        0.0000 
      4 CA         31.9860   56.2240   25.5895 C.3       4 GLC5        0.0000 
      5 CA         30.8760   57.6710   25.6570 C.3       8 GLP5        0.0000 
      6 Zn         32.4260   54.4410   28.7690 Zn        3 ZIC7        0.0000 
      7 Zn         32.3670   55.0550   27.8130 Zn       11 ZIL7        0.0000 
      8 Zn         32.4850   53.8270   29.7250 Zn        7 ZIP7        0.0000 
      9 N          32.2520   56.4780   28.1105 N.am      2 SEC2        0.0000 
     10 N          32.3670   55.0550   27.8130 N.am     10 SEL2        0.0000 
     11 N          32.1370   57.9010   28.4080 N.am      6 SEP2        0.0000 
     12 O          31.7775   52.7225   25.4450 O.2       1 ALC1        0.0000 
     13 O          32.2580   52.9730   26.8760 O.2       9 ALL1        0.0000 
     14 O          31.2970   52.4720   24.0140 O.2       5 ALP1        0.0000 
     15 O          32.5940   51.7745   26.5160 O.2       1 ALC1        0.0000 
     16 O          32.9300   50.5760   26.1560 O.2       5 ALP1        0.0000 
     17 Zn         32.1470   53.0770   28.8845 Zn        3 ZIC7        0.0000 
     18 Zn         31.8090   52.3270   28.0440 Zn       11 ZIL7        0.0000 
     19 O          31.6340   51.0965   27.8160 O.2       1 ALC1        0.0000 
     20 O          31.8090   52.3270   28.0440 O.2       9 ALL1        0.0000 
     21 O          31.4590   49.8660   27.5880 O.2       5 ALP1        0.0000 
     22 N          34.7310   54.6750   22.4630 N.am      2 SEC2        0.0000 
     23 N          35.2080   55.4650   23.5840 N.am     10 SEL2        0.0000 
     24 N          34.2540   53.8850   21.3420 N.am      6 SEP2        0.0000 
     25 CA         37.6305   50.7420   28.0745 C.3       4 GLC5        0.0000 
     26 CA         38.7250   51.7570   26.7320 C.3      12 GLL5        0.0000 
     27 CA         36.5360   49.7270   29.4170 C.3       8 GLP5        0.0000 
     28 CA         41.9655   52.7765   26.3365 C.3       4 GLC5        0.0000 
     29 CA         39.9050   52.2840   25.9820 C.3      12 GLL5        0.0000 
     30 CA         44.0260   53.2690   26.6910 C.3       8 GLP5        0.0000 
     31 CA         40.9310   51.6640   24.3685 C.3       4 GLC5        0.0000 
     32 CA         41.9570   51.0440   22.7550 C.3       8 GLP5        0.0000 
     33 O          36.4220   56.2750   26.8375 O.2       1 ALC1        0.0000 
     34 O          36.3370   56.2130   25.3910 O.2       9 ALL1        0.0000 
     35 O          36.5070   56.3370   28.2840 O.2       5 ALP1        0.0000 
     36 CA         39.5385   60.3030   26.0140 C.3       4 GLC5        0.0000 
     37 CA         38.0280   59.4760   24.7120 C.3      12 GLL5        0.0000 
     38 CA         41.0490   61.1300   27.3160 C.3       8 GLP5        0.0000 
     39 CA         33.5205   58.9680   24.6725 C.3       4 GLC5        0.0000 
     40 CA         35.6500   59.0290   24.4060 C.3      12 GLL5        0.0000 
     41 CA         31.3910   58.9070   24.9390 C.3       8 GLP5        0.0000 
     42 N          38.9905   56.8185   27.4745 N.am      2 SEC2        0.0000 
     43 N          39.0110   56.4630   26.2170 N.am     10 SEL2        0.0000 
     44 N          38.9700   57.1740   28.7320 N.am      6 SEP2        0.0000 
     45 O          43.0280   57.0060   26.0975 O.2       1 ALC1        0.0000 
     46 O          42.9800   57.5450   24.9670 O.2       9 ALL1        0.0000 
     47 O          43.0760   56.4670   27.2280 O.2       5 ALP1        0.0000 
     48 CA         34.9523   52.8330   27.3115 C.3       4 GLC5        0.0000 
     49 CA         35.2370   53.2370   25.6310 C.3      12 GLL5        0.0000 
     50 CA         34.9810   51.7360   28.9410 C.3       8 GLP5        0.0000 
     51 CA         36.3702   52.8693   24.0042 C.3       4 GLC5        0.0000 
     52 CA         36.7510   52.5090   22.1610 C.3       8 GLP5        0.0000 
     53 CA         36.0120   52.1302   27.4940 C.3       4 GLC5        0.0000 
     54 CA         36.7420   53.2220   26.0640 C.3      12 GLL5        0.0000 
     55 CA         37.9528   49.9145   25.9625 C.3       4 GLC5        0.0000 
     56 CA         37.3440   51.8270   26.0300 C.3      12 GLL5        0.0000 
     57 CA         37.8710   48.0370   25.5440 C.3       8 GLP5        0.0000 
     58 CA         40.2195   52.7858   27.8965 C.3       4 GLC5        0.0000 
     59 CA         41.1240   53.5510   29.4360 C.3       8 GLP5        0.0000 
     60 CA         40.5770   50.7122   26.8980 C.3       4 GLC5        0.0000 
     61 CA         41.8390   49.4040   27.4390 C.3       8 GLP5        0.0000 
     62 CA         38.6044   52.1060   24.2628 C.3       4 GLC5        0.0000 
     63 CA         38.2390   52.1740   22.3440 C.3       8 GLP5        0.0000 
     64 CA         37.7418   58.4155   26.8491 C.3       4 GLC5        0.0000 
     65 CA         37.2320   57.1160   24.6920 C.3      12 GLL5        0.0000 
     66 CA         37.9320   58.1720   28.8960 C.3       8 GLP5        0.0000 
     67 CA         38.8775   54.0215   22.3450 C.3       4 GLC5        0.0000 
     68 CA         39.1090   56.4400   22.6030 C.3      12 GLL5        0.0000 
@<TRIPOS>BOND
@<TRIPOS>SUBSTRUCTURE
     1 ALC1       12 GROUP        1 X    ALC  0     ROOT ALC X 1
     2 SEC2        9 GROUP        1 X    SEC  0     **** SEC X 2
     3 ZIC7        6 GROUP        1 X    ZIC  0     **** ZIC X 5
     4 GLC5        1 GROUP        1 X    GLC  0     **** GLC X 6
     5 ALP1       14 GROUP        1 Y    ALP  0     ROOT ALP Y 8
     6 SEP2       11 GROUP        1 Y    SEP  0     **** SEP Y 9
     7 ZIP7        8 GROUP        1 Y    ZIP  0     **** ZIP Y 12
     8 GLP5        3 GROUP        1 Y    GLP  0     **** GLP Y 13
     9 ALL1       13 GROUP        1 Z    ALL  0     ROOT ALL Z 15
    10 SEL2       10 GROUP        1 Z    SEL  0     **** SEL Z 16
    11 ZIL7        7 GROUP        1 Z    ZIL  0     **** ZIL Z 19
    12 GLL5        2 GROUP        1 Z    GLL  0     **** GLL Z 20
@<TRIPOS>SET

