#    Name: 1lru_BB2_3_ligand
#    Modification time : Tue Mar 25 11:16:21 2014

@<TRIPOS>MOLECULE
1lru_BB2_3_ligand
   62    62     1     0     0
SMALL
NO_CHARGES


@<TRIPOS>ATOM
      1 C5         33.0960   54.7770   25.5220 C.3       1 BB2503      0.0000 
      2 C3         32.5140   54.2730   26.8300 C.2       1 BB2503      0.0000 
      3 O4         32.3670   55.0550   27.8130 O.2       1 BB2503      0.0000 
      4 N1         32.2580   52.9730   26.8760 N.am      1 BB2503      0.0000 
      5 O2         31.8090   52.3270   28.0440 O.3       1 BB2503      0.0000 
      6 C6         34.6100   54.6230   25.7330 C.3       1 BB2503      0.0000 
      7 C12        35.3920   55.5060   24.7990 C.2       1 BB2503      0.0000 
      8 O13        35.2080   55.4650   23.5840 O.2       1 BB2503      0.0000 
      9 C7         35.2370   53.2370   25.6310 C.3       1 BB2503      0.0000 
     10 C8         36.7420   53.2220   26.0640 C.3       1 BB2503      0.0000 
     11 C9         37.3440   51.8270   26.0300 C.3       1 BB2503      0.0000 
     12 C10        38.7250   51.7570   26.7320 C.3       1 BB2503      0.0000 
     13 C11        39.9050   52.2840   25.9820 C.3       1 BB2503      0.0000 
     14 N14        36.3370   56.2130   25.3910 N.am      1 BB2503      0.0000 
     15 C15        37.2320   57.1160   24.6920 C.3       1 BB2503      0.0000 
     16 C16        36.9180   58.5680   25.0930 C.3       1 BB2503      0.0000 
     17 C18        38.0280   59.4760   24.7120 C.3       1 BB2503      0.0000 
     18 C17        35.6500   59.0290   24.4060 C.3       1 BB2503      0.0000 
     19 C19        38.6760   56.6980   25.0460 C.2       1 BB2503      0.0000 
     20 O20        39.0110   56.4630   26.2170 O.2       1 BB2503      0.0000 
     21 N21        39.5220   56.4840   24.0140 N.am      1 BB2503      0.0000 
     22 C22        40.9220   56.0900   24.1630 C.3       1 BB2503      0.0000 
     23 C23        39.1090   56.4400   22.6030 C.3       1 BB2503      0.0000 
     24 C24        39.9230   55.2980   22.0890 C.3       1 BB2503      0.0000 
     25 C25        41.2740   55.5770   22.7520 C.3       1 BB2503      0.0000 
     26 C26        41.6300   57.3920   24.5560 C.3       1 BB2503      0.0000 
     27 O27        42.9800   57.5450   24.9670 O.3       1 BB2503      0.0000 
     28 H          32.8609   55.7994   25.3867 H         1 BB2503      0.0000 
     29 H          32.7868   54.1586   24.7215 H         1 BB2503      0.0000 
     30 H          32.3850   52.3674   26.0209 H         1 BB2503      0.0000 
     31 H          34.8487   55.0044   26.7637 H         1 BB2503      0.0000 
     32 H          35.1764   52.8790   24.6001 H         1 BB2503      0.0000 
     33 H          34.6925   52.5372   26.2701 H         1 BB2503      0.0000 
     34 H          36.8074   53.6306   27.0756 H         1 BB2503      0.0000 
     35 H          37.2947   53.8820   25.3906 H         1 BB2503      0.0000 
     36 H          37.4677   51.5049   24.9910 H         1 BB2503      0.0000 
     37 H          36.6683   51.1225   26.5255 H         1 BB2503      0.0000 
     38 H          38.9047   50.6882   27.0117 H         1 BB2503      0.0000 
     39 H          38.6312   52.2938   27.7097 H         1 BB2503      0.0000 
     40 H          36.4936   56.1545   26.4372 H         1 BB2503      0.0000 
     41 H          37.1057   57.0133   23.6274 H         1 BB2503      0.0000 
     42 H          36.7649   58.6021   26.1583 H         1 BB2503      0.0000 
     43 H          41.0302   55.3574   24.8699 H         1 BB2503      0.0000 
     44 H          39.3822   57.3350   22.1003 H         1 BB2503      0.0000 
     45 H          38.0744   56.2147   22.5180 H         1 BB2503      0.0000 
     46 H          40.0296   55.3540   21.0420 H         1 BB2503      0.0000 
     47 H          39.5448   54.3791   22.4401 H         1 BB2503      0.0000 
     48 H          41.8305   54.6757   22.8322 H         1 BB2503      0.0000 
     49 H          41.7889   56.3372   22.2178 H         1 BB2503      0.0000 
     50 H          40.9255   57.8902   25.3564 H         1 BB2503      0.0000 
     51 H          41.4112   58.1352   23.6700 H         1 BB2503      0.0000 
     52 H          40.7501   52.1952   26.5092 H         1 BB2503      0.0000 
     53 H          40.0448   51.7970   25.1199 H         1 BB2503      0.0000 
     54 H          39.8000   53.2528   25.7576 H         1 BB2503      0.0000 
     55 H          38.8865   59.2197   25.1561 H         1 BB2503      0.0000 
     56 H          38.1938   59.4664   23.7259 H         1 BB2503      0.0000 
     57 H          37.8371   60.4237   24.9679 H         1 BB2503      0.0000 
     58 H          35.4198   59.9722   24.6454 H         1 BB2503      0.0000 
     59 H          35.7323   58.9911   23.4101 H         1 BB2503      0.0000 
     60 H          34.8648   58.4629   24.6570 H         1 BB2503      0.0000 
     61 H          31.2687   51.5508   27.7189 H         1 BB2503      0.0000 
     62 H          43.1495   56.7802   25.5886 H         1 BB2503      0.0000 
@<TRIPOS>BOND
     1    2    1 1    
     2    6    1 1    
     3   28    1 1    
     4   29    1 1    
     5    3    2 2    
     6    4    2 am   
     7    5    4 1    
     8   30    4 1    
     9   61    5 1    
    10    7    6 1    
    11    9    6 1    
    12   31    6 1    
    13    8    7 2    
    14   14    7 am   
    15   10    9 1    
    16   32    9 1    
    17   33    9 1    
    18   11   10 1    
    19   34   10 1    
    20   35   10 1    
    21   12   11 1    
    22   36   11 1    
    23   37   11 1    
    24   13   12 1    
    25   38   12 1    
    26   39   12 1    
    27   52   13 1    
    28   53   13 1    
    29   54   13 1    
    30   15   14 1    
    31   40   14 1    
    32   16   15 1    
    33   19   15 1    
    34   41   15 1    
    35   17   16 1    
    36   18   16 1    
    37   42   16 1    
    38   55   17 1    
    39   56   17 1    
    40   57   17 1    
    41   58   18 1    
    42   59   18 1    
    43   60   18 1    
    44   20   19 2    
    45   21   19 am   
    46   22   21 1    
    47   23   21 1    
    48   25   22 1    
    49   26   22 1    
    50   43   22 1    
    51   24   23 1    
    52   44   23 1    
    53   45   23 1    
    54   25   24 1    
    55   46   24 1    
    56   47   24 1    
    57   48   25 1    
    58   49   25 1    
    59   27   26 1    
    60   50   26 1    
    61   51   26 1    
    62   62   27 1    
@<TRIPOS>SUBSTRUCTURE
     1 BB2503      1 GROUP   
@<TRIPOS>SET

