#    Name: 4a4z_ANP_1_INTS_M
#    Modification time : Tue Mar 25 04:56:49 2014

@<TRIPOS>MOLECULE
4a4z_ANP_1_INTS_M
   47     0    12     0     0
SMALL
NO_CHARGES


@<TRIPOS>ATOM
      1 NZ         68.1370   17.1145   47.0145 N.4       3 LYC4        0.0000 
      2 NZ         67.2200   17.4630   45.9760 N.4      11 LYL4        0.0000 
      3 NZ         69.1390   16.0670   49.1790 N.4       7 LYP4        0.0000 
      4 N          68.1370   17.1145   47.0145 N.am      2 SEC2        0.0000 
      5 N          67.2200   17.4630   45.9760 N.am     10 SEL2        0.0000 
      6 N          69.0540   16.7660   48.0530 N.am      6 SEP2        0.0000 
      7 NZ         65.9160   18.5550   42.6105 N.4       3 LYC4        0.0000 
      8 NZ         66.5340   18.2270   43.8450 N.4      11 LYL4        0.0000 
      9 NZ         65.2980   18.8830   41.3760 N.4       7 LYP4        0.0000 
     10 N          65.9160   18.5550   42.6105 N.am      2 SEC2        0.0000 
     11 N          66.5340   18.2270   43.8450 N.am     10 SEL2        0.0000 
     12 N          65.2980   18.8830   41.3760 N.am      6 SEP2        0.0000 
     13 NZ         65.0460   19.4550   42.7495 N.4       3 LYC4        0.0000 
     14 NZ         64.7940   20.0270   44.1230 N.4      11 LYL4        0.0000 
     15 N          66.0275   21.0020   44.7955 N.am      2 SEC2        0.0000 
     16 N          64.7940   20.0270   44.1230 N.am     10 SEL2        0.0000 
     17 N          67.2610   21.9770   45.4680 N.am      6 SEP2        0.0000 
     18 N          65.0460   19.4550   42.7495 N.am      2 SEC2        0.0000 
     19 N          66.2730   21.1690   45.9190 N.am      2 SEC2        0.0000 
     20 N          65.2850   20.3610   46.3700 N.am     10 SEL2        0.0000 
     21 N          59.8740   19.2845   45.6535 N.am      2 SEC2        0.0000 
     22 N          60.7230   19.6520   47.1130 N.am     10 SEL2        0.0000 
     23 N          59.0250   18.9170   44.1940 N.am      6 SEP2        0.0000 
     24 N          60.0440   18.4710   46.8085 N.am      2 SEC2        0.0000 
     25 N          59.3650   17.2900   46.5040 N.am      6 SEP2        0.0000 
     26 N          61.8920   20.3935   44.6095 N.am      2 SEC2        0.0000 
     27 N          62.8700   19.9720   45.7390 N.am     10 SEL2        0.0000 
     28 N          60.9140   20.8150   43.4800 N.am      6 SEP2        0.0000 
     29 CA         61.5975   22.3005   46.6815 C.3       4 GLC5        0.0000 
     30 CA         61.9510   21.9770   48.3130 C.3      12 GLL5        0.0000 
     31 CA         61.2440   22.6240   45.0500 C.3       8 GLP5        0.0000 
     32 CA         62.1355   25.6085   49.2535 C.3       4 GLC5        0.0000 
     33 CA         60.5880   24.2230   50.0300 C.3      12 GLL5        0.0000 
     34 CA         63.6830   26.9940   48.4770 C.3       8 GLP5        0.0000 
     35 CA         58.0295   29.0660   48.6575 C.3       4 GLC5        0.0000 
     36 CA         59.3460   28.0420   47.2260 C.3      12 GLL5        0.0000 
     37 CA         56.7130   30.0900   50.0890 C.3       8 GLP5        0.0000 
     38 O          58.1225   29.8600   45.8950 O.2       1 ALC1        0.0000 
     39 O          58.8490   28.4250   45.9220 O.2       9 ALL1        0.0000 
     40 O          57.3960   31.2950   45.8680 O.2       5 ALP1        0.0000 
     41 O          58.8125   27.8490   44.6915 O.2       1 ALC1        0.0000 
     42 O          58.7760   27.2730   43.4610 O.2       5 ALP1        0.0000 
     43 CA         58.4045   29.3635   49.7335 C.3       4 GLC5        0.0000 
     44 CA         60.0960   28.6370   49.3780 C.3      12 GLL5        0.0000 
     45 CA         61.8895   27.8155   48.9275 C.3       4 GLC5        0.0000 
     46 CA         61.7340   26.7610   48.3347 C.3       4 GLC5        0.0000 
     47 CA         60.0290   26.3630   48.8370 C.3      12 GLL5        0.0000 
@<TRIPOS>BOND
@<TRIPOS>SUBSTRUCTURE
     1 ALC1       38 GROUP        1 X    ALC  0     ROOT ALC X 1
     2 SEC2        4 GROUP        1 X    SEC  0     **** SEC X 2
     3 LYC4        1 GROUP        1 X    LYC  0     **** LYC X 4
     4 GLC5       29 GROUP        1 X    GLC  0     **** GLC X 6
     5 ALP1       40 GROUP        1 Y    ALP  0     ROOT ALP Y 8
     6 SEP2        6 GROUP        1 Y    SEP  0     **** SEP Y 9
     7 LYP4        3 GROUP        1 Y    LYP  0     **** LYP Y 11
     8 GLP5       31 GROUP        1 Y    GLP  0     **** GLP Y 13
     9 ALL1       39 GROUP        1 Z    ALL  0     ROOT ALL Z 15
    10 SEL2        5 GROUP        1 Z    SEL  0     **** SEL Z 16
    11 LYL4        2 GROUP        1 Z    LYL  0     **** LYL Z 18
    12 GLL5       30 GROUP        1 Z    GLL  0     **** GLL Z 20
@<TRIPOS>SET

