#    Name: 4a4z_ANP_1_ligand
#    Modification time : Tue Mar 25 04:56:49 2014

@<TRIPOS>MOLECULE
4a4z_ANP_1_ligand
   43    45     1     0     0
SMALL
NO_CHARGES


@<TRIPOS>ATOM
      1 PG         66.0760   17.4290   45.0240 P.3       1 ANP2288     0.0000 
      2 O1G        67.2200   17.4630   45.9760 O.co2     1 ANP2288     0.0000 
      3 O2G        66.5340   18.2270   43.8450 O.co2     1 ANP2288     0.0000 
      4 O3G        66.0890   16.0240   44.5210 O.co2     1 ANP2288     0.0000 
      5 PB         64.3740   19.5650   45.4840 P.3       1 ANP2288     0.0000 
      6 O1B        64.7940   20.0270   44.1230 O.co2     1 ANP2288     0.0000 
      7 O2B        65.2850   20.3610   46.3700 O.co2     1 ANP2288     0.0000 
      8 N3B        64.6270   17.9270   45.6650 N.4       1 ANP2288     0.0000 
      9 PA         62.2290   19.7110   47.1430 P.3       1 ANP2288     0.0000 
     10 O1A        60.7230   19.6520   47.1130 O.co2     1 ANP2288     0.0000 
     11 O2A        62.6010   18.3190   47.5560 O.co2     1 ANP2288     0.0000 
     12 O3A        62.8700   19.9720   45.7390 O.3       1 ANP2288     0.0000 
     13 O5'        62.6910   20.7980   48.1990 O.3       1 ANP2288     0.0000 
     14 C5'        61.9510   21.9770   48.3130 C.3       1 ANP2288     0.0000 
     15 C4'        61.9380   22.4340   49.7610 C.3       1 ANP2288     0.0000 
     16 O4'        61.9220   23.8330   49.8220 O.3       1 ANP2288     0.0000 
     17 C3'        60.7380   21.9440   50.4860 C.3       1 ANP2288     0.0000 
     18 O3'        61.0030   21.7710   51.8220 O.3       1 ANP2288     0.0000 
     19 C2'        59.7580   23.0270   50.2800 C.3       1 ANP2288     0.0000 
     20 O2'        58.9820   23.1910   51.4080 O.3       1 ANP2288     0.0000 
     21 C1'        60.5880   24.2230   50.0300 C.3       1 ANP2288     0.0000 
     22 N9         60.1190   24.9720   48.8710 N.pl3     1 ANP2288     0.0000 
     23 C8         59.7090   24.4440   47.6530 C.2       1 ANP2288     0.0000 
     24 N7         59.3540   25.4880   46.8450 N.2       1 ANP2288     0.0000 
     25 C5         59.5410   26.6930   47.5480 C.ar      1 ANP2288     0.0000 
     26 C6         59.3460   28.0420   47.2260 C.ar      1 ANP2288     0.0000 
     27 N6         58.8490   28.4250   45.9220 N.pl3     1 ANP2288     0.0000 
     28 N1         59.6320   28.9830   48.1600 N.ar      1 ANP2288     0.0000 
     29 C2         60.0960   28.6370   49.3780 C.ar      1 ANP2288     0.0000 
     30 N3         60.2940   27.3370   49.7170 N.ar      1 ANP2288     0.0000 
     31 C4         60.0290   26.3630   48.8370 C.ar      1 ANP2288     0.0000 
     32 H          60.9043   21.8474   47.9979 H         1 ANP2288     0.0000 
     33 H          62.3728   22.7968   47.7114 H         1 ANP2288     0.0000 
     34 H          62.8226   22.0376   50.2493 H         1 ANP2288     0.0000 
     35 H          60.3826   21.0659   49.9900 H         1 ANP2288     0.0000 
     36 H          59.1936   22.8115   49.3961 H         1 ANP2288     0.0000 
     37 H          60.5260   24.8706   50.9139 H         1 ANP2288     0.0000 
     38 H          59.6845   23.5200   47.4336 H         1 ANP2288     0.0000 
     39 H          58.2762   29.2442   45.8927 H         1 ANP2288     0.0000 
     40 H          59.1196   27.8388   45.1584 H         1 ANP2288     0.0000 
     41 H          60.3101   29.3861   50.0826 H         1 ANP2288     0.0000 
     42 H          61.9706   22.0012   51.9257 H         1 ANP2288     0.0000 
     43 H          59.3959   22.5946   52.0957 H         1 ANP2288     0.0000 
@<TRIPOS>BOND
     1    2    1 ar   
     2    3    1 ar   
     3    4    1 ar   
     4    8    1 1    
     5    6    5 ar   
     6    7    5 ar   
     7    8    5 1    
     8   12    5 1    
     9   10    9 ar   
    10   11    9 ar   
    11   12    9 1    
    12   13    9 1    
    13   14   13 1    
    14   15   14 1    
    15   32   14 1    
    16   33   14 1    
    17   16   15 1    
    18   17   15 1    
    19   34   15 1    
    20   21   16 1    
    21   18   17 1    
    22   19   17 1    
    23   35   17 1    
    24   42   18 1    
    25   20   19 1    
    26   21   19 1    
    27   36   19 1    
    28   43   20 1    
    29   22   21 1    
    30   37   21 1    
    31   23   22 1    
    32   31   22 1    
    33   24   23 2    
    34   38   23 1    
    35   25   24 1    
    36   26   25 ar   
    37   31   25 ar   
    38   27   26 1    
    39   28   26 ar   
    40   39   27 1    
    41   40   27 1    
    42   29   28 ar   
    43   30   29 ar   
    44   41   29 1    
    45   31   30 ar   
@<TRIPOS>SUBSTRUCTURE
     1 ANP2288     1 GROUP   
@<TRIPOS>SET

