#    Name: 3sgy_06W_2_INTS_M
#    Modification time : Tue Mar 25 12:36:29 2014

@<TRIPOS>MOLECULE
3sgy_06W_2_INTS_M
   80     0     9     0     0
SMALL
NO_CHARGES


@<TRIPOS>ATOM
      1 CA         44.5215  -42.3000  -17.3185 C.3       3 GLC5        0.0000 
      2 CA         45.9720  -40.9800  -17.0750 C.3       9 GLL5        0.0000 
      3 CA         43.0710  -43.6200  -17.5620 C.3       6 GLP5        0.0000 
      4 CA         45.9580  -41.8870  -15.4465 C.3       3 GLC5        0.0000 
      5 CA         45.9440  -42.7940  -13.8180 C.3       6 GLP5        0.0000 
      6 CA         46.9375  -39.8890  -18.1015 C.3       3 GLC5        0.0000 
      7 CA         47.9030  -38.7980  -19.1280 C.3       6 GLP5        0.0000 
      8 N          47.4820  -40.0730  -15.6020 N.am      2 SEC2        0.0000 
      9 N          46.3520  -40.0430  -16.2000 N.am      8 SEL2        0.0000 
     10 N          48.6120  -40.1030  -15.0040 N.am      5 SEP2        0.0000 
     11 CA         45.7540  -40.8930  -14.8635 C.3       3 GLC5        0.0000 
     12 CA         45.5640  -38.9920  -15.9090 C.3       9 GLL5        0.0000 
     13 CA         44.4690  -40.5145  -19.4615 C.3       3 GLC5        0.0000 
     14 CA         43.9540  -39.8600  -17.4540 C.3       9 GLL5        0.0000 
     15 CA         44.9840  -41.1690  -21.4690 C.3       6 GLP5        0.0000 
     16 CA         43.5125  -41.7400  -17.5080 C.3       3 GLC5        0.0000 
     17 O          48.0475  -41.9185  -16.7490 O.2       1 ALC1        0.0000 
     18 O          46.7760  -42.0020  -17.3370 O.2       7 ALL1        0.0000 
     19 O          49.3190  -41.8350  -16.1610 O.2       4 ALP1        0.0000 
     20 O          47.1560  -43.0930  -18.2400 O.2       1 ALC1        0.0000 
     21 O          47.5360  -44.1840  -19.1430 O.2       4 ALP1        0.0000 
     22 O          42.3905  -40.8495  -18.7615 O.2       1 ALC1        0.0000 
     23 O          42.7830  -39.8090  -18.0710 O.2       7 ALL1        0.0000 
     24 O          41.9980  -41.8900  -19.4520 O.2       4 ALP1        0.0000 
     25 CA         43.7045  -37.0735  -17.8385 C.3       3 GLC5        0.0000 
     26 CA         43.4810  -37.7610  -16.2490 C.3       9 GLL5        0.0000 
     27 CA         43.9280  -36.3860  -19.4280 C.3       6 GLP5        0.0000 
     28 CA         42.5770  -36.8095  -12.8200 C.3       3 GLC5        0.0000 
     29 CA         41.6800  -35.5810  -14.1090 C.3       9 GLL5        0.0000 
     30 CA         43.4740  -38.0380  -11.5310 C.3       6 GLP5        0.0000 
     31 CA         40.0425  -33.0075  -18.2480 C.3       3 GLC5        0.0000 
     32 CA         41.7570  -33.4760  -16.8890 C.3       9 GLL5        0.0000 
     33 CA         38.3280  -32.5390  -19.6070 C.3       6 GLP5        0.0000 
     34 CA         42.6155  -32.8355  -14.7830 C.3       3 GLC5        0.0000 
     35 CA         43.8160  -33.9090  -15.6810 C.3       9 GLL5        0.0000 
     36 CA         41.4150  -31.7620  -13.8850 C.3       6 GLP5        0.0000 
     37 CA         48.3740  -33.7000  -14.3010 C.3       3 GLC5        0.0000 
     38 CA         47.2350  -31.8750  -13.9560 C.3       9 GLL5        0.0000 
     39 CA         49.5130  -35.5250  -14.6460 C.3       6 GLP5        0.0000 
     40 CA         47.4615  -31.3150  -18.1335 C.3       3 GLC5        0.0000 
     41 CA         47.7920  -31.3100  -16.1460 C.3       9 GLL5        0.0000 
     42 CA         47.1310  -31.3200  -20.1210 C.3       6 GLP5        0.0000 
     43 CA         47.4410  -37.8930  -17.3785 C.3       3 GLC5        0.0000 
     44 CA         46.9790  -36.9880  -15.6290 C.3       9 GLL5        0.0000 
     45 CA         40.6515  -31.8035  -20.2400 C.3       3 GLC5        0.0000 
     46 CA         42.0660  -30.9520  -19.3220 C.3       9 GLL5        0.0000 
     47 CA         39.2370  -32.6550  -21.1580 C.3       6 GLP5        0.0000 
     48 CA         42.0335  -28.9050  -20.2255 C.3       3 GLC5        0.0000 
     49 CA         42.0010  -26.8580  -21.1290 C.3       6 GLP5        0.0000 
     50 CA         43.7375  -30.3710  -19.2040 C.3       3 GLC5        0.0000 
     51 CA         45.4090  -29.7900  -19.0860 C.3       6 GLP5        0.0000 
     52 CA         46.1769  -39.0975  -17.9844 C.3       3 GLC5        0.0000 
     53 CA         44.3310  -38.8760  -16.5460 C.3       9 GLL5        0.0000 
     54 CA         45.9515  -36.9198  -13.3905 C.3       3 GLC5        0.0000 
     55 CA         45.3710  -36.3560  -11.5150 C.3       6 GLP5        0.0000 
     56 CA         48.0225  -36.5042  -14.9560 C.3       3 GLC5        0.0000 
     57 CA         46.0850  -37.9790  -14.9030 C.3       9 GLL5        0.0000 
     58 CA         41.7860  -38.3538  -15.7330 C.3       3 GLC5        0.0000 
     59 CA         40.4460  -39.4270  -15.3530 C.3       6 GLP5        0.0000 
     60 CA         42.5750  -35.9010  -17.5465 C.3       3 GLC5        0.0000 
     61 CA         42.7710  -36.8000  -15.9770 C.3       9 GLL5        0.0000 
     62 CA         42.8040  -35.5820  -19.2900 C.3       6 GLP5        0.0000 
     63 CA         39.9947  -35.3483  -15.6305 C.3       3 GLC5        0.0000 
     64 CA         41.9210  -35.6400  -15.6290 C.3       9 GLL5        0.0000 
     65 CA         38.1890  -35.0860  -16.3920 C.3       6 GLP5        0.0000 
     66 CA         41.6077  -33.6863  -14.3770 C.3       3 GLC5        0.0000 
     67 CA         40.5697  -37.0998  -15.1460 C.3       3 GLC5        0.0000 
     68 CA         39.3390  -38.5890  -15.4230 C.3       6 GLP5        0.0000 
     69 CA         40.1668  -34.4887  -16.4375 C.3       3 GLC5        0.0000 
     70 CA         42.5320  -34.3070  -16.0770 C.3       9 GLL5        0.0000 
     71 CA         41.8051  -32.4149  -15.3963 C.3       3 GLC5        0.0000 
     72 CA         44.1502  -30.9177  -18.1082 C.3       3 GLC5        0.0000 
     73 CA         42.2460  -32.2440  -17.3320 C.3       9 GLL5        0.0000 
     74 CA         43.1395  -31.4237  -15.2900 C.3       3 GLC5        0.0000 
     75 CA         43.5370  -31.8470  -16.9290 C.3       9 GLL5        0.0000 
     76 CA         42.3450  -30.5860  -14.0590 C.3       6 GLP5        0.0000 
     77 CA         45.3059  -31.0619  -17.6105 C.3       3 GLC5        0.0000 
     78 CA         44.3310  -32.6760  -16.1130 C.3       9 GLL5        0.0000 
     79 CA         44.0658  -31.4342  -14.5442 C.3       3 GLC5        0.0000 
     80 CA         45.6070  -32.2510  -15.7060 C.3       9 GLL5        0.0000 
@<TRIPOS>BOND
@<TRIPOS>SUBSTRUCTURE
     1 ALC1       17 GROUP        1 X    ALC  0     ROOT ALC X 1
     2 SEC2        8 GROUP        1 X    SEC  0     **** SEC X 2
     3 GLC5        1 GROUP        1 X    GLC  0     **** GLC X 6
     4 ALP1       19 GROUP        1 Y    ALP  0     ROOT ALP Y 8
     5 SEP2       10 GROUP        1 Y    SEP  0     **** SEP Y 9
     6 GLP5        3 GROUP        1 Y    GLP  0     **** GLP Y 13
     7 ALL1       18 GROUP        1 Z    ALL  0     ROOT ALL Z 15
     8 SEL2        9 GROUP        1 Z    SEL  0     **** SEL Z 16
     9 GLL5        2 GROUP        1 Z    GLL  0     **** GLL Z 20
@<TRIPOS>SET

