#    Name: 3sgy_06W_2_ligand
#    Modification time : Tue Mar 25 12:36:29 2014

@<TRIPOS>MOLECULE
3sgy_06W_2_ligand
   51    53     1     0     0
SMALL
NO_CHARGES


@<TRIPOS>ATOM
      1 N1         44.7870  -40.8810  -17.6940 N.ar      1 06W168      0.0000 
      2 C2         45.9720  -40.9800  -17.0750 C.ar      1 06W168      0.0000 
      3 N3         46.3520  -40.0430  -16.2000 N.ar      1 06W168      0.0000 
      4 C4         45.5640  -38.9920  -15.9090 C.ar      1 06W168      0.0000 
      5 C5         44.3310  -38.8760  -16.5460 C.ar      1 06W168      0.0000 
      6 C6         43.9540  -39.8600  -17.4540 C.ar      1 06W168      0.0000 
      7 CAA        46.5420  -31.7320  -16.6080 C.ar      1 06W168      0.0000 
      8 NAH        46.7760  -42.0020  -17.3370 N.pl3     1 06W168      0.0000 
      9 CAI        46.0850  -37.9790  -14.9030 C.3       1 06W168      0.0000 
     10 NAJ        42.7830  -39.8090  -18.0710 N.pl3     1 06W168      0.0000 
     11 CAK        43.4810  -37.7610  -16.2490 C.1       1 06W168      0.0000 
     12 CAL        42.7710  -36.8000  -15.9770 C.1       1 06W168      0.0000 
     13 CAM        41.9210  -35.6400  -15.6290 C.3       1 06W168      0.0000 
     14 CAN        41.6800  -35.5810  -14.1090 C.3       1 06W168      0.0000 
     15 CAO        42.5320  -34.3070  -16.0770 C.ar      1 06W168      0.0000 
     16 CAP        41.7570  -33.4760  -16.8890 C.ar      1 06W168      0.0000 
     17 CAQ        42.2460  -32.2440  -17.3320 C.ar      1 06W168      0.0000 
     18 CAR        43.5370  -31.8470  -16.9290 C.ar      1 06W168      0.0000 
     19 CAS        44.3310  -32.6760  -16.1130 C.ar      1 06W168      0.0000 
     20 CAT        43.8160  -33.9090  -15.6810 C.ar      1 06W168      0.0000 
     21 CAU        45.6070  -32.2510  -15.7060 C.ar      1 06W168      0.0000 
     22 CAV        45.9660  -32.3140  -14.3530 C.ar      1 06W168      0.0000 
     23 CAW        47.2350  -31.8750  -13.9560 C.ar      1 06W168      0.0000 
     24 NAX        48.0970  -31.3920  -14.8530 N.ar      1 06W168      0.0000 
     25 CAY        47.7920  -31.3100  -16.1460 C.ar      1 06W168      0.0000 
     26 CAZ        46.9790  -36.9880  -15.6290 C.3       1 06W168      0.0000 
     27 OBA        41.4380  -31.4550  -18.1250 O.3       1 06W168      0.0000 
     28 CBB        42.0660  -30.9520  -19.3220 C.3       1 06W168      0.0000 
     29 H          46.3110  -31.6617  -17.6032 H         1 06W168      0.0000 
     30 H          46.4292  -42.6797  -17.9854 H         1 06W168      0.0000 
     31 H          47.6562  -42.0023  -16.8624 H         1 06W168      0.0000 
     32 H          46.6559  -38.4890  -14.1390 H         1 06W168      0.0000 
     33 H          45.2526  -37.4540  -14.4544 H         1 06W168      0.0000 
     34 H          42.3900  -38.8978  -18.1944 H         1 06W168      0.0000 
     35 H          42.3980  -40.6863  -18.3575 H         1 06W168      0.0000 
     36 H          40.9460  -35.7354  -16.1038 H         1 06W168      0.0000 
     37 H          40.8083  -33.7760  -17.1665 H         1 06W168      0.0000 
     38 H          43.9053  -30.9357  -17.2365 H         1 06W168      0.0000 
     39 H          44.3786  -34.5150  -15.0779 H         1 06W168      0.0000 
     40 H          45.3073  -32.6772  -13.6625 H         1 06W168      0.0000 
     41 H          47.4801  -31.9379  -12.9470 H         1 06W168      0.0000 
     42 H          48.4685  -30.9334  -16.8416 H         1 06W168      0.0000 
     43 H          42.5367  -35.4970  -13.6001 H         1 06W168      0.0000 
     44 H          41.1095  -34.8004  -13.8534 H         1 06W168      0.0000 
     45 H          41.2194  -36.4029  -13.7738 H         1 06W168      0.0000 
     46 H          47.3467  -36.2955  -15.0083 H         1 06W168      0.0000 
     47 H          47.7601  -37.4393  -16.0604 H         1 06W168      0.0000 
     48 H          46.4858  -36.5024  -16.3507 H         1 06W168      0.0000 
     49 H          42.8666  -30.3902  -19.1134 H         1 06W168      0.0000 
     50 H          42.3750  -31.6927  -19.9186 H         1 06W168      0.0000 
     51 H          41.4415  -30.3845  -19.8587 H         1 06W168      0.0000 
@<TRIPOS>BOND
     1    2    1 ar   
     2    6    1 ar   
     3    3    2 ar   
     4    8    2 1    
     5    4    3 ar   
     6    5    4 ar   
     7    9    4 1    
     8    6    5 ar   
     9   11    5 1    
    10   10    6 1    
    11   21    7 ar   
    12   25    7 ar   
    13   29    7 1    
    14   30    8 1    
    15   31    8 1    
    16   26    9 1    
    17   32    9 1    
    18   33    9 1    
    19   34   10 1    
    20   35   10 1    
    21   12   11 3    
    22   13   12 1    
    23   14   13 1    
    24   15   13 1    
    25   36   13 1    
    26   43   14 1    
    27   44   14 1    
    28   45   14 1    
    29   16   15 ar   
    30   20   15 ar   
    31   17   16 ar   
    32   37   16 1    
    33   18   17 ar   
    34   27   17 1    
    35   19   18 ar   
    36   38   18 1    
    37   20   19 ar   
    38   21   19 1    
    39   39   20 1    
    40   22   21 ar   
    41   23   22 ar   
    42   40   22 1    
    43   24   23 ar   
    44   41   23 1    
    45   25   24 ar   
    46   42   25 1    
    47   46   26 1    
    48   47   26 1    
    49   48   26 1    
    50   28   27 1    
    51   49   28 1    
    52   50   28 1    
    53   51   28 1    
@<TRIPOS>SUBSTRUCTURE
     1 06W168      1 GROUP   
@<TRIPOS>SET

