#    Name: 1o07_MXG_1_INTS_M
#    Modification time : Mon Mar 24 19:26:49 2014

@<TRIPOS>MOLECULE
1o07_MXG_1_INTS_M
   52     0     6     0     0
SMALL
NO_CHARGES


@<TRIPOS>ATOM
      1 CA         14.2580    4.9660   12.0285 C.3       2 GLC5        0.0000 
      2 CA         14.9600    4.3180   10.5310 C.3       6 GLL5        0.0000 
      3 CA         13.5560    5.6140   13.5260 C.3       4 GLP5        0.0000 
      4 CA         13.6965    2.8620   10.2570 C.3       2 GLC5        0.0000 
      5 CA         12.4330    1.4060    9.9830 C.3       4 GLP5        0.0000 
      6 CA         16.1690    4.1105   12.1240 C.3       2 GLC5        0.0000 
      7 CA         17.3780    3.9030   13.7170 C.3       4 GLP5        0.0000 
      8 N          19.1785    3.5835   11.9830 N.am      1 SEC2        0.0000 
      9 N          19.6130    3.7000   10.3750 N.am      5 SEL2        0.0000 
     10 N          18.7440    3.4670   13.5910 N.am      3 SEP2        0.0000 
     11 N          19.9425    2.9255    7.4470 N.am      1 SEC2        0.0000 
     12 N          19.8090    4.0450    8.2510 N.am      5 SEL2        0.0000 
     13 N          20.0760    1.8060    6.6430 N.am      3 SEP2        0.0000 
     14 CA         22.7590    8.1670    9.6575 C.3       2 GLC5        0.0000 
     15 CA         21.5930    6.3050    9.3260 C.3       6 GLL5        0.0000 
     16 CA         23.9250   10.0290    9.9890 C.3       4 GLP5        0.0000 
     17 CA         24.2700    6.9790    9.5745 C.3       2 GLC5        0.0000 
     18 CA         22.6990    5.3890    9.8310 C.3       6 GLL5        0.0000 
     19 CA         25.8410    8.5690    9.3180 C.3       4 GLP5        0.0000 
     20 CA         22.4175    3.4080    9.5110 C.3       2 GLC5        0.0000 
     21 CA         22.1360    1.4270    9.1910 C.3       4 GLP5        0.0000 
     22 CA         24.0745    4.4050    9.2405 C.3       2 GLC5        0.0000 
     23 CA         25.4500    3.4210    8.6500 C.3       4 GLP5        0.0000 
     24 CA         21.5375    4.5815   14.2975 C.3       2 GLC5        0.0000 
     25 CA         22.1800    6.4740   14.1620 C.3       6 GLL5        0.0000 
     26 CA         20.8950    2.6890   14.4330 C.3       4 GLP5        0.0000 
     27 CA         21.0155    5.6105   16.9670 C.3       2 GLC5        0.0000 
     28 CA         20.1580    6.9810   15.6150 C.3       6 GLL5        0.0000 
     29 CA         21.8730    4.2400   18.3190 C.3       4 GLP5        0.0000 
     30 CA         18.0790    5.7740   14.6065 C.3       2 GLC5        0.0000 
     31 CA         18.7800    7.6450   15.4960 C.3       6 GLL5        0.0000 
     32 CA         27.2745    5.4430   16.7410 C.3       2 GLC5        0.0000 
     33 CA         26.3300    6.9520   15.7020 C.3       6 GLL5        0.0000 
     34 CA         28.2190    3.9340   17.7800 C.3       4 GLP5        0.0000 
     35 N          26.4570    3.5795   16.6735 N.am      1 SEC2        0.0000 
     36 N          25.8270    4.9790   16.9690 N.am      5 SEL2        0.0000 
     37 N          27.0870    2.1800   16.3780 N.am      3 SEP2        0.0000 
     38 N          24.8680    3.9130   17.6020 N.am      1 SEC2        0.0000 
     39 N          23.9090    2.8470   18.2350 N.am      3 SEP2        0.0000 
     40 CA         29.5395    9.3370   17.4145 C.3       2 GLC5        0.0000 
     41 CA         27.6460    9.2110   16.3230 C.3       6 GLL5        0.0000 
     42 CA         31.4330    9.4630   18.5060 C.3       4 GLP5        0.0000 
     43 CA         26.9930   10.3755   16.6370 C.3       2 GLC5        0.0000 
     44 CA         26.2520   10.1210   18.4790 C.3       6 GLL5        0.0000 
     45 CA         27.7340   10.6300   14.7950 C.3       4 GLP5        0.0000 
     46 CA         29.4405   10.4920   18.3215 C.3       2 GLC5        0.0000 
     47 CA         27.6470   10.0180   17.8980 C.3       6 GLL5        0.0000 
     48 CA         31.2340   10.9660   18.7450 C.3       4 GLP5        0.0000 
     49 CA         17.5980    5.5905   12.5153 C.3       2 GLC5        0.0000 
     50 CA         18.1920    7.3920   11.9710 C.3       6 GLL5        0.0000 
     51 CA         27.0410    9.0703   15.5107 C.3       2 GLC5        0.0000 
     52 CA         27.6902   10.1223   15.9527 C.3       2 GLC5        0.0000 
@<TRIPOS>BOND
@<TRIPOS>SUBSTRUCTURE
     1 SEC2        8 GROUP        1 X    SEC  0     ROOT SEC X 2
     2 GLC5        1 GROUP        1 X    GLC  0     **** GLC X 6
     3 SEP2       10 GROUP        1 Y    SEP  0     ROOT SEP Y 9
     4 GLP5        3 GROUP        1 Y    GLP  0     **** GLP Y 13
     5 SEL2        9 GROUP        1 Z    SEL  0     ROOT SEL Z 16
     6 GLL5        2 GROUP        1 Z    GLL  0     **** GLL Z 20
@<TRIPOS>SET

