#    Name: 1o07_MXG_1_ligand
#    Modification time : Mon Mar 24 19:26:49 2014

@<TRIPOS>MOLECULE
1o07_MXG_1_ligand
   73    73     1     0     0
SMALL
NO_CHARGES


@<TRIPOS>ATOM
      1 O34        14.7770    6.6660   10.7550 O.2       1 MXG400      0.0000 
      2 C33        15.5230    5.7040   10.6430 C.2       1 MXG400      0.0000 
      3 C35        14.9600    4.3180   10.5310 C.3       1 MXG400      0.0000 
      4 N32        16.8520    5.8350   10.5820 N.am      1 MXG400      0.0000 
      5 C30        17.4440    7.1640   10.6560 C.3       1 MXG400      0.0000 
      6 C31        18.1920    7.3920   11.9710 C.3       1 MXG400      0.0000 
      7 C28        18.2310    7.5040    9.4080 C.2       1 MXG400      0.0000 
      8 O29        17.7430    8.3430    8.6670 O.2       1 MXG400      0.0000 
      9 N27        19.3850    6.9110    9.0600 N.am      1 MXG400      0.0000 
     10 C23        20.1840    5.9020    9.7570 C.3       1 MXG400      0.0000 
     11 C24        19.8370    4.4690    9.4230 C.2       1 MXG400      0.0000 
     12 O26        19.6130    3.7000   10.3750 O.co2     1 MXG400      0.0000 
     13 O25        19.8090    4.0450    8.2510 O.co2     1 MXG400      0.0000 
     14 C22        21.5930    6.3050    9.3260 C.3       1 MXG400      0.0000 
     15 C21        22.6990    5.3890    9.8310 C.3       1 MXG400      0.0000 
     16 C19        22.9350    5.4800   11.3240 C.2       1 MXG400      0.0000 
     17 O20        23.0650    4.4380   11.9410 O.2       1 MXG400      0.0000 
     18 N18        23.0720    6.6970   11.8810 N.am      1 MXG400      0.0000 
     19 C12        23.3280    7.0330   13.2990 C.3       1 MXG400      0.0000 
     20 C13        22.1800    6.4740   14.1620 C.3       1 MXG400      0.0000 
     21 C14        21.1720    7.5340   14.6160 C.3       1 MXG400      0.0000 
     22 C15        20.1580    6.9810   15.6150 C.3       1 MXG400      0.0000 
     23 C16        18.7800    7.6450   15.4960 C.3       1 MXG400      0.0000 
     24 N17        18.8660    9.0640   15.1980 N.4       1 MXG400      0.0000 
     25 C10        24.7090    6.6500   13.8050 C.2       1 MXG400      0.0000 
     26 O11        25.4910    6.0040   13.1300 O.2       1 MXG400      0.0000 
     27 N9         25.0360    7.0870   15.0230 N.am      1 MXG400      0.0000 
     28 C7         26.3300    6.9520   15.7020 C.3       1 MXG400      0.0000 
     29 C8         26.6470    5.6190   16.3720 C.2       1 MXG400      0.0000 
     30 O8A        25.8270    4.9790   16.9690 O.2       1 MXG400      0.0000 
     31 C6         26.3660    8.0690   16.7510 C.3       1 MXG400      0.0000 
     32 S1         27.6460    9.2110   16.3230 S.3       1 MXG400      0.0000 
     33 N5         25.1540    8.9020   16.8110 N.2       1 MXG400      0.0000 
     34 C4         25.0870    9.8910   17.6150 C.2       1 MXG400      0.0000 
     35 C4A        23.8910   10.7460   17.6370 C.2       1 MXG400      0.0000 
     36 O4B        24.0040   11.9660   17.9310 O.co2     1 MXG400      0.0000 
     37 O4A        22.7800   10.2530   17.3420 O.co2     1 MXG400      0.0000 
     38 C3         26.2520   10.1210   18.4790 C.2       1 MXG400      0.0000 
     39 C3A        26.1020   10.3740   19.7680 C.2       1 MXG400      0.0000 
     40 C2         27.6470   10.0180   17.8980 C.3       1 MXG400      0.0000 
     41 H          17.4936    5.0436   10.4845 H         1 MXG400      0.0000 
     42 H          16.5723    7.9039   10.6775 H         1 MXG400      0.0000 
     43 H          19.8372    7.2045    8.0994 H         1 MXG400      0.0000 
     44 H          20.1226    6.0788   10.8207 H         1 MXG400      0.0000 
     45 H          21.7912    7.3351    9.6773 H         1 MXG400      0.0000 
     46 H          21.6308    6.3385    8.2209 H         1 MXG400      0.0000 
     47 H          23.6354    5.6347    9.3006 H         1 MXG400      0.0000 
     48 H          22.4474    4.3471    9.5669 H         1 MXG400      0.0000 
     49 H          22.9928    7.5742   11.2512 H         1 MXG400      0.0000 
     50 H          23.2421    8.1538   13.3919 H         1 MXG400      0.0000 
     51 H          22.6113    5.9855   15.0485 H         1 MXG400      0.0000 
     52 H          21.6517    5.6991   13.5866 H         1 MXG400      0.0000 
     53 H          20.6404    7.9190   13.7396 H         1 MXG400      0.0000 
     54 H          21.7135    8.3668   15.0767 H         1 MXG400      0.0000 
     55 H          20.5374    7.1306   16.6334 H         1 MXG400      0.0000 
     56 H          20.0468    5.9014   15.4551 H         1 MXG400      0.0000 
     57 H          18.2413    7.4728   16.4450 H         1 MXG400      0.0000 
     58 H          18.2163    7.1101   14.7107 H         1 MXG400      0.0000 
     59 H          24.2977    7.6056   15.6163 H         1 MXG400      0.0000 
     60 H          27.1396    7.1913   14.9960 H         1 MXG400      0.0000 
     61 H          27.6735    5.3648   16.2262 H         1 MXG400      0.0000 
     62 H          26.6777    7.7266   17.6966 H         1 MXG400      0.0000 
     63 H          28.0883   10.9731   17.6840 H         1 MXG400      0.0000 
     64 H          28.3067    9.4080   18.4858 H         1 MXG400      0.0000 
     65 H          15.6808    3.6300   10.4467 H         1 MXG400      0.0000 
     66 H          14.4135    4.0733   11.3319 H         1 MXG400      0.0000 
     67 H          14.3676    4.2213    9.7312 H         1 MXG400      0.0000 
     68 H          18.9374    6.7366   12.0927 H         1 MXG400      0.0000 
     69 H          18.5952    8.3060   12.0153 H         1 MXG400      0.0000 
     70 H          17.5881    7.2994   12.7627 H         1 MXG400      0.0000 
     71 H          19.3645    9.5628   15.9070 H         1 MXG400      0.0000 
     72 H          19.3382    9.2339   14.3330 H         1 MXG400      0.0000 
     73 H          17.9613    9.4837   15.1254 H         1 MXG400      0.0000 
@<TRIPOS>BOND
     1    2    1 2    
     2    3    2 1    
     3    4    2 am   
     4   65    3 1    
     5   66    3 1    
     6   67    3 1    
     7    5    4 1    
     8   41    4 1    
     9    6    5 1    
    10    7    5 1    
    11   42    5 1    
    12   68    6 1    
    13   69    6 1    
    14   70    6 1    
    15    8    7 2    
    16    9    7 am   
    17   10    9 1    
    18   43    9 1    
    19   11   10 1    
    20   14   10 1    
    21   44   10 1    
    22   12   11 ar   
    23   13   11 ar   
    24   15   14 1    
    25   45   14 1    
    26   46   14 1    
    27   16   15 1    
    28   47   15 1    
    29   48   15 1    
    30   17   16 2    
    31   18   16 am   
    32   19   18 1    
    33   49   18 1    
    34   20   19 1    
    35   25   19 1    
    36   50   19 1    
    37   21   20 1    
    38   51   20 1    
    39   52   20 1    
    40   22   21 1    
    41   53   21 1    
    42   54   21 1    
    43   23   22 1    
    44   55   22 1    
    45   56   22 1    
    46   24   23 1    
    47   57   23 1    
    48   58   23 1    
    49   71   24 1    
    50   72   24 1    
    51   73   24 1    
    52   26   25 2    
    53   27   25 am   
    54   28   27 1    
    55   59   27 1    
    56   29   28 1    
    57   31   28 1    
    58   60   28 1    
    59   30   29 2    
    60   61   29 1    
    61   32   31 1    
    62   33   31 1    
    63   62   31 1    
    64   40   32 1    
    65   34   33 2    
    66   35   34 1    
    67   38   34 1    
    68   36   35 ar   
    69   37   35 ar   
    70   39   38 2    
    71   40   38 1    
    72   63   40 1    
    73   64   40 1    
@<TRIPOS>SUBSTRUCTURE
     1 MXG400      1 GROUP   
@<TRIPOS>SET

