#    Name: 3r7r_FAZ_1_INTS_M
#    Modification time : Tue Mar 25 11:13:29 2014

@<TRIPOS>MOLECULE
3r7r_FAZ_1_INTS_M
   71     0     6     0     0
SMALL
NO_CHARGES


@<TRIPOS>ATOM
      1 N          18.0920   59.1805   24.4500 N.am      1 SEC2        0.0000 
      2 N          19.2330   60.2410   24.0950 N.am      5 SEL2        0.0000 
      3 N          16.9510   58.1200   24.8050 N.am      3 SEP2        0.0000 
      4 N          27.0045   61.1010   23.1505 N.am      1 SEC2        0.0000 
      5 N          26.1110   60.3600   22.1660 N.am      5 SEL2        0.0000 
      6 N          27.8980   61.8420   24.1350 N.am      3 SEP2        0.0000 
      7 CA         18.1155   59.2950   22.8965 C.3       2 GLC5        0.0000 
      8 CA         19.0650   61.2660   23.2460 C.3       6 GLL5        0.0000 
      9 CA         17.1660   57.3240   22.5470 C.3       4 GLP5        0.0000 
     10 CA         16.4970   60.2355   22.5400 C.3       2 GLC5        0.0000 
     11 CA         17.7910   61.7540   23.1500 C.3       6 GLL5        0.0000 
     12 CA         15.2030   58.7170   21.9300 C.3       4 GLP5        0.0000 
     13 CA         16.9885   62.3480   25.1585 C.3       2 GLC5        0.0000 
     14 CA         16.1860   62.9420   27.1670 C.3       4 GLP5        0.0000 
     15 CA         22.3660   58.7730   25.8250 C.3       2 GLC5        0.0000 
     16 CA         21.4670   59.8660   24.4370 C.3       6 GLL5        0.0000 
     17 CA         23.2650   57.6800   27.2130 C.3       4 GLP5        0.0000 
     18 CA         21.3460   60.5010   26.3225 C.3       2 GLC5        0.0000 
     19 CA         21.2250   61.1360   28.2080 C.3       4 GLP5        0.0000 
     20 CA         18.6890   58.2905   23.2050 C.3       2 GLC5        0.0000 
     21 CA         20.2120   59.2570   23.8630 C.3       6 GLL5        0.0000 
     22 CA         23.1850   58.5090   22.3635 C.3       2 GLC5        0.0000 
     23 CA         23.4680   60.4110   23.0360 C.3       6 GLL5        0.0000 
     24 CA         22.9020   56.6070   21.6910 C.3       4 GLP5        0.0000 
     25 CA         21.5400   63.6055   17.4885 C.3       2 GLC5        0.0000 
     26 CA         23.4020   64.3040   18.3170 C.3       6 GLL5        0.0000 
     27 CA         19.6780   62.9070   16.6600 C.3       4 GLP5        0.0000 
     28 CA         23.3200   62.5245   15.9690 C.3       2 GLC5        0.0000 
     29 CA         23.4480   62.9650   18.0240 C.3       6 GLL5        0.0000 
     30 CA         23.1920   62.0840   13.9140 C.3       4 GLP5        0.0000 
     31 CA         14.5410   63.4200   20.8170 C.3       2 GLC5        0.0000 
     32 CA         14.4420   64.9390   21.9760 C.3       6 GLL5        0.0000 
     33 CA         14.6400   61.9010   19.6580 C.3       4 GLP5        0.0000 
     34 CA         27.3735   60.8145   18.2525 C.3       2 GLC5        0.0000 
     35 CA         27.2280   61.6590   20.2350 C.3       6 GLL5        0.0000 
     36 CA         27.5190   59.9700   16.2700 C.3       4 GLP5        0.0000 
     37 CA         28.0400   62.5645   21.3860 C.3       2 GLC5        0.0000 
     38 CA         28.8520   63.4700   22.5370 C.3       4 GLP5        0.0000 
     39 CA         22.5010   60.9840   17.3215 C.3       2 GLC5        0.0000 
     40 CA         24.3410   60.4850   18.4390 C.3       6 GLL5        0.0000 
     41 CA         20.6610   61.4830   16.2040 C.3       4 GLP5        0.0000 
     42 CA         23.0720   59.4745   17.6125 C.3       2 GLC5        0.0000 
     43 CA         21.8030   58.4640   16.7860 C.3       4 GLP5        0.0000 
     44 CA         25.9300   60.2275   17.3545 C.3       2 GLC5        0.0000 
     45 CA         24.7650   58.9135   19.0560 C.3       2 GLC5        0.0000 
     46 CA         25.1890   57.3420   19.6730 C.3       4 GLP5        0.0000 
     47 CA         21.0545   60.6470   20.6205 C.3       2 GLC5        0.0000 
     48 CA         21.5060   61.4510   22.4680 C.3       6 GLL5        0.0000 
     49 CA         20.0330   59.5370   19.3430 C.3       4 GLP5        0.0000 
     50 CA         23.9140   62.9328   22.7812 C.3       2 GLC5        0.0000 
     51 CA         22.6460   62.0630   21.3280 C.3       6 GLL5        0.0000 
     52 CA         24.5280   64.2720   23.8970 C.3       4 GLP5        0.0000 
     53 CA         19.0329   63.7156   23.4060 C.3       2 GLC5        0.0000 
     54 CA         19.7780   62.9280   21.6530 C.3       6 GLL5        0.0000 
     55 CA         19.1790   64.4140   25.0140 C.3       4 GLP5        0.0000 
     56 CA         20.8573   62.8768   23.8525 C.3       2 GLC5        0.0000 
     57 CA         20.0950   61.8660   22.4760 C.3       6 GLL5        0.0000 
     58 CA         20.9140   64.0950   25.2330 C.3       4 GLP5        0.0000 
     59 CA         19.7669   60.6842   20.9991 C.3       2 GLC5        0.0000 
     60 CA         18.8035   62.9620   24.1060 C.3       2 GLC5        0.0000 
     61 CA         21.3603   62.1587   24.5535 C.3       2 GLC5        0.0000 
     62 CA         22.1460   60.5790   23.3110 C.3       6 GLL5        0.0000 
     63 CA         19.6953   58.8287   25.7095 C.3       2 GLC5        0.0000 
     64 CA         18.5510   58.0960   27.2690 C.3       4 GLP5        0.0000 
     65 CA         21.9556   58.1734   22.7797 C.3       2 GLC5        0.0000 
     66 CA         23.3326   61.1634   24.6493 C.3       2 GLC5        0.0000 
     67 CA         24.1080   61.9010   25.9490 C.3       4 GLP5        0.0000 
     68 CA         24.7632   63.7958   21.9348 C.3       2 GLC5        0.0000 
     69 CA         25.0190   62.6470   19.8230 C.3       6 GLL5        0.0000 
     70 CA         22.2583   62.0230   17.3038 C.3       2 GLC5        0.0000 
     71 CA         24.2630   62.1610   18.7830 C.3       6 GLL5        0.0000 
@<TRIPOS>BOND
@<TRIPOS>SUBSTRUCTURE
     1 SEC2        1 GROUP        1 X    SEC  0     ROOT SEC X 2
     2 GLC5        7 GROUP        1 X    GLC  0     **** GLC X 6
     3 SEP2        3 GROUP        1 Y    SEP  0     ROOT SEP Y 9
     4 GLP5        9 GROUP        1 Y    GLP  0     **** GLP Y 13
     5 SEL2        2 GROUP        1 Z    SEL  0     ROOT SEL Z 16
     6 GLL5        8 GROUP        1 Z    GLL  0     **** GLL Z 20
@<TRIPOS>SET

