#    Name: 3r7r_FAZ_1_ligand
#    Modification time : Tue Mar 25 11:13:29 2014

@<TRIPOS>MOLECULE
3r7r_FAZ_1_ligand
   48    51     1     0     0
SMALL
NO_CHARGES


@<TRIPOS>ATOM
      1 C1         17.4960   62.8130   22.3220 C.ar      1 FAZ1        0.0000 
      2 N1         25.8180   61.7890   20.5530 N.am      1 FAZ1        0.0000 
      3 O1         19.2330   60.2410   24.0950 O.3       1 FAZ1        0.0000 
      4 S1         22.6460   62.0630   21.3280 S.3       1 FAZ1        0.0000 
      5 C2         18.4950   63.4000   21.5640 C.ar      1 FAZ1        0.0000 
      6 N2         16.1810   63.2540   22.2660 N.am      1 FAZ1        0.0000 
      7 O2         26.1110   60.3600   22.1660 O.2       1 FAZ1        0.0000 
      8 C3         19.7780   62.9280   21.6530 C.ar      1 FAZ1        0.0000 
      9 O3         16.7630   65.3540   21.8460 O.2       1 FAZ1        0.0000 
     10 C4         20.0950   61.8660   22.4760 C.ar      1 FAZ1        0.0000 
     11 C5         19.0650   61.2660   23.2460 C.ar      1 FAZ1        0.0000 
     12 C6         17.7910   61.7540   23.1500 C.ar      1 FAZ1        0.0000 
     13 C7         21.5060   61.4510   22.4680 C.2       1 FAZ1        0.0000 
     14 C8         22.1460   60.5790   23.3110 C.2       1 FAZ1        0.0000 
     15 C9         21.4670   59.8660   24.4370 C.3       1 FAZ1        0.0000 
     16 C10        20.2120   59.2570   23.8630 C.3       1 FAZ1        0.0000 
     17 C11        23.9540   61.1240   22.0030 C.2       1 FAZ1        0.0000 
     18 C12        23.4680   60.4110   23.0360 C.2       1 FAZ1        0.0000 
     19 C13        25.3370   61.0780   21.5740 C.2       1 FAZ1        0.0000 
     20 C14        25.0190   62.6470   19.8230 C.ar      1 FAZ1        0.0000 
     21 C15        24.9780   63.9920   20.1220 C.ar      1 FAZ1        0.0000 
     22 C16        24.1690   64.8150   19.3650 C.ar      1 FAZ1        0.0000 
     23 C17        23.4020   64.3040   18.3170 C.ar      1 FAZ1        0.0000 
     24 C18        23.4480   62.9650   18.0240 C.ar      1 FAZ1        0.0000 
     25 C19        24.2630   62.1610   18.7830 C.ar      1 FAZ1        0.0000 
     26 C20        15.8860   64.5370   22.0200 C.2       1 FAZ1        0.0000 
     27 C21        14.4420   64.9390   21.9760 C.3       1 FAZ1        0.0000 
     28 C22        27.2280   61.6590   20.2350 C.3       1 FAZ1        0.0000 
     29 CL1        24.3410   60.4850   18.4390 Cl        1 FAZ1        0.0000 
     30 H          18.2681   64.1866   20.9389 H         1 FAZ1        0.0000 
     31 H          15.4195   62.5529   22.4221 H         1 FAZ1        0.0000 
     32 H          20.5323   63.3761   21.0906 H         1 FAZ1        0.0000 
     33 H          17.0284   61.3193   23.7116 H         1 FAZ1        0.0000 
     34 H          21.2072   60.5639   25.2145 H         1 FAZ1        0.0000 
     35 H          22.1040   59.0873   24.8203 H         1 FAZ1        0.0000 
     36 H          20.3722   59.0717   22.8150 H         1 FAZ1        0.0000 
     37 H          20.0086   58.3393   24.3871 H         1 FAZ1        0.0000 
     38 H          24.0478   59.7828   23.5824 H         1 FAZ1        0.0000 
     39 H          25.5361   64.3735   20.8899 H         1 FAZ1        0.0000 
     40 H          24.1257   65.8295   19.5728 H         1 FAZ1        0.0000 
     41 H          22.8049   64.9413   17.7701 H         1 FAZ1        0.0000 
     42 H          22.8908   62.5746   17.2610 H         1 FAZ1        0.0000 
     43 H          14.3338   65.9148   21.7860 H         1 FAZ1        0.0000 
     44 H          13.9404   64.4447   21.2660 H         1 FAZ1        0.0000 
     45 H          13.9790   64.7562   22.8433 H         1 FAZ1        0.0000 
     46 H          27.8084   61.9244   21.0049 H         1 FAZ1        0.0000 
     47 H          27.4697   60.7185   19.9963 H         1 FAZ1        0.0000 
     48 H          27.4884   62.2343   19.4596 H         1 FAZ1        0.0000 
@<TRIPOS>BOND
     1    5    1 ar   
     2    6    1 1    
     3   12    1 ar   
     4   19    2 am   
     5   20    2 1    
     6   28    2 1    
     7   11    3 1    
     8   16    3 1    
     9   13    4 1    
    10   17    4 1    
    11    8    5 ar   
    12   30    5 1    
    13   26    6 am   
    14   31    6 1    
    15   19    7 2    
    16   10    8 ar   
    17   32    8 1    
    18   26    9 2    
    19   11   10 ar   
    20   13   10 1    
    21   12   11 ar   
    22   33   12 1    
    23   14   13 2    
    24   15   14 1    
    25   18   14 1    
    26   16   15 1    
    27   34   15 1    
    28   35   15 1    
    29   36   16 1    
    30   37   16 1    
    31   18   17 2    
    32   19   17 1    
    33   38   18 1    
    34   21   20 ar   
    35   25   20 ar   
    36   22   21 ar   
    37   39   21 1    
    38   23   22 ar   
    39   40   22 1    
    40   24   23 ar   
    41   41   23 1    
    42   25   24 ar   
    43   42   24 1    
    44   29   25 1    
    45   27   26 1    
    46   43   27 1    
    47   44   27 1    
    48   45   27 1    
    49   46   28 1    
    50   47   28 1    
    51   48   28 1    
@<TRIPOS>SUBSTRUCTURE
     1 FAZ1        1 GROUP   
@<TRIPOS>SET

