#    Name: 2uxz_HI1_1_INTS_M
#    Modification time : Tue Mar 25 00:26:18 2014

@<TRIPOS>MOLECULE
2uxz_HI1_1_INTS_M
  116     0     9     0     0
SMALL
NO_CHARGES


@<TRIPOS>ATOM
      1 CA          5.5425   22.7880    5.9515 C.3       3 GLC5        0.0000 
      2 CA          6.4090   23.0470    3.9510 C.3       9 GLL5        0.0000 
      3 CA          4.6760   22.5290    7.9520 C.3       6 GLP5        0.0000 
      4 CA          5.5800   22.2830    2.3995 C.3       3 GLC5        0.0000 
      5 CA          5.4960   24.0280    3.4520 C.3       9 GLL5        0.0000 
      6 CA          5.6640   20.5380    1.3470 C.3       6 GLP5        0.0000 
      7 CA          6.0725   24.5715    0.4195 C.3       3 GLC5        0.0000 
      8 CA          5.9410   25.0760    2.5760 C.3       9 GLL5        0.0000 
      9 CA          6.2040   24.0670   -1.7370 C.3       6 GLP5        0.0000 
     10 CA         10.4080   25.6380    0.9790 C.3       3 GLC5        0.0000 
     11 CA          9.7300   24.2120    2.3400 C.3       9 GLL5        0.0000 
     12 CA         11.0860   27.0640   -0.3820 C.3       6 GLP5        0.0000 
     13 CA         10.7345   23.8560    0.7035 C.3       3 GLC5        0.0000 
     14 CA         11.7390   23.5000   -0.9330 C.3       6 GLP5        0.0000 
     15 CA          6.3275   29.5015    5.7565 C.3       3 GLC5        0.0000 
     16 CA          5.3530   27.7850    5.8960 C.3       9 GLL5        0.0000 
     17 CA          7.3020   31.2180    5.6170 C.3       6 GLP5        0.0000 
     18 CA         11.8490   23.8560    1.1005 C.3       3 GLC5        0.0000 
     19 CA         11.9590   24.2120    3.1340 C.3       9 GLL5        0.0000 
     20 N           8.9400   29.2270    5.3680 N.am      2 SEC2        0.0000 
     21 N           8.2340   28.0370    5.0920 N.am      8 SEL2        0.0000 
     22 N           9.6460   30.4170    5.6440 N.am      5 SEP2        0.0000 
     23 O           7.3690   24.8495    6.6140 O.2       1 ALC1        0.0000 
     24 O           8.1990   26.0930    6.3170 O.2       7 ALL1        0.0000 
     25 O           6.5390   23.6060    6.9110 O.2       4 ALP1        0.0000 
     26 CA         15.5630   24.4780    8.7130 C.3       3 GLC5        0.0000 
     27 CA         14.6430   23.1900    7.3900 C.3       9 GLL5        0.0000 
     28 CA         16.4830   25.7660   10.0360 C.3       6 GLP5        0.0000 
     29 O          15.5815   24.9330    5.7965 O.2       1 ALC1        0.0000 
     30 O          15.7070   23.5790    5.2600 O.2       7 ALL1        0.0000 
     31 O          15.4560   26.2870    6.3330 O.2       4 ALP1        0.0000 
     32 CA         14.4600   18.7880    6.4680 C.3       3 GLC5        0.0000 
     33 CA         15.9670   19.4520    4.9410 C.3       9 GLL5        0.0000 
     34 CA         12.9530   18.1240    7.9950 C.3       6 GLP5        0.0000 
     35 CA         17.6730   20.2275    2.9600 C.3       3 GLC5        0.0000 
     36 CA         17.0370   18.1050    3.3470 C.3       9 GLL5        0.0000 
     37 CA         18.3090   22.3500    2.5730 C.3       6 GLP5        0.0000 
     38 CA         16.3240   16.0495    3.2835 C.3       3 GLC5        0.0000 
     39 CA         15.6110   13.9940    3.2200 C.3       6 GLP5        0.0000 
     40 CA         15.0300   20.7235    0.0460 C.3       3 GLC5        0.0000 
     41 CA         15.4390   18.9010    1.0800 C.3       9 GLL5        0.0000 
     42 CA         14.6210   22.5460   -0.9880 C.3       6 GLP5        0.0000 
     43 N          19.2150   20.3995    3.8860 N.am      2 SEC2        0.0000 
     44 N          18.3440   20.1190    5.1510 N.am      8 SEL2        0.0000 
     45 N          20.0860   20.6800    2.6210 N.am      5 SEP2        0.0000 
     46 O          18.5090   21.6580    5.1555 O.2       1 ALC1        0.0000 
     47 O          18.3440   20.1190    5.1510 O.2       7 ALL1        0.0000 
     48 O          18.6740   23.1970    5.1600 O.2       4 ALP1        0.0000 
     49 CA         16.9645   15.5210    2.1135 C.3       3 GLC5        0.0000 
     50 CA         17.3290   17.5200    2.0630 C.3       9 GLL5        0.0000 
     51 CA         16.6000   13.5220    2.1640 C.3       6 GLP5        0.0000 
     52 CA         19.7455   18.3950    3.8920 C.3       3 GLC5        0.0000 
     53 CA         17.7290   17.8580    4.6870 C.3       9 GLL5        0.0000 
     54 CA         21.7620   18.9320    3.0970 C.3       6 GLP5        0.0000 
     55 CA         10.6835   27.6040    6.1030 C.3       3 GLC5        0.0000 
     56 CA          9.6230   26.0150    6.6930 C.3       9 GLL5        0.0000 
     57 CA         11.7440   29.1930    5.5130 C.3       6 GLP5        0.0000 
     58 CA          8.3310   26.5955   10.6010 C.3       3 GLC5        0.0000 
     59 CA          9.3780   27.3990    8.7970 C.3       9 GLL5        0.0000 
     60 CA          7.2840   25.7920   12.4050 C.3       6 GLP5        0.0000 
     61 CA          8.1555   25.3825   10.6780 C.3       3 GLC5        0.0000 
     62 CA          9.0270   24.9730    8.9510 C.3       9 GLL5        0.0000 
     63 O          10.7405   26.4250    3.8365 O.2       1 ALC1        0.0000 
     64 O          10.2330   25.1090    4.5020 O.2       7 ALL1        0.0000 
     65 O          11.2480   27.7410    3.1710 O.2       4 ALP1        0.0000 
     66 CA          4.2030   23.2180    5.9585 C.3       3 GLC5        0.0000 
     67 CA          3.7300   23.9070    3.9650 C.3       9 GLL5        0.0000 
     68 CA          2.3200   22.9590    5.3705 C.3       3 GLC5        0.0000 
     69 CA          0.9100   22.0110    6.7760 C.3       6 GLP5        0.0000 
     70 CA         12.9845   27.0420    9.1395 C.3       3 GLC5        0.0000 
     71 CA         11.3100   25.9400    8.6360 C.3       9 GLL5        0.0000 
     72 CA         14.6590   28.1440    9.6430 C.3       6 GLP5        0.0000 
     73 CA         16.9932   22.8100    9.9223 C.3       3 GLC5        0.0000 
     74 CA         15.7540   22.3630    8.0910 C.3       9 GLL5        0.0000 
     75 CA         17.5330   23.1330   11.8710 C.3       6 GLP5        0.0000 
     76 CA         16.4682   24.1265    9.0047 C.3       3 GLC5        0.0000 
     77 CA         17.1530   22.6110    7.8560 C.3       9 GLL5        0.0000 
     78 CA         18.6322   23.6367    8.2135 C.3       3 GLC5        0.0000 
     79 CA         19.6140   25.0640    8.2510 C.3       6 GLP5        0.0000 
     80 CA         17.7415   22.2048   10.4020 C.3       3 GLC5        0.0000 
     81 CA         18.1480   21.8080    8.4960 C.3       9 GLL5        0.0000 
     82 CA         15.1842   20.2515   11.0030 C.3       3 GLC5        0.0000 
     83 CA         16.3600   20.4910    9.6140 C.3       9 GLL5        0.0000 
     84 CA         14.5080   19.6110   12.7110 C.3       6 GLP5        0.0000 
     85 CA         16.6968   22.0125   10.5830 C.3       3 GLC5        0.0000 
     86 CA         14.4067   19.5080    8.6450 C.3       3 GLC5        0.0000 
     87 CA          7.5202   22.1565    5.1653 C.3       3 GLC5        0.0000 
     88 CA          7.7800   23.1110    3.5820 C.3       9 GLL5        0.0000 
     89 CA          7.9460   21.2340    6.5640 C.3       6 GLP5        0.0000 
     90 CA          7.1474   21.8257    2.6578 C.3       3 GLC5        0.0000 
     91 CA          7.0850   20.3120    1.7670 C.3       6 GLP5        0.0000 
     92 CA          8.6694   24.0175    0.6236 C.3       3 GLC5        0.0000 
     93 CA          8.2410   24.1530    2.7100 C.3       9 GLL5        0.0000 
     94 CA          8.5810   23.6060   -1.1510 C.3       6 GLP5        0.0000 
     95 CA         13.6221   22.5675    9.3379 C.3       3 GLC5        0.0000 
     96 CA         12.1440   22.6260   10.7140 C.3       6 GLP5        0.0000 
     97 CA         17.4875   20.8195    3.8965 C.3       3 GLC5        0.0000 
     98 CA         16.4157   20.7405    2.2073 C.3       3 GLC5        0.0000 
     99 CA         15.9850   19.0580    3.5020 C.3       9 GLL5        0.0000 
    100 CA         17.2590   22.2120    1.4690 C.3       6 GLP5        0.0000 
    101 CA         14.7337   17.9440    4.0871 C.3       3 GLC5        0.0000 
    102 CA         12.9610   17.2080    4.3900 C.3       6 GLP5        0.0000 
    103 CA         14.1303   18.1992    3.0622 C.3       3 GLC5        0.0000 
    104 CA         15.1600   19.4800    2.3890 C.3       9 GLL5        0.0000 
    105 CA         16.6182   20.3135    1.2358 C.3       3 GLC5        0.0000 
    106 CA         14.5427   18.1305   -0.2502 C.3       3 GLC5        0.0000 
    107 CA         13.1080   17.8460   -1.5030 C.3       6 GLP5        0.0000 
    108 CA         14.9742   16.6365    1.2338 C.3       3 GLC5        0.0000 
    109 CA         13.9710   14.8580    1.4650 C.3       6 GLP5        0.0000 
    110 CA         18.2838   17.2702    0.4220 C.3       3 GLC5        0.0000 
    111 CA         16.5160   17.9290    0.9250 C.3       9 GLL5        0.0000 
    112 CA         19.6450   16.8160   -0.6500 C.3       6 GLP5        0.0000 
    113 CA         11.5248   27.6859    7.6775 C.3       3 GLC5        0.0000 
    114 CA         12.5880   29.0400    6.7760 C.3       6 GLP5        0.0000 
    115 CA         10.7269   24.0676    9.1393 C.3       3 GLC5        0.0000 
    116 CA         11.0800   22.4100    9.6610 C.3       6 GLP5        0.0000 
@<TRIPOS>BOND
@<TRIPOS>SUBSTRUCTURE
     1 ALC1       23 GROUP        1 X    ALC  0     ROOT ALC X 1
     2 SEC2       20 GROUP        1 X    SEC  0     **** SEC X 2
     3 GLC5        1 GROUP        1 X    GLC  0     **** GLC X 6
     4 ALP1       25 GROUP        1 Y    ALP  0     ROOT ALP Y 8
     5 SEP2       22 GROUP        1 Y    SEP  0     **** SEP Y 9
     6 GLP5        3 GROUP        1 Y    GLP  0     **** GLP Y 13
     7 ALL1       24 GROUP        1 Z    ALL  0     ROOT ALL Z 15
     8 SEL2       21 GROUP        1 Z    SEL  0     **** SEL Z 16
     9 GLL5        2 GROUP        1 Z    GLL  0     **** GLL Z 20
@<TRIPOS>SET

