#    Name: 2uxz_HI1_1_ligand
#    Modification time : Tue Mar 25 00:26:18 2014

@<TRIPOS>MOLECULE
2uxz_HI1_1_ligand
   92    95     1     0     0
SMALL
NO_CHARGES


@<TRIPOS>ATOM
      1 C23        15.7540   22.3630    8.0910 C.ar      1 HI11100     0.0000 
      2 C40        12.8380   23.2090    3.8820 C.3       1 HI11100     0.0000 
      3 C14        13.3760   23.7450    5.2380 C.3       1 HI11100     0.0000 
      4 C24        17.1530   22.6110    7.8560 C.ar      1 HI11100     0.0000 
      5 C1         14.5670   22.9560    5.8420 C.3       1 HI11100     0.0000 
      6 C25        18.1480   21.8080    8.4960 C.ar      1 HI11100     0.0000 
      7 C26        17.7520   20.7450    9.3700 C.ar      1 HI11100     0.0000 
      8 C27        16.3600   20.4910    9.6140 C.ar      1 HI11100     0.0000 
      9 C28        15.3610   21.2930    8.9760 C.ar      1 HI11100     0.0000 
     10 C33         8.2410   24.1530    2.7100 C.ar      1 HI11100     0.0000 
     11 C34         7.7800   23.1110    3.5820 C.ar      1 HI11100     0.0000 
     12 C35         6.4090   23.0470    3.9510 C.ar      1 HI11100     0.0000 
     13 C36         5.4960   24.0280    3.4520 C.ar      1 HI11100     0.0000 
     14 C37         5.9410   25.0760    2.5760 C.ar      1 HI11100     0.0000 
     15 C38         7.3300   25.1390    2.2030 C.ar      1 HI11100     0.0000 
     16 C32         9.7300   24.2120    2.3400 C.3       1 HI11100     0.0000 
     17 C7          5.3530   27.7850    5.8960 C.3       1 HI11100     0.0000 
     18 C4         11.9590   24.2120    3.1340 C.3       1 HI11100     0.0000 
     19 O3          8.2340   28.0370    5.0920 O.2       1 HI11100     0.0000 
     20 N1          8.1990   26.0930    6.3170 N.am      1 HI11100     0.0000 
     21 C22        14.6430   23.1900    7.3900 C.3       1 HI11100     0.0000 
     22 O6         15.7070   23.5790    5.2600 O.3       1 HI11100     0.0000 
     23 O8          6.2900   26.8060    5.4230 O.3       1 HI11100     0.0000 
     24 C10        14.5790   21.4220    5.6040 C.2       1 HI11100     0.0000 
     25 O11        13.5820   20.7200    5.8270 O.2       1 HI11100     0.0000 
     26 N12        15.7660   20.9170    5.1820 N.am      1 HI11100     0.0000 
     27 C51        15.9670   19.4520    4.9410 C.3       1 HI11100     0.0000 
     28 C52        15.9850   19.0580    3.5020 C.ar      1 HI11100     0.0000 
     29 C57        17.0370   18.1050    3.3470 C.ar      1 HI11100     0.0000 
     30 C53        15.1600   19.4800    2.3890 C.ar      1 HI11100     0.0000 
     31 C54        15.4390   18.9010    1.0800 C.ar      1 HI11100     0.0000 
     32 C55        16.5160   17.9290    0.9250 C.ar      1 HI11100     0.0000 
     33 C59        17.3650   19.1260    5.4990 C.3       1 HI11100     0.0000 
     34 O60        18.3440   20.1190    5.1510 O.3       1 HI11100     0.0000 
     35 C30         7.6650   27.0630    5.5810 C.2       1 HI11100     0.0000 
     36 C56        17.3290   17.5200    2.0630 C.ar      1 HI11100     0.0000 
     37 C58        17.7290   17.8580    4.6870 C.3       1 HI11100     0.0000 
     38 C41         9.6230   26.0150    6.6930 C.3       1 HI11100     0.0000 
     39 C42         9.8480   26.0480    8.2470 C.3       1 HI11100     0.0000 
     40 C43         9.3780   27.3990    8.7970 C.3       1 HI11100     0.0000 
     41 C44         9.0270   24.9730    8.9510 C.3       1 HI11100     0.0000 
     42 C45         9.9780   24.8390    5.7930 C.2       1 HI11100     0.0000 
     43 N24        10.5880   24.0240    3.4930 N.3       1 HI11100     0.0000 
     44 O46        10.0170   23.6860    6.2600 O.2       1 HI11100     0.0000 
     45 N47        10.2330   25.1090    4.5020 N.am      1 HI11100     0.0000 
     46 BR          3.7300   23.9070    3.9650 Br        1 HI11100     0.0000 
     47 C86        11.3100   25.9400    8.6360 C.3       1 HI11100     0.0000 
     48 H          12.2629   22.2943    4.0752 H         1 HI11100     0.0000 
     49 H          13.6953   22.9365    3.2531 H         1 HI11100     0.0000 
     50 H          12.5477   23.7463    5.9677 H         1 HI11100     0.0000 
     51 H          13.6825   24.7967    5.1022 H         1 HI11100     0.0000 
     52 H          17.4303   23.3627    7.2304 H         1 HI11100     0.0000 
     53 H          19.1317   21.9900    8.3321 H         1 HI11100     0.0000 
     54 H          18.4564   20.1682    9.8194 H         1 HI11100     0.0000 
     55 H          16.0861   19.7409   10.2403 H         1 HI11100     0.0000 
     56 H          14.3787   21.1141    9.1419 H         1 HI11100     0.0000 
     57 H           8.4387   22.4214    3.9327 H         1 HI11100     0.0000 
     58 H           6.0762   22.3114    4.5644 H         1 HI11100     0.0000 
     59 H           5.2896   25.7597    2.2260 H         1 HI11100     0.0000 
     60 H           7.6578   25.8702    1.5909 H         1 HI11100     0.0000 
     61 H           9.9174   25.1874    1.8606 H         1 HI11100     0.0000 
     62 H           9.9161   23.4383    1.5764 H         1 HI11100     0.0000 
     63 H          12.1216   24.0624    2.0596 H         1 HI11100     0.0000 
     64 H          12.3109   25.2193    3.3884 H         1 HI11100     0.0000 
     65 H           7.6094   25.2948    6.6866 H         1 HI11100     0.0000 
     66 H          14.8228   24.2540    7.5705 H         1 HI11100     0.0000 
     67 H          13.6746   22.9290    7.8272 H         1 HI11100     0.0000 
     68 H          16.5917   21.5115    5.0047 H         1 HI11100     0.0000 
     69 H          15.2652   18.8779    5.4901 H         1 HI11100     0.0000 
     70 H          14.4300   20.1392    2.5081 H         1 HI11100     0.0000 
     71 H          14.8884   19.1719    0.2827 H         1 HI11100     0.0000 
     72 H          16.7010   17.5324    0.0108 H         1 HI11100     0.0000 
     73 H          17.3094   18.8748    6.4910 H         1 HI11100     0.0000 
     74 H          18.0610   16.8571    1.9492 H         1 HI11100     0.0000 
     75 H          18.7738   17.8167    4.5545 H         1 HI11100     0.0000 
     76 H          17.3158   17.0111    5.1589 H         1 HI11100     0.0000 
     77 H          10.0876   26.9130    6.2332 H         1 HI11100     0.0000 
     78 H          10.2067   26.0646    4.1047 H         1 HI11100     0.0000 
     79 H           5.4477   27.9455    6.8785 H         1 HI11100     0.0000 
     80 H           5.4765   28.6672    5.4416 H         1 HI11100     0.0000 
     81 H           4.4074   27.5022    5.7351 H         1 HI11100     0.0000 
     82 H           9.5083   27.4628    9.7864 H         1 HI11100     0.0000 
     83 H           9.8775   28.1615    8.3858 H         1 HI11100     0.0000 
     84 H           8.4065   27.5549    8.6187 H         1 HI11100     0.0000 
     85 H           9.2688   24.0552    8.6360 H         1 HI11100     0.0000 
     86 H           9.1654   24.9890    9.9412 H         1 HI11100     0.0000 
     87 H           8.0469   25.0893    8.7901 H         1 HI11100     0.0000 
     88 H          11.7195   25.0885    8.3086 H         1 HI11100     0.0000 
     89 H          11.8516   26.6904    8.2570 H         1 HI11100     0.0000 
     90 H          11.4329   25.9618    9.6282 H         1 HI11100     0.0000 
     91 H          15.6979   24.5151    5.6115 H         1 HI11100     0.0000 
     92 H          17.8954   20.9960    5.3232 H         1 HI11100     0.0000 
@<TRIPOS>BOND
     1    4    1 ar   
     2    9    1 ar   
     3   21    1 1    
     4    3    2 1    
     5   18    2 1    
     6   48    2 1    
     7   49    2 1    
     8    5    3 1    
     9   50    3 1    
    10   51    3 1    
    11    6    4 ar   
    12   52    4 1    
    13   21    5 1    
    14   22    5 1    
    15   24    5 1    
    16    7    6 ar   
    17   53    6 1    
    18    8    7 ar   
    19   54    7 1    
    20    9    8 ar   
    21   55    8 1    
    22   56    9 1    
    23   11   10 ar   
    24   15   10 ar   
    25   16   10 1    
    26   12   11 ar   
    27   57   11 1    
    28   13   12 ar   
    29   58   12 1    
    30   14   13 ar   
    31   46   13 1    
    32   15   14 ar   
    33   59   14 1    
    34   60   15 1    
    35   43   16 1    
    36   61   16 1    
    37   62   16 1    
    38   23   17 1    
    39   79   17 1    
    40   80   17 1    
    41   81   17 1    
    42   43   18 1    
    43   63   18 1    
    44   64   18 1    
    45   35   19 2    
    46   35   20 am   
    47   38   20 1    
    48   65   20 1    
    49   66   21 1    
    50   67   21 1    
    51   91   22 1    
    52   35   23 1    
    53   25   24 2    
    54   26   24 am   
    55   27   26 1    
    56   68   26 1    
    57   28   27 1    
    58   33   27 1    
    59   69   27 1    
    60   29   28 ar   
    61   30   28 ar   
    62   36   29 ar   
    63   37   29 1    
    64   31   30 ar   
    65   70   30 1    
    66   32   31 ar   
    67   71   31 1    
    68   36   32 ar   
    69   72   32 1    
    70   34   33 1    
    71   37   33 1    
    72   73   33 1    
    73   92   34 1    
    74   74   36 1    
    75   75   37 1    
    76   76   37 1    
    77   39   38 1    
    78   42   38 1    
    79   77   38 1    
    80   40   39 1    
    81   41   39 1    
    82   47   39 1    
    83   82   40 1    
    84   83   40 1    
    85   84   40 1    
    86   85   41 1    
    87   86   41 1    
    88   87   41 1    
    89   44   42 2    
    90   45   42 am   
    91   45   43 1    
    92   78   45 1    
    93   88   47 1    
    94   89   47 1    
    95   90   47 1    
@<TRIPOS>SUBSTRUCTURE
     1 HI11100     1 GROUP   
@<TRIPOS>SET

