#    Name: 2qp4_AE2_1_INTS_M
#    Modification time : Mon Mar 24 22:34:10 2014

@<TRIPOS>MOLECULE
2qp4_AE2_1_INTS_M
   67     0     3     0     0
SMALL
NO_CHARGES


@<TRIPOS>ATOM
      1 CA        -69.6845  -46.2115  -26.0280 C.3       1 GLC5        0.0000 
      2 CA        -68.3010  -44.9120  -26.3740 C.3       3 GLL5        0.0000 
      3 CA        -71.0680  -47.5110  -25.6820 C.3       2 GLP5        0.0000 
      4 CA        -67.6675  -46.9825  -26.0445 C.3       1 GLC5        0.0000 
      5 CA        -67.0340  -49.0530  -25.7150 C.3       2 GLP5        0.0000 
      6 CA        -68.5075  -42.3865  -27.6195 C.3       1 GLC5        0.0000 
      7 CA        -68.5680  -44.3320  -27.8660 C.3       3 GLL5        0.0000 
      8 CA        -68.4470  -40.4410  -27.3730 C.3       2 GLP5        0.0000 
      9 CA        -66.7505  -44.2010  -30.6485 C.3       1 GLC5        0.0000 
     10 CA        -67.2830  -44.8440  -28.7530 C.3       3 GLL5        0.0000 
     11 CA        -66.2180  -43.5580  -32.5440 C.3       2 GLP5        0.0000 
     12 CA        -66.8015  -41.8160  -28.1815 C.3       1 GLC5        0.0000 
     13 CA        -66.2680  -43.6320  -28.3150 C.3       3 GLL5        0.0000 
     14 CA        -67.3350  -40.0000  -28.0480 C.3       2 GLP5        0.0000 
     15 CA        -64.7385  -45.4460  -29.6355 C.3       1 GLC5        0.0000 
     16 CA        -64.7880  -43.6690  -29.0220 C.3       3 GLL5        0.0000 
     17 CA        -64.6890  -47.2230  -30.2490 C.3       2 GLP5        0.0000 
     18 CA        -63.2325  -40.4685  -29.4245 C.3       1 GLC5        0.0000 
     19 CA        -63.9100  -42.4060  -28.5840 C.3       3 GLL5        0.0000 
     20 CA        -62.5550  -38.5310  -30.2650 C.3       2 GLP5        0.0000 
     21 CA        -64.8135  -42.3670  -30.3700 C.3       1 GLC5        0.0000 
     22 CA        -65.7170  -42.3280  -32.1560 C.3       2 GLP5        0.0000 
     23 CA        -62.2450  -42.6455  -29.8825 C.3       1 GLC5        0.0000 
     24 CA        -60.5800  -42.8850  -31.1810 C.3       2 GLP5        0.0000 
     25 CA        -65.6840  -40.8620  -26.8130 C.3       1 GLC5        0.0000 
     26 CA        -65.0340  -42.4670  -26.2190 C.3       3 GLL5        0.0000 
     27 CA        -66.3340  -39.2570  -27.4070 C.3       2 GLP5        0.0000 
     28 CA        -63.7945  -40.2090  -22.5115 C.3       1 GLC5        0.0000 
     29 CA        -63.7850  -41.2890  -24.1720 C.3       3 GLL5        0.0000 
     30 CA        -63.8040  -39.1290  -20.8510 C.3       2 GLP5        0.0000 
     31 CA        -64.5540  -40.2470  -26.9700 C.3       1 GLC5        0.0000 
     32 CA        -62.7740  -41.2370  -26.5330 C.3       3 GLL5        0.0000 
     33 CA        -61.9665  -39.8105  -28.7350 C.3       1 GLC5        0.0000 
     34 CA        -61.3780  -41.0900  -27.2050 C.3       3 GLL5        0.0000 
     35 CA        -60.0160  -41.4780  -28.5905 C.3       1 GLC5        0.0000 
     36 CA        -58.6540  -41.8660  -29.9760 C.3       2 GLP5        0.0000 
     37 CA        -61.4860  -38.5920  -28.0675 C.3       1 GLC5        0.0000 
     38 CA        -60.9220  -39.8250  -26.4460 C.3       3 GLL5        0.0000 
     39 CA        -62.0500  -37.3590  -29.6890 C.3       2 GLP5        0.0000 
     40 CA        -62.2755  -43.1720  -22.7890 C.3       1 GLC5        0.0000 
     41 CA        -61.5140  -42.3790  -24.4280 C.3       3 GLL5        0.0000 
     42 CA        -63.0370  -43.9650  -21.1500 C.3       2 GLP5        0.0000 
     43 CA        -60.9635  -44.4725  -24.7805 C.3       1 GLC5        0.0000 
     44 CA        -60.4130  -46.5660  -25.1330 C.3       2 GLP5        0.0000 
     45 CA        -59.8475  -42.9220  -24.7700 C.3       1 GLC5        0.0000 
     46 CA        -58.1810  -43.4650  -25.1120 C.3       2 GLP5        0.0000 
     47 CA        -65.2130  -46.6610  -27.9015 C.3       1 GLC5        0.0000 
     48 CA        -65.2430  -45.1410  -26.4290 C.3       3 GLL5        0.0000 
     49 CA        -65.1830  -48.1810  -29.3740 C.3       2 GLP5        0.0000 
     50 CA        -65.5170  -46.8050  -26.0535 C.3       1 GLC5        0.0000 
     51 CA        -65.7910  -48.4690  -25.6780 C.3       2 GLP5        0.0000 
     52 CA        -67.5705  -42.0637  -26.8070 C.3       1 GLC5        0.0000 
     53 CA        -66.0080  -43.6950  -26.6250 C.3       3 GLL5        0.0000 
     54 CA        -68.2672  -46.0720  -29.6562 C.3       1 GLC5        0.0000 
     55 CA        -68.6090  -47.5560  -31.0030 C.3       2 GLP5        0.0000 
     56 CA        -69.3146  -43.7497  -25.5569 C.3       1 GLC5        0.0000 
     57 CA        -70.4250  -43.1860  -24.1230 C.3       2 GLP5        0.0000 
     58 CA        -65.7322  -45.7305  -29.3915 C.3       1 GLC5        0.0000 
     59 CA        -65.6225  -42.9892  -30.4123 C.3       1 GLC5        0.0000 
     60 CA        -65.0517  -40.8455  -27.6013 C.3       1 GLC5        0.0000 
     61 CA        -64.3205  -42.7345  -22.6988 C.3       1 GLC5        0.0000 
     62 CA        -64.7590  -42.4950  -24.6290 C.3       3 GLL5        0.0000 
     63 CA        -64.3690  -43.5770  -20.9970 C.3       2 GLP5        0.0000 
     64 CA        -65.3535  -40.4175  -25.2308 C.3       1 GLC5        0.0000 
     65 CA        -66.4350  -38.9430  -26.0610 C.3       2 GLP5        0.0000 
     66 CA        -59.4365  -41.3183  -26.0777 C.3       1 GLC5        0.0000 
     67 CA        -57.7230  -42.1790  -25.3300 C.3       2 GLP5        0.0000 
@<TRIPOS>BOND
@<TRIPOS>SUBSTRUCTURE
     1 GLC5        1 GROUP        1 X    GLC  0     ROOT GLC X 6
     2 GLP5        3 GROUP        1 Y    GLP  0     ROOT GLP Y 13
     3 GLL5        2 GROUP        1 Z    GLL  0     ROOT GLL Z 20
@<TRIPOS>SET

