#    Name: 2qp4_AE2_1_ligand
#    Modification time : Mon Mar 24 22:34:10 2014

@<TRIPOS>MOLECULE
2qp4_AE2_1_ligand
   51    54     1     0     0
SMALL
NO_CHARGES


@<TRIPOS>ATOM
      1 C1        -67.3800  -43.6780  -25.8570 C.3       1 AE2286      0.0000 
      2 C2        -68.3010  -44.9120  -26.3740 C.3       1 AE2286      0.0000 
      3 C3        -68.5680  -44.3320  -27.8660 C.3       1 AE2286      0.0000 
      4 O3        -69.8240  -44.4420  -28.6510 O.3       1 AE2286      0.0000 
      5 C4        -67.2830  -44.8440  -28.7530 C.3       1 AE2286      0.0000 
      6 C5        -66.2680  -43.6320  -28.3150 C.3       1 AE2286      0.0000 
      7 C6        -64.7880  -43.6690  -29.0220 C.3       1 AE2286      0.0000 
      8 C7        -63.9100  -42.4060  -28.5840 C.3       1 AE2286      0.0000 
      9 C8        -63.6290  -42.4620  -27.0070 C.3       1 AE2286      0.0000 
     10 C9        -65.0340  -42.4670  -26.2190 C.3       1 AE2286      0.0000 
     11 C10       -66.0080  -43.6950  -26.6250 C.3       1 AE2286      0.0000 
     12 C11       -64.7590  -42.4950  -24.6290 C.3       1 AE2286      0.0000 
     13 C12       -63.7850  -41.2890  -24.1720 C.3       1 AE2286      0.0000 
     14 C13       -62.4530  -41.1890  -25.0400 C.3       1 AE2286      0.0000 
     15 C14       -62.7740  -41.2370  -26.5330 C.3       1 AE2286      0.0000 
     16 C15       -61.3780  -41.0900  -27.2050 C.3       1 AE2286      0.0000 
     17 C16       -60.9220  -39.8250  -26.4460 C.3       1 AE2286      0.0000 
     18 C17       -61.6230  -39.9130  -25.0630 C.2       1 AE2286      0.0000 
     19 O17       -61.4850  -39.0860  -24.2010 O.2       1 AE2286      0.0000 
     20 C18       -61.5140  -42.3790  -24.4280 C.3       1 AE2286      0.0000 
     21 C19       -65.2430  -45.1410  -26.4290 C.3       1 AE2286      0.0000 
     22 H         -67.2116  -43.8129  -24.8118 H         1 AE2286      0.0000 
     23 H         -67.9020  -42.7713  -26.0681 H         1 AE2286      0.0000 
     24 H         -69.1735  -44.9055  -25.8597 H         1 AE2286      0.0000 
     25 H         -67.7247  -45.7419  -26.4441 H         1 AE2286      0.0000 
     26 H         -68.2873  -43.2082  -27.7675 H         1 AE2286      0.0000 
     27 H         -67.5067  -44.7388  -29.7301 H         1 AE2286      0.0000 
     28 H         -66.9440  -45.7064  -28.3565 H         1 AE2286      0.0000 
     29 H         -66.7176  -42.6974  -28.4951 H         1 AE2286      0.0000 
     30 H         -64.9336  -43.6483  -30.0819 H         1 AE2286      0.0000 
     31 H         -64.2991  -44.5667  -28.7056 H         1 AE2286      0.0000 
     32 H         -64.4560  -41.5142  -28.8028 H         1 AE2286      0.0000 
     33 H         -62.9750  -42.4408  -29.0996 H         1 AE2286      0.0000 
     34 H         -63.1250  -43.3648  -26.7813 H         1 AE2286      0.0000 
     35 H         -65.5464  -41.5473  -26.4340 H         1 AE2286      0.0000 
     36 H         -64.2862  -43.4261  -24.3807 H         1 AE2286      0.0000 
     37 H         -65.6968  -42.3862  -24.1185 H         1 AE2286      0.0000 
     38 H         -63.5163  -41.4510  -23.1350 H         1 AE2286      0.0000 
     39 H         -64.3355  -40.3607  -24.2665 H         1 AE2286      0.0000 
     40 H         -63.3198  -40.3076  -26.7683 H         1 AE2286      0.0000 
     41 H         -61.4986  -40.8763  -28.2075 H         1 AE2286      0.0000 
     42 H         -60.7834  -41.8922  -26.9440 H         1 AE2286      0.0000 
     43 H         -61.2602  -38.9599  -26.9569 H         1 AE2286      0.0000 
     44 H         -59.8710  -39.8492  -26.3094 H         1 AE2286      0.0000 
     45 H         -60.6304  -42.4312  -24.8933 H         1 AE2286      0.0000 
     46 H         -61.3256  -42.2405  -23.4557 H         1 AE2286      0.0000 
     47 H         -61.9461  -43.2764  -24.5179 H         1 AE2286      0.0000 
     48 H         -64.3698  -45.1682  -26.9157 H         1 AE2286      0.0000 
     49 H         -65.0482  -45.3307  -25.4667 H         1 AE2286      0.0000 
     50 H         -65.7936  -45.9020  -26.7721 H         1 AE2286      0.0000 
     51 H         -69.2466  -43.8646  -28.0736 H         1 AE2286      0.0000 
@<TRIPOS>BOND
     1    2    1 1    
     2   11    1 1    
     3   22    1 1    
     4   23    1 1    
     5    3    2 1    
     6   24    2 1    
     7   25    2 1    
     8    4    3 1    
     9    5    3 1    
    10   26    3 1    
    11   51    4 1    
    12    6    5 1    
    13   27    5 1    
    14   28    5 1    
    15    7    6 1    
    16   11    6 1    
    17   29    6 1    
    18    8    7 1    
    19   30    7 1    
    20   31    7 1    
    21    9    8 1    
    22   32    8 1    
    23   33    8 1    
    24   10    9 1    
    25   15    9 1    
    26   34    9 1    
    27   11   10 1    
    28   12   10 1    
    29   35   10 1    
    30   21   11 1    
    31   13   12 1    
    32   36   12 1    
    33   37   12 1    
    34   14   13 1    
    35   38   13 1    
    36   39   13 1    
    37   15   14 1    
    38   18   14 1    
    39   20   14 1    
    40   16   15 1    
    41   40   15 1    
    42   17   16 1    
    43   41   16 1    
    44   42   16 1    
    45   18   17 1    
    46   43   17 1    
    47   44   17 1    
    48   19   18 2    
    49   45   20 1    
    50   46   20 1    
    51   47   20 1    
    52   48   21 1    
    53   49   21 1    
    54   50   21 1    
@<TRIPOS>SUBSTRUCTURE
     1 AE2286      1 GROUP   
@<TRIPOS>SET

