#    Name: 2hb3_GRL_1_INTS_M
#    Modification time : Tue Mar 25 15:49:48 2014

@<TRIPOS>MOLECULE
2hb3_GRL_1_INTS_M
   98     0     9     0     0
SMALL
NO_CHARGES


@<TRIPOS>ATOM
      1 CA         13.4760   24.6850   20.0255 C.3       3 GLC5        0.0000 
      2 CA         15.2860   24.3430   19.2370 C.3       9 GLL5        0.0000 
      3 CA         11.6660   25.0270   20.8140 C.3       6 GLP5        0.0000 
      4 CA         14.4080   23.2925   20.9560 C.3       3 GLC5        0.0000 
      5 CA         13.5300   22.2420   22.6750 C.3       6 GLP5        0.0000 
      6 CA         13.8805   25.2870   16.5925 C.3       3 GLC5        0.0000 
      7 CA         15.3400   25.1730   17.9460 C.3       9 GLL5        0.0000 
      8 CA         12.4210   25.4010   15.2390 C.3       6 GLP5        0.0000 
      9 N          19.1075   23.2035   19.4480 N.am      2 SEC2        0.0000 
     10 N          18.2810   23.9840   18.6050 N.am      8 SEL2        0.0000 
     11 N          19.9340   22.4230   20.2910 N.am      5 SEP2        0.0000 
     12 CA         18.0730   22.2895   18.8045 C.3       3 GLC5        0.0000 
     13 CA         18.0680   23.7320   17.2270 C.3       9 GLL5        0.0000 
     14 CA         18.0780   20.8470   20.3820 C.3       6 GLP5        0.0000 
     15 CA         19.8375   23.9410   18.5065 C.3       3 GLC5        0.0000 
     16 CA         21.6070   24.1500   19.7860 C.3       6 GLP5        0.0000 
     17 CA         17.8450   25.5380   21.6455 C.3       3 GLC5        0.0000 
     18 CA         16.5030   24.8130   20.0740 C.3       9 GLL5        0.0000 
     19 CA         19.1870   26.2630   23.2170 C.3       6 GLP5        0.0000 
     20 CA         15.4870   25.3870   21.9115 C.3       3 GLC5        0.0000 
     21 CA         14.4710   25.9610   23.7490 C.3       6 GLP5        0.0000 
     22 CA         15.2885   26.5920   20.5050 C.3       3 GLC5        0.0000 
     23 CA         14.0740   28.3710   20.9360 C.3       6 GLP5        0.0000 
     24 CA         19.5975   24.6740   19.4115 C.3       3 GLC5        0.0000 
     25 CA         17.5880   25.1980   19.0370 C.3       9 GLL5        0.0000 
     26 CA         17.7410   19.6410   14.7190 C.3       3 GLC5        0.0000 
     27 CA         16.5190   21.2560   14.8940 C.3       9 GLL5        0.0000 
     28 CA         18.9630   18.0260   14.5440 C.3       6 GLP5        0.0000 
     29 O          16.4475   20.4925   17.8275 O.2       1 ALC1        0.0000 
     30 O          14.9600   21.0490   17.8850 O.2       7 ALL1        0.0000 
     31 O          17.9350   19.9360   17.7700 O.2       4 ALP1        0.0000 
     32 CA         12.4340   16.0215   16.9100 C.3       3 GLC5        0.0000 
     33 CA         12.5810   18.0670   17.5630 C.3       9 GLL5        0.0000 
     34 CA         12.2870   13.9760   16.2570 C.3       6 GLP5        0.0000 
     35 CA         10.2935   17.2595   22.2635 C.3       3 GLC5        0.0000 
     36 CA          9.6130   18.5880   21.0130 C.3       9 GLL5        0.0000 
     37 CA         10.9740   15.9310   23.5140 C.3       6 GLP5        0.0000 
     38 CA          8.1625   20.1740   21.1135 C.3       3 GLC5        0.0000 
     39 CA          6.7120   21.7600   21.2140 C.3       6 GLP5        0.0000 
     40 CA          9.0335   18.7105   22.8755 C.3       3 GLC5        0.0000 
     41 CA          8.4540   18.8330   24.7380 C.3       6 GLP5        0.0000 
     42 CA          8.6395   21.2145   20.5515 C.3       3 GLC5        0.0000 
     43 CA         10.5670   20.6690   19.8890 C.3       9 GLL5        0.0000 
     44 CA         12.0485   21.4555   21.2820 C.3       3 GLC5        0.0000 
     45 N          15.3000   16.8270   18.4695 N.am      2 SEC2        0.0000 
     46 N          14.8140   18.2040   18.4020 N.am      8 SEL2        0.0000 
     47 N          15.7860   15.4500   18.5370 N.am      5 SEP2        0.0000 
     48 O          15.2260   17.7555   19.5635 O.2       1 ALC1        0.0000 
     49 O          14.8140   18.2040   18.4020 O.2       7 ALL1        0.0000 
     50 O          15.6380   17.3070   20.7250 O.2       4 ALP1        0.0000 
     51 O          14.4940   18.4870   19.9640 O.2       1 ALC1        0.0000 
     52 O          14.1740   18.7700   21.5260 O.2       4 ALP1        0.0000 
     53 CA          6.0835   17.0680   13.7845 C.3       3 GLC5        0.0000 
     54 CA          7.4470   16.8220   15.2520 C.3       9 GLL5        0.0000 
     55 CA          4.7200   17.3140   12.3170 C.3       6 GLP5        0.0000 
     56 CA         11.9940   17.2180   13.8170 C.3       3 GLC5        0.0000 
     57 CA         10.2610   16.7160   14.9550 C.3       9 GLL5        0.0000 
     58 CA         13.7270   17.7200   12.6790 C.3       6 GLP5        0.0000 
     59 CA          7.4940   12.6630   13.6450 C.3       3 GLC5        0.0000 
     60 CA          7.1900   14.5760   14.1760 C.3       9 GLL5        0.0000 
     61 CA          7.7980   10.7500   13.1140 C.3       6 GLP5        0.0000 
     62 CA          8.6180   14.8285   12.5730 C.3       3 GLC5        0.0000 
     63 CA         10.0460   15.0810   10.9700 C.3       6 GLP5        0.0000 
     64 CA          5.7240   15.2390   13.0770 C.3       3 GLC5        0.0000 
     65 CA          4.2580   15.9020   11.9780 C.3       6 GLP5        0.0000 
     66 CA          6.7475   13.7950   12.2835 C.3       3 GLC5        0.0000 
     67 CA          6.3050   13.0140   10.3910 C.3       6 GLP5        0.0000 
     68 N           8.0985   12.3665   15.1945 N.am      2 SEC2        0.0000 
     69 N           7.1330   13.5880   15.1820 N.am      8 SEL2        0.0000 
     70 N           9.0640   11.1450   15.2070 N.am      5 SEP2        0.0000 
     71 CA         16.4757   22.7425   20.5693 C.3       3 GLC5        0.0000 
     72 CA         17.0570   20.9070   21.4830 C.3       6 GLP5        0.0000 
     73 CA         15.7965   27.4100   18.4788 C.3       3 GLC5        0.0000 
     74 CA         15.5280   29.3890   19.0910 C.3       6 GLP5        0.0000 
     75 CA         15.7555   20.5517   13.0400 C.3       3 GLC5        0.0000 
     76 CA         15.1820   20.8310   15.0260 C.3       9 GLL5        0.0000 
     77 CA         16.8250   19.9160   11.4030 C.3       6 GLP5        0.0000 
     78 CA         14.1589   19.3049   13.7862 C.3       3 GLC5        0.0000 
     79 CA         13.3897   23.7520   14.5795 C.3       3 GLC5        0.0000 
     80 CA         14.1900   21.5440   14.3280 C.3       9 GLL5        0.0000 
     81 CA         12.4737   22.6460   13.3605 C.3       3 GLC5        0.0000 
     82 CA         14.5270   22.6620   13.5120 C.3       9 GLL5        0.0000 
     83 CA         10.5890   23.1890   12.8010 C.3       6 GLP5        0.0000 
     84 CA         14.5435   23.5040   11.7497 C.3       3 GLC5        0.0000 
     85 CA         13.8830   24.1340   10.0520 C.3       6 GLP5        0.0000 
     86 CA         16.0145   21.3950   12.4253 C.3       3 GLC5        0.0000 
     87 CA         16.7567   20.8635   12.9462 C.3       3 GLC5        0.0000 
     88 CA         16.8580   22.3660   14.0850 C.3       9 GLL5        0.0000 
     89 CA         11.0685   19.4640   22.2360 C.3       3 GLC5        0.0000 
     90 CA         10.6550   19.1300   20.0030 C.3       9 GLL5        0.0000 
     91 CA         12.0030   20.0690   23.9640 C.3       6 GLP5        0.0000 
     92 CA          7.8418   16.3517   12.8235 C.3       3 GLC5        0.0000 
     93 CA          9.4550   15.6570   14.5070 C.3       9 GLL5        0.0000 
     94 CA          6.9210   17.0210   11.0670 C.3       6 GLP5        0.0000 
     95 CA         11.0725   15.0813   15.4940 C.3       3 GLC5        0.0000 
     96 CA          9.7789   15.6401   12.8688 C.3       3 GLC5        0.0000 
     97 CA          9.6163   18.3908   13.6740 C.3       3 GLC5        0.0000 
     98 CA          9.6400   19.5010   12.0590 C.3       6 GLP5        0.0000 
@<TRIPOS>BOND
@<TRIPOS>SUBSTRUCTURE
     1 ALC1       29 GROUP        1 X    ALC  0     ROOT ALC X 1
     2 SEC2        9 GROUP        1 X    SEC  0     **** SEC X 2
     3 GLC5        1 GROUP        1 X    GLC  0     **** GLC X 6
     4 ALP1       31 GROUP        1 Y    ALP  0     ROOT ALP Y 8
     5 SEP2       11 GROUP        1 Y    SEP  0     **** SEP Y 9
     6 GLP5        3 GROUP        1 Y    GLP  0     **** GLP Y 13
     7 ALL1       30 GROUP        1 Z    ALL  0     ROOT ALL Z 15
     8 SEL2       10 GROUP        1 Z    SEL  0     **** SEL Z 16
     9 GLL5        2 GROUP        1 Z    GLL  0     **** GLL Z 20
@<TRIPOS>SET

