#    Name: 2hb3_GRL_1_ligand
#    Modification time : Tue Mar 25 15:49:48 2014

@<TRIPOS>MOLECULE
2hb3_GRL_1_ligand
   79    82     1     0     0
SMALL
NO_CHARGES


@<TRIPOS>ATOM
      1 C11        15.2860   24.3430   19.2370 C.3       1 GRL201      0.0000 
      2 C12        15.3400   25.1730   17.9460 C.3       1 GRL201      0.0000 
      3 O1         18.2810   23.9840   18.6050 O.3       1 GRL201      0.0000 
      4 C14        18.0680   23.7320   17.2270 C.3       1 GRL201      0.0000 
      5 C15        16.7900   25.6890   17.7870 C.3       1 GRL201      0.0000 
      6 C16        16.5030   24.8130   20.0740 C.3       1 GRL201      0.0000 
      7 C2         17.6260   25.0770   16.6300 C.3       1 GRL201      0.0000 
      8 C1         17.5880   25.1980   19.0370 C.3       1 GRL201      0.0000 
      9 O13        15.5440   22.9430   18.9410 O.3       1 GRL201      0.0000 
     10 C21        14.5380   22.2580   18.3170 C.2       1 GRL201      0.0000 
     11 C22        14.0220   20.1580   17.1490 C.3       1 GRL201      0.0000 
     12 C23        14.8010   19.6400   15.8920 C.3       1 GRL201      0.0000 
     13 C24        15.1820   20.8310   15.0260 C.ar      1 GRL201      0.0000 
     14 C25        14.1900   21.5440   14.3280 C.ar      1 GRL201      0.0000 
     15 C26        14.5270   22.6620   13.5120 C.ar      1 GRL201      0.0000 
     16 C27        15.8810   23.0860   13.3830 C.ar      1 GRL201      0.0000 
     17 C28        16.8580   22.3660   14.0850 C.ar      1 GRL201      0.0000 
     18 C29        16.5190   21.2560   14.8940 C.ar      1 GRL201      0.0000 
     19 O21        13.4360   22.7150   18.1930 O.2       1 GRL201      0.0000 
     20 N21        14.9600   21.0490   17.8850 N.am      1 GRL201      0.0000 
     21 C31        13.6620   19.0240   18.1360 C.3       1 GRL201      0.0000 
     22 C32        12.5810   18.0670   17.5630 C.3       1 GRL201      0.0000 
     23 C33        10.3020   18.4610   18.6420 C.3       1 GRL201      0.0000 
     24 C34        10.6550   19.1300   20.0030 C.3       1 GRL201      0.0000 
     25 C35         9.6130   18.5880   21.0130 C.3       1 GRL201      0.0000 
     26 C36        10.5670   20.6690   19.8890 C.3       1 GRL201      0.0000 
     27 O31        14.8140   18.2040   18.4020 O.3       1 GRL201      0.0000 
     28 O32        11.7380   19.3090   15.1510 O.2       1 GRL201      0.0000 
     29 O33         9.6860   20.2520   16.3360 O.2       1 GRL201      0.0000 
     30 N31        11.2830   18.7200   17.5740 N.pl3     1 GRL201      0.0000 
     31 S31        10.6330   19.1580   16.1040 S.o2      1 GRL201      0.0000 
     32 C41         9.6140   17.8010   15.5420 C.ar      1 GRL201      0.0000 
     33 C42         8.2340   17.8890   15.7040 C.ar      1 GRL201      0.0000 
     34 C43         7.4470   16.8220   15.2520 C.ar      1 GRL201      0.0000 
     35 C44         8.0700   15.7080   14.6530 C.ar      1 GRL201      0.0000 
     36 C45         9.4550   15.6570   14.5070 C.ar      1 GRL201      0.0000 
     37 C46        10.2610   16.7160   14.9550 C.ar      1 GRL201      0.0000 
     38 C3          7.1900   14.5760   14.1760 C.3       1 GRL201      0.0000 
     39 O2          7.1330   13.5880   15.1820 O.3       1 GRL201      0.0000 
     40 H          14.4229   24.5154   19.7582 H         1 GRL201      0.0000 
     41 H          14.6750   26.0094   18.0267 H         1 GRL201      0.0000 
     42 H          15.0925   24.5529   17.1078 H         1 GRL201      0.0000 
     43 H          17.2768   23.0189   17.0526 H         1 GRL201      0.0000 
     44 H          18.9684   23.4257   16.7167 H         1 GRL201      0.0000 
     45 H          16.8449   26.7283   17.7685 H         1 GRL201      0.0000 
     46 H          16.8533   24.0093   20.6719 H         1 GRL201      0.0000 
     47 H          16.2340   25.6692   20.6402 H         1 GRL201      0.0000 
     48 H          17.0047   24.9153   15.7989 H         1 GRL201      0.0000 
     49 H          18.4642   25.6829   16.4475 H         1 GRL201      0.0000 
     50 H          18.1885   25.9361   19.3809 H         1 GRL201      0.0000 
     51 H          13.1696   20.6782   16.8564 H         1 GRL201      0.0000 
     52 H          14.1573   18.9723   15.3447 H         1 GRL201      0.0000 
     53 H          15.6855   19.1260   16.2284 H         1 GRL201      0.0000 
     54 H          13.2058   21.2601   14.4030 H         1 GRL201      0.0000 
     55 H          13.7901   23.1651   13.0140 H         1 GRL201      0.0000 
     56 H          16.1165   23.8740   12.8070 H         1 GRL201      0.0000 
     57 H          17.8491   22.6480   14.0135 H         1 GRL201      0.0000 
     58 H          17.2641   20.7515   15.3941 H         1 GRL201      0.0000 
     59 H          15.9033   20.6933   18.0318 H         1 GRL201      0.0000 
     60 H          13.2776   19.4498   19.0396 H         1 GRL201      0.0000 
     61 H          12.5813   17.1651   18.1778 H         1 GRL201      0.0000 
     62 H          12.8851   17.7964   16.5502 H         1 GRL201      0.0000 
     63 H           9.2995   18.8230   18.3470 H         1 GRL201      0.0000 
     64 H          10.2020   17.3748   18.8247 H         1 GRL201      0.0000 
     65 H          11.6171   18.8266   20.2955 H         1 GRL201      0.0000 
     66 H           7.8073   18.7000   16.1360 H         1 GRL201      0.0000 
     67 H           6.4333   16.8467   15.3533 H         1 GRL201      0.0000 
     68 H           9.8961   14.8369   14.0670 H         1 GRL201      0.0000 
     69 H          11.2607   16.6873   14.8541 H         1 GRL201      0.0000 
     70 H           7.6140   14.1881   13.2424 H         1 GRL201      0.0000 
     71 H           6.2003   14.9893   13.9492 H         1 GRL201      0.0000 
     72 H           9.6558   17.5921   21.0923 H         1 GRL201      0.0000 
     73 H           9.7552   18.9614   21.9297 H         1 GRL201      0.0000 
     74 H           8.6786   18.8207   20.7434 H         1 GRL201      0.0000 
     75 H          10.7931   21.1189   20.7530 H         1 GRL201      0.0000 
     76 H          11.1959   21.0268   19.1988 H         1 GRL201      0.0000 
     77 H           9.6485   20.9705   19.6331 H         1 GRL201      0.0000 
     78 H          14.8834   18.1709   19.3990 H         1 GRL201      0.0000 
     79 H           6.3193   13.0476   14.9680 H         1 GRL201      0.0000 
@<TRIPOS>BOND
     1    2    1 1    
     2    6    1 1    
     3    9    1 1    
     4   40    1 1    
     5    5    2 1    
     6   41    2 1    
     7   42    2 1    
     8    4    3 1    
     9    8    3 1    
    10    7    4 1    
    11   43    4 1    
    12   44    4 1    
    13    7    5 1    
    14    8    5 1    
    15   45    5 1    
    16    8    6 1    
    17   46    6 1    
    18   47    6 1    
    19   48    7 1    
    20   49    7 1    
    21   50    8 1    
    22   10    9 1    
    23   19   10 2    
    24   20   10 am   
    25   12   11 1    
    26   20   11 1    
    27   21   11 1    
    28   51   11 1    
    29   13   12 1    
    30   52   12 1    
    31   53   12 1    
    32   14   13 ar   
    33   18   13 ar   
    34   15   14 ar   
    35   54   14 1    
    36   16   15 ar   
    37   55   15 1    
    38   17   16 ar   
    39   56   16 1    
    40   18   17 ar   
    41   57   17 1    
    42   58   18 1    
    43   59   20 1    
    44   22   21 1    
    45   27   21 1    
    46   60   21 1    
    47   30   22 1    
    48   61   22 1    
    49   62   22 1    
    50   24   23 1    
    51   30   23 1    
    52   63   23 1    
    53   64   23 1    
    54   25   24 1    
    55   26   24 1    
    56   65   24 1    
    57   72   25 1    
    58   73   25 1    
    59   74   25 1    
    60   75   26 1    
    61   76   26 1    
    62   77   26 1    
    63   78   27 1    
    64   31   28 2    
    65   31   29 2    
    66   31   30 1    
    67   32   31 1    
    68   33   32 ar   
    69   37   32 ar   
    70   34   33 ar   
    71   66   33 1    
    72   35   34 ar   
    73   67   34 1    
    74   36   35 ar   
    75   38   35 1    
    76   37   36 ar   
    77   68   36 1    
    78   69   37 1    
    79   39   38 1    
    80   70   38 1    
    81   71   38 1    
    82   79   39 1    
@<TRIPOS>SUBSTRUCTURE
     1 GRL201      1 GROUP   
@<TRIPOS>SET

