#    Name: 3d0b_SNX_1_INTS_M
#    Modification time : Mon Mar 24 22:31:56 2014

@<TRIPOS>MOLECULE
3d0b_SNX_1_INTS_M
   69     0     6     0     0
SMALL
NO_CHARGES


@<TRIPOS>ATOM
      1 O          -3.8035  -12.0265  -24.0405 O.2       1 ALC1        0.0000 
      2 O          -2.4140  -11.8260  -23.8380 O.2       5 ALL1        0.0000 
      3 O          -5.1930  -12.2270  -24.2430 O.2       3 ALP1        0.0000 
      4 CA         -0.3510  -14.4300  -23.0620 C.3       2 GLC5        0.0000 
      5 CA          0.3810  -12.5950  -23.6970 C.3       6 GLL5        0.0000 
      6 CA         -1.0830  -16.2650  -22.4270 C.3       4 GLP5        0.0000 
      7 CA          3.6020   -8.9725  -26.8565 C.3       2 GLC5        0.0000 
      8 CA          1.4850   -8.7870  -26.6830 C.3       6 GLL5        0.0000 
      9 CA          5.7190   -9.1580  -27.0300 C.3       4 GLP5        0.0000 
     10 CA         -0.8800   -7.4870  -28.7880 C.3       2 GLC5        0.0000 
     11 CA          0.8090   -7.7510  -27.5810 C.3       6 GLL5        0.0000 
     12 CA         -2.5690   -7.2230  -29.9950 C.3       4 GLP5        0.0000 
     13 CA         -1.9765   -6.1030  -26.5425 C.3       2 GLC5        0.0000 
     14 CA         -0.1290   -5.6330  -26.9620 C.3       6 GLL5        0.0000 
     15 CA         -3.8240   -6.5730  -26.1230 C.3       4 GLP5        0.0000 
     16 CA         -0.5355   -4.4910  -28.4290 C.3       2 GLC5        0.0000 
     17 CA         -0.9420   -3.3490  -29.8960 C.3       4 GLP5        0.0000 
     18 CA         -1.3490   -6.4280  -28.4785 C.3       2 GLC5        0.0000 
     19 CA          3.8700  -11.2405  -26.4070 C.3       2 GLC5        0.0000 
     20 CA          2.2790  -10.9690  -24.9680 C.3       6 GLL5        0.0000 
     21 CA          5.4610  -11.5120  -27.8460 C.3       4 GLP5        0.0000 
     22 CA          9.4320   -9.6960  -22.8600 C.3       2 GLC5        0.0000 
     23 CA          7.4130  -10.1970  -22.8090 C.3       6 GLL5        0.0000 
     24 CA         11.4510   -9.1950  -22.9110 C.3       4 GLP5        0.0000 
     25 CA          2.3570  -15.8910  -25.7585 C.3       2 GLC5        0.0000 
     26 CA          3.8300  -14.5500  -25.2880 C.3       6 GLL5        0.0000 
     27 CA          0.8840  -17.2320  -26.2290 C.3       4 GLP5        0.0000 
     28 CA          4.5795  -15.6595  -27.7825 C.3       2 GLC5        0.0000 
     29 CA          4.8560  -15.4580  -25.9860 C.3       6 GLL5        0.0000 
     30 CA          4.3030  -15.8610  -29.5790 C.3       4 GLP5        0.0000 
     31 CA          3.4705  -16.8585  -25.1320 C.3       2 GLC5        0.0000 
     32 CA          2.0850  -18.2590  -24.2780 C.3       4 GLP5        0.0000 
     33 CA          5.5065  -17.3055  -26.0355 C.3       2 GLC5        0.0000 
     34 CA          6.1570  -19.1530  -26.0850 C.3       4 GLP5        0.0000 
     35 CA          6.0250  -15.7840  -23.4660 C.3       2 GLC5        0.0000 
     36 CA          6.1980  -15.6650  -25.2850 C.3       6 GLL5        0.0000 
     37 CA          5.8520  -15.9030  -21.6470 C.3       4 GLP5        0.0000 
     38 CA          6.8185  -17.1400  -25.5485 C.3       2 GLC5        0.0000 
     39 CA          7.4390  -18.6150  -25.8120 C.3       4 GLP5        0.0000 
     40 CA          5.7165  -12.4050  -26.1680 C.3       2 GLC5        0.0000 
     41 CA          5.9720  -13.2980  -24.4900 C.3       6 GLL5        0.0000 
     42 CA         -0.1430  -10.9595  -22.5108 C.3       2 GLC5        0.0000 
     43 CA         -0.4450   -9.8520  -20.9290 C.3       4 GLP5        0.0000 
     44 CA         -1.0005  -13.6100  -25.0802 C.3       2 GLC5        0.0000 
     45 CA         -0.0630  -11.5390  -24.4880 C.3       6 GLL5        0.0000 
     46 CA         -2.1600  -15.1530  -26.0680 C.3       4 GLP5        0.0000 
     47 CA          0.8480  -12.9912  -25.6859 C.3       2 GLC5        0.0000 
     48 CA          0.7400  -13.5430  -27.5580 C.3       4 GLP5        0.0000 
     49 CA          3.4840  -12.4853  -22.0085 C.3       2 GLC5        0.0000 
     50 CA          1.7530  -12.8120  -23.5350 C.3       6 GLL5        0.0000 
     51 CA          4.7240  -12.5590  -20.1750 C.3       4 GLP5        0.0000 
     52 CA          1.3815   -9.9880  -28.2850 C.3       2 GLC5        0.0000 
     53 CA          1.6160  -11.7070  -29.4380 C.3       4 GLP5        0.0000 
     54 CA          2.1915  -12.0132  -26.3049 C.3       2 GLC5        0.0000 
     55 CA          2.2140  -12.6090  -27.9980 C.3       4 GLP5        0.0000 
     56 CA          4.8478  -11.6535  -21.7342 C.3       2 GLC5        0.0000 
     57 CA          4.9860  -11.3710  -23.6050 C.3       6 GLL5        0.0000 
     58 CA          5.6486   -9.6560  -24.9874 C.3       2 GLC5        0.0000 
     59 CA          5.7615  -11.2188  -21.4387 C.3       2 GLC5        0.0000 
     60 CA          6.1850   -9.5600  -22.5960 C.3       6 GLL5        0.0000 
     61 CA          7.3315  -11.1748  -25.4838 C.3       2 GLC5        0.0000 
     62 CA          6.3110  -12.0310  -23.8220 C.3       6 GLL5        0.0000 
     63 CA          7.7530  -10.6110  -27.3450 C.3       4 GLP5        0.0000 
     64 CA          5.8170  -12.1487  -21.8987 C.3       2 GLC5        0.0000 
     65 CA          7.5090  -11.4460  -23.4230 C.3       6 GLL5        0.0000 
     66 CA          4.4940  -15.7910  -23.7060 C.3       2 GLC5        0.0000 
     67 CA          4.6450  -16.5780  -21.7750 C.3       4 GLP5        0.0000 
     68 CA          3.3650  -13.6586  -26.7376 C.3       2 GLC5        0.0000 
     69 CA          4.9885  -13.1101  -26.6616 C.3       2 GLC5        0.0000 
@<TRIPOS>BOND
@<TRIPOS>SUBSTRUCTURE
     1 ALC1        1 GROUP        1 X    ALC  0     ROOT ALC X 1
     2 GLC5        4 GROUP        1 X    GLC  0     **** GLC X 6
     3 ALP1        3 GROUP        1 Y    ALP  0     ROOT ALP Y 8
     4 GLP5        6 GROUP        1 Y    GLP  0     **** GLP Y 13
     5 ALL1        2 GROUP        1 Z    ALL  0     ROOT ALL Z 15
     6 GLL5        5 GROUP        1 Z    GLL  0     **** GLL Z 20
@<TRIPOS>SET

