#    Name: 3d0b_SNX_1_ligand
#    Modification time : Mon Mar 24 22:31:57 2014

@<TRIPOS>MOLECULE
3d0b_SNX_1_ligand
   51    54     1     0     0
SMALL
NO_CHARGES


@<TRIPOS>ATOM
      1 O23        -1.8740  -10.7690  -25.7390 O.2       1 SNX233      0.0000 
      2 C21        -1.5310  -11.3250  -24.7030 C.2       1 SNX233      0.0000 
      3 N22        -2.4140  -11.8260  -23.8380 N.am      1 SNX233      0.0000 
      4 C18        -0.0630  -11.5390  -24.4880 C.ar      1 SNX233      0.0000 
      5 C17         0.3810  -12.5950  -23.6970 C.ar      1 SNX233      0.0000 
      6 C16         1.7530  -12.8120  -23.5350 C.ar      1 SNX233      0.0000 
      7 C19         0.9270  -10.6790  -25.1810 C.ar      1 SNX233      0.0000 
      8 N24         0.5270   -9.6410  -25.9810 N.pl3     1 SNX233      0.0000 
      9 C25         1.4850   -8.7870  -26.6830 C.3       1 SNX233      0.0000 
     10 C26         0.8090   -7.7510  -27.5810 C.3       1 SNX233      0.0000 
     11 O27        -0.1760   -7.0500  -26.8170 O.3       1 SNX233      0.0000 
     12 C28        -0.1290   -5.6330  -26.9620 C.3       1 SNX233      0.0000 
     13 C20         2.2790  -10.9690  -24.9680 C.ar      1 SNX233      0.0000 
     14 C15         2.7350  -12.0110  -24.1490 C.ar      1 SNX233      0.0000 
     15 N7          4.0560  -12.2380  -24.0700 N.pl3     1 SNX233      0.0000 
     16 C1          4.9860  -11.3710  -23.6050 C.ar      1 SNX233      0.0000 
     17 C6          4.9570  -10.1250  -22.9820 C.ar      1 SNX233      0.0000 
     18 C5          6.1850   -9.5600  -22.5960 C.ar      1 SNX233      0.0000 
     19 C4          7.4130  -10.1970  -22.8090 C.ar      1 SNX233      0.0000 
     20 C3          7.5090  -11.4460  -23.4230 C.ar      1 SNX233      0.0000 
     21 C8          4.5220  -13.3670  -24.6490 C.2       1 SNX233      0.0000 
     22 C13         3.8300  -14.5500  -25.2880 C.3       1 SNX233      0.0000 
     23 C12         4.8560  -15.4580  -25.9860 C.3       1 SNX233      0.0000 
     24 C11         6.1980  -15.6650  -25.2850 C.3       1 SNX233      0.0000 
     25 C10         6.8930  -14.3660  -24.9490 C.2       1 SNX233      0.0000 
     26 O14         8.0950  -14.2160  -25.0670 O.2       1 SNX233      0.0000 
     27 C9          5.9720  -13.2980  -24.4900 C.2       1 SNX233      0.0000 
     28 C2          6.3110  -12.0310  -23.8220 C.ar      1 SNX233      0.0000 
     29 H          -3.3778  -11.7228  -24.0836 H         1 SNX233      0.0000 
     30 H          -2.0328  -12.2598  -23.0216 H         1 SNX233      0.0000 
     31 H          -0.2930  -13.2129  -23.2337 H         1 SNX233      0.0000 
     32 H           2.0684  -13.6050  -22.9306 H         1 SNX233      0.0000 
     33 H          -0.4758   -9.4224  -26.1182 H         1 SNX233      0.0000 
     34 H           2.1594   -9.3952  -27.3121 H         1 SNX233      0.0000 
     35 H           2.1254   -8.2475  -25.9624 H         1 SNX233      0.0000 
     36 H           0.3659   -8.2798  -28.4276 H         1 SNX233      0.0000 
     37 H           1.5830   -7.0799  -27.9595 H         1 SNX233      0.0000 
     38 H           2.9971  -10.3697  -25.4510 H         1 SNX233      0.0000 
     39 H           4.0886   -9.6408  -22.8114 H         1 SNX233      0.0000 
     40 H           6.1781   -8.6253  -22.1308 H         1 SNX233      0.0000 
     41 H           8.2857   -9.7196  -22.4971 H         1 SNX233      0.0000 
     42 H           8.3924  -11.8956  -23.5679 H         1 SNX233      0.0000 
     43 H           3.1102  -14.2024  -26.0255 H         1 SNX233      0.0000 
     44 H           3.3098  -15.1282  -24.5278 H         1 SNX233      0.0000 
     45 H           5.0461  -15.0506  -27.0076 H         1 SNX233      0.0000 
     46 H           4.3837  -16.4552  -26.1542 H         1 SNX233      0.0000 
     47 H           6.8469  -16.2697  -25.9349 H         1 SNX233      0.0000 
     48 H           6.0303  -16.2395  -24.3626 H         1 SNX233      0.0000 
     49 H           0.7515   -5.2589  -26.6708 H         1 SNX233      0.0000 
     50 H          -0.2672   -5.3521  -27.9117 H         1 SNX233      0.0000 
     51 H          -0.8346   -5.1803  -26.4168 H         1 SNX233      0.0000 
@<TRIPOS>BOND
     1    2    1 2    
     2    3    2 am   
     3    4    2 1    
     4   29    3 1    
     5   30    3 1    
     6    5    4 ar   
     7    7    4 ar   
     8    6    5 ar   
     9   31    5 1    
    10   14    6 ar   
    11   32    6 1    
    12    8    7 1    
    13   13    7 ar   
    14    9    8 1    
    15   33    8 1    
    16   10    9 1    
    17   34    9 1    
    18   35    9 1    
    19   11   10 1    
    20   36   10 1    
    21   37   10 1    
    22   12   11 1    
    23   49   12 1    
    24   50   12 1    
    25   51   12 1    
    26   14   13 ar   
    27   38   13 1    
    28   15   14 1    
    29   16   15 1    
    30   21   15 1    
    31   17   16 ar   
    32   28   16 ar   
    33   18   17 ar   
    34   39   17 1    
    35   19   18 ar   
    36   40   18 1    
    37   20   19 ar   
    38   41   19 1    
    39   28   20 ar   
    40   42   20 1    
    41   22   21 1    
    42   27   21 2    
    43   23   22 1    
    44   43   22 1    
    45   44   22 1    
    46   24   23 1    
    47   45   23 1    
    48   46   23 1    
    49   25   24 1    
    50   47   24 1    
    51   48   24 1    
    52   26   25 2    
    53   27   25 1    
    54   28   27 1    
@<TRIPOS>SUBSTRUCTURE
     1 SNX233      1 GROUP   
@<TRIPOS>SET

