#    Name: 3h1v_TK1_1_INTS_M
#    Modification time : Tue Mar 25 13:28:34 2014

@<TRIPOS>MOLECULE
3h1v_TK1_1_INTS_M
   70     0     9     0     0
SMALL
NO_CHARGES


@<TRIPOS>ATOM
      1 CA         46.0010   21.6060   69.6085 C.3       3 GLC5        0.0000 
      2 CA         44.9650   21.1480   68.3670 C.3       9 GLL5        0.0000 
      3 CA         47.0370   22.0640   70.8500 C.3       6 GLP5        0.0000 
      4 CA         43.7250   22.0400   69.8380 C.3       3 GLC5        0.0000 
      5 CA         42.4850   22.9320   71.3090 C.3       6 GLP5        0.0000 
      6 CA         34.1495   23.2045   61.4805 C.3       3 GLC5        0.0000 
      7 CA         34.4900   21.3520   60.2950 C.3       9 GLL5        0.0000 
      8 CA         33.8090   25.0570   62.6660 C.3       6 GLP5        0.0000 
      9 CA         34.1240   20.0405   62.8855 C.3       3 GLC5        0.0000 
     10 CA         35.1290   20.7720   61.3630 C.3       9 GLL5        0.0000 
     11 CA         33.1190   19.3090   64.4080 C.3       6 GLP5        0.0000 
     12 CA         41.7735   15.7890   68.4045 C.3       3 GLC5        0.0000 
     13 CA         41.3830   17.8430   68.6610 C.3       9 GLL5        0.0000 
     14 CA         42.1640   13.7350   68.1480 C.3       6 GLP5        0.0000 
     15 CA         40.2665   19.1125   69.9110 C.3       3 GLC5        0.0000 
     16 CA         39.1500   20.3820   71.1610 C.3       6 GLP5        0.0000 
     17 CA         43.3240   17.5160   70.8995 C.3       3 GLC5        0.0000 
     18 CA         42.6310   18.2090   69.1150 C.3       9 GLL5        0.0000 
     19 CA         44.0170   16.8230   72.6840 C.3       6 GLP5        0.0000 
     20 CA         35.3570   18.2170   59.3100 C.3       3 GLC5        0.0000 
     21 CA         35.9590   20.2090   58.8500 C.3       9 GLL5        0.0000 
     22 CA         34.7550   16.2250   59.7700 C.3       6 GLP5        0.0000 
     23 CA         36.5035   18.9205   57.4570 C.3       3 GLC5        0.0000 
     24 CA         37.0480   17.6320   56.0640 C.3       6 GLP5        0.0000 
     25 CA         37.5890   17.4545   66.9660 C.3       3 GLC5        0.0000 
     26 CA         38.3760   18.7310   65.3850 C.3       9 GLL5        0.0000 
     27 CA         36.8020   16.1780   68.5470 C.3       6 GLP5        0.0000 
     28 CA         43.1010   12.9725   63.9640 C.3       3 GLC5        0.0000 
     29 CA         41.7950   12.9900   62.8050 C.3       9 GLL5        0.0000 
     30 CA         44.4070   12.9550   65.1230 C.3       6 GLP5        0.0000 
     31 CA         42.5980   10.8940   62.8010 C.3       3 GLC5        0.0000 
     32 CA         43.4010    8.7980   62.7970 C.3       6 GLP5        0.0000 
     33 CA         39.4895   11.0745   64.1865 C.3       3 GLC5        0.0000 
     34 CA         40.9570   12.3340   63.9230 C.3       9 GLL5        0.0000 
     35 CA         38.0220    9.8150   64.4500 C.3       6 GLP5        0.0000 
     36 CA         42.2015   12.5805   65.0445 C.3       3 GLC5        0.0000 
     37 CA         43.4460   12.8270   66.1660 C.3       6 GLP5        0.0000 
     38 CA         41.1355   10.1305   63.9755 C.3       3 GLC5        0.0000 
     39 CA         41.3140    7.9270   64.0280 C.3       6 GLP5        0.0000 
     40 CA         42.4410   15.5440   65.9020 C.3       3 GLC5        0.0000 
     41 CA         41.0360   15.9540   64.9860 C.3       9 GLL5        0.0000 
     42 CA         43.8460   15.1340   66.8180 C.3       6 GLP5        0.0000 
     43 CA         35.4735   18.0740   60.4350 C.3       3 GLC5        0.0000 
     44 CA         36.1920   19.9230   61.1000 C.3       9 GLL5        0.0000 
     45 O          38.7425   17.7400   60.9165 O.2       1 ALC1        0.0000 
     46 O          37.9240   18.3210   61.9090 O.2       7 ALL1        0.0000 
     47 O          39.5610   17.1590   59.9240 O.2       4 ALP1        0.0000 
     48 N          36.8220   18.1825   59.3885 N.am      2 SEC2        0.0000 
     49 N          36.6290   19.6540   59.8660 N.am      8 SEL2        0.0000 
     50 N          37.0150   16.7110   58.9110 N.am      5 SEP2        0.0000 
     51 N          44.8810   20.5640   70.8630 N.am      2 SEC2        0.0000 
     52 N          45.0190   19.1140   70.1740 N.am      8 SEL2        0.0000 
     53 N          44.7430   22.0140   71.5520 N.am      5 SEP2        0.0000 
     54 CA         32.9384   20.6404   60.6781 C.3       3 GLC5        0.0000 
     55 CA         30.9660   20.2890   60.8480 C.3       6 GLP5        0.0000 
     56 CA         37.4255   16.4718   62.5752 C.3       3 GLC5        0.0000 
     57 CA         38.5380   18.0010   63.1030 C.3       9 GLL5        0.0000 
     58 CA         35.8180   15.4150   61.9090 C.3       6 GLP5        0.0000 
     59 CA         36.3388   19.5485   65.4880 C.3       3 GLC5        0.0000 
     60 CA         37.9430   18.8370   64.0470 C.3       9 GLL5        0.0000 
     61 CA         34.5180   20.3130   66.2600 C.3       6 GLP5        0.0000 
     62 CA         38.5122   20.6260   64.7120 C.3       3 GLC5        0.0000 
     63 CA         38.8650   22.4680   64.7080 C.3       6 GLP5        0.0000 
     64 CA         40.7665   11.3700   62.0780 C.3       3 GLC5        0.0000 
     65 CA         40.1570   10.0780   60.7920 C.3       6 GLP5        0.0000 
     66 CA         36.7374   21.7548   61.6683 C.3       3 GLC5        0.0000 
     67 CA         37.9740   23.0170   62.3720 C.3       6 GLP5        0.0000 
     68 CA         38.1217   16.1397   65.8162 C.3       3 GLC5        0.0000 
     69 CA         39.4000   17.8140   65.6540 C.3       9 GLL5        0.0000 
     70 CA         36.5640   14.8860   66.4620 C.3       6 GLP5        0.0000 
@<TRIPOS>BOND
@<TRIPOS>SUBSTRUCTURE
     1 ALC1       45 GROUP        1 X    ALC  0     ROOT ALC X 1
     2 SEC2       48 GROUP        1 X    SEC  0     **** SEC X 2
     3 GLC5        1 GROUP        1 X    GLC  0     **** GLC X 6
     4 ALP1       47 GROUP        1 Y    ALP  0     ROOT ALP Y 8
     5 SEP2       50 GROUP        1 Y    SEP  0     **** SEP Y 9
     6 GLP5        3 GROUP        1 Y    GLP  0     **** GLP Y 13
     7 ALL1       46 GROUP        1 Z    ALL  0     ROOT ALL Z 15
     8 SEL2       49 GROUP        1 Z    SEL  0     **** SEL Z 16
     9 GLL5        2 GROUP        1 Z    GLL  0     **** GLL Z 20
@<TRIPOS>SET

