#    Name: 3h1v_TK1_1_ligand
#    Modification time : Tue Mar 25 13:28:34 2014

@<TRIPOS>MOLECULE
3h1v_TK1_1_ligand
   54    58     1     0     0
SMALL
NO_CHARGES


@<TRIPOS>ATOM
      1 C1         44.9650   21.1480   68.3670 C.3       1 TK1501      0.0000 
      2 C2         34.4900   21.3520   60.2950 C.ar      1 TK1501      0.0000 
      3 C3         34.8950   21.0710   59.0120 C.ar      1 TK1501      0.0000 
      4 C4         35.1290   20.7720   61.3630 C.ar      1 TK1501      0.0000 
      5 C5         41.8390   18.8300   66.5060 C.ar      1 TK1501      0.0000 
      6 C6         41.3830   17.8430   68.6610 C.ar      1 TK1501      0.0000 
      7 C7         43.0610   19.2010   66.9440 C.ar      1 TK1501      0.0000 
      8 C8         42.6310   18.2090   69.1150 C.ar      1 TK1501      0.0000 
      9 C9         35.9590   20.2090   58.8500 C.ar      1 TK1501      0.0000 
     10 C10        39.5280   17.0560   63.3800 C.ar      1 TK1501      0.0000 
     11 C11        38.3760   18.7310   65.3850 C.ar      1 TK1501      0.0000 
     12 C12        41.7950   12.9900   62.8050 C.3       1 TK1501      0.0000 
     13 C13        40.9570   12.3340   63.9230 C.3       1 TK1501      0.0000 
     14 C14        41.0360   15.9540   64.9860 C.3       1 TK1501      0.0000 
     15 C15        41.0140   18.1600   67.3760 C.ar      1 TK1501      0.0000 
     16 C16        43.4230   18.8900   68.2240 C.ar      1 TK1501      0.0000 
     17 C17        36.1920   19.9230   61.1000 C.ar      1 TK1501      0.0000 
     18 C18        39.9590   16.9730   64.6870 C.ar      1 TK1501      0.0000 
     19 C19        38.5380   18.0010   63.1030 C.ar      1 TK1501      0.0000 
     20 C20        37.9430   18.8370   64.0470 C.ar      1 TK1501      0.0000 
     21 C21        39.4000   17.8140   65.6540 C.ar      1 TK1501      0.0000 
     22 C22        36.9800   19.3110   62.1520 C.2       1 TK1501      0.0000 
     23 C23        41.7670   14.4820   63.0980 C.2       1 TK1501      0.0000 
     24 C24        40.5390   13.5480   64.7560 C.2       1 TK1501      0.0000 
     25 N25        37.9240   18.3210   61.9090 N.pl3     1 TK1501      0.0000 
     26 N26        36.6290   19.6540   59.8660 N.ar      1 TK1501      0.0000 
     27 N27        36.9650   19.6310   63.4310 N.2       1 TK1501      0.0000 
     28 N28        40.9640   14.7140   64.1880 N.am      1 TK1501      0.0000 
     29 O29        42.3720   15.3410   62.4670 O.2       1 TK1501      0.0000 
     30 O30        39.9800   13.5350   65.8210 O.2       1 TK1501      0.0000 
     31 O31        45.0190   19.1140   70.1740 O.2       1 TK1501      0.0000 
     32 O32        46.0240   18.8400   67.8380 O.2       1 TK1501      0.0000 
     33 O33        39.7840   17.7270   66.9690 O.3       1 TK1501      0.0000 
     34 S34        45.0180   19.3990   68.7350 S.o2      1 TK1501      0.0000 
     35 H          33.7012   22.0026   60.4559 H         1 TK1501      0.0000 
     36 H          34.4275   21.4835   58.2085 H         1 TK1501      0.0000 
     37 H          34.8356   20.9561   62.3199 H         1 TK1501      0.0000 
     38 H          41.5252   19.0376   65.5520 H         1 TK1501      0.0000 
     39 H          40.7347   17.3373   69.2793 H         1 TK1501      0.0000 
     40 H          43.7140   19.7097   66.3298 H         1 TK1501      0.0000 
     41 H          42.9423   17.9887   70.0469 H         1 TK1501      0.0000 
     42 H          36.2515   19.9824   57.8507 H         1 TK1501      0.0000 
     43 H          39.9035   16.4676   62.6543 H         1 TK1501      0.0000 
     44 H          37.9654   19.2902   66.1095 H         1 TK1501      0.0000 
     45 H          41.3378   12.7926   61.8624 H         1 TK1501      0.0000 
     46 H          42.7952   12.6248   62.8563 H         1 TK1501      0.0000 
     47 H          41.5687   11.6982   64.4938 H         1 TK1501      0.0000 
     48 H          40.1097   11.8750   63.5039 H         1 TK1501      0.0000 
     49 H          40.9907   15.7055   66.0718 H         1 TK1501      0.0000 
     50 H          42.0282   16.4398   64.8371 H         1 TK1501      0.0000 
     51 H          38.1117   17.9325   61.0604 H         1 TK1501      0.0000 
     52 H          45.7853   21.6204   68.6895 H         1 TK1501      0.0000 
     53 H          44.8957   21.3188   67.3841 H         1 TK1501      0.0000 
     54 H          44.1810   21.5946   68.7981 H         1 TK1501      0.0000 
@<TRIPOS>BOND
     1   34    1 1    
     2   52    1 1    
     3   53    1 1    
     4   54    1 1    
     5    3    2 ar   
     6    4    2 ar   
     7   35    2 1    
     8    9    3 ar   
     9   36    3 1    
    10   17    4 ar   
    11   37    4 1    
    12    7    5 ar   
    13   15    5 ar   
    14   38    5 1    
    15    8    6 ar   
    16   15    6 ar   
    17   39    6 1    
    18   16    7 ar   
    19   40    7 1    
    20   16    8 ar   
    21   41    8 1    
    22   26    9 ar   
    23   42    9 1    
    24   18   10 ar   
    25   19   10 ar   
    26   43   10 1    
    27   20   11 ar   
    28   21   11 ar   
    29   44   11 1    
    30   13   12 1    
    31   23   12 1    
    32   45   12 1    
    33   46   12 1    
    34   24   13 1    
    35   47   13 1    
    36   48   13 1    
    37   18   14 1    
    38   28   14 1    
    39   49   14 1    
    40   50   14 1    
    41   33   15 1    
    42   34   16 1    
    43   22   17 1    
    44   26   17 ar   
    45   21   18 ar   
    46   20   19 ar   
    47   25   19 1    
    48   27   20 1    
    49   33   21 1    
    50   25   22 1    
    51   27   22 2    
    52   28   23 am   
    53   29   23 2    
    54   28   24 am   
    55   30   24 2    
    56   51   25 1    
    57   34   31 2    
    58   34   32 2    
@<TRIPOS>SUBSTRUCTURE
     1 TK1501      1 GROUP   
@<TRIPOS>SET

