#    Name: 3qcq_3Q0_1_INTS_M
#    Modification time : Tue Mar 25 09:38:13 2014

@<TRIPOS>MOLECULE
3qcq_3Q0_1_INTS_M
   65     0     9     0     0
SMALL
NO_CHARGES


@<TRIPOS>ATOM
      1 CA        -40.1430   16.2240   14.8220 C.3       3 GLC5        0.0000 
      2 CA        -40.6490   16.4720   12.7400 C.3       9 GLL5        0.0000 
      3 CA        -39.6370   15.9760   16.9040 C.3       6 GLP5        0.0000 
      4 CA        -43.2900   15.1735   13.8310 C.3       3 GLC5        0.0000 
      5 CA        -42.9400   15.1320   11.7670 C.3       9 GLL5        0.0000 
      6 CA        -43.6400   15.2150   15.8950 C.3       6 GLP5        0.0000 
      7 CA        -44.7265   14.2110   11.9140 C.3       3 GLC5        0.0000 
      8 CA        -46.5130   13.2900   12.0610 C.3       6 GLP5        0.0000 
      9 CA        -47.4445   18.6245   12.3780 C.3       3 GLC5        0.0000 
     10 CA        -45.6480   19.0320   11.6260 C.3       9 GLL5        0.0000 
     11 CA        -49.2410   18.2170   13.1300 C.3       6 GLP5        0.0000 
     12 CA        -45.7655   19.3195    9.5580 C.3       3 GLC5        0.0000 
     13 CA        -45.8830   19.6070    7.4900 C.3       6 GLP5        0.0000 
     14 CA        -39.8055   13.7670   14.7555 C.3       3 GLC5        0.0000 
     15 CA        -39.6760   14.0500   12.7090 C.3       9 GLL5        0.0000 
     16 CA        -39.9350   13.4840   16.8020 C.3       6 GLP5        0.0000 
     17 CA        -38.7535   12.3550   13.8090 C.3       3 GLC5        0.0000 
     18 CA        -37.8310   10.6600   14.9090 C.3       6 GLP5        0.0000 
     19 CA        -38.5380   13.1360   11.2075 C.3       3 GLC5        0.0000 
     20 CA        -37.4000   12.2220    9.7060 C.3       6 GLP5        0.0000 
     21 CA        -47.5580   16.9030   12.0130 C.3       3 GLC5        0.0000 
     22 CA        -46.1940   17.0560   10.6050 C.3       9 GLL5        0.0000 
     23 CA        -48.9220   16.7500   13.4210 C.3       6 GLP5        0.0000 
     24 CA        -46.3535   15.1730   11.3330 C.3       3 GLC5        0.0000 
     25 CA        -44.8915   16.3450    9.0380 C.3       3 GLC5        0.0000 
     26 CA        -43.5890   15.6340    7.4710 C.3       6 GLP5        0.0000 
     27 CA        -46.4820   17.7150    8.9275 C.3       3 GLC5        0.0000 
     28 CA        -46.7700   18.3740    7.2500 C.3       6 GLP5        0.0000 
     29 CA        -43.1645   20.5035   15.2655 C.3       3 GLC5        0.0000 
     30 CA        -45.0440   20.8470   14.1490 C.3       9 GLL5        0.0000 
     31 CA        -41.2850   20.1600   16.3820 C.3       6 GLP5        0.0000 
     32 CA        -44.2945   21.9280   15.7540 C.3       3 GLC5        0.0000 
     33 CA        -43.5450   23.0090   17.3590 C.3       6 GLP5        0.0000 
     34 CA        -45.6915   22.7450   14.7895 C.3       3 GLC5        0.0000 
     35 CA        -46.3390   24.6430   15.4300 C.3       6 GLP5        0.0000 
     36 N         -44.8515   15.9440    9.6545 N.am      2 SEC2        0.0000 
     37 N         -45.0280   16.4850   10.9230 N.am      8 SEL2        0.0000 
     38 N         -44.6750   15.4030    8.3860 N.am      5 SEP2        0.0000 
     39 N         -47.8720   18.3960   11.2925 N.am      2 SEC2        0.0000 
     40 N         -46.5350   18.3100   10.9300 N.am      8 SEL2        0.0000 
     41 N         -49.2090   18.4820   11.6550 N.am      5 SEP2        0.0000 
     42 O         -37.1255   13.4770   12.5865 O.2       1 ALC1        0.0000 
     43 O         -38.4090   14.2590   13.1660 O.2       7 ALL1        0.0000 
     44 O         -35.8420   12.6950   12.0070 O.2       4 ALP1        0.0000 
     45 O         -48.4585   16.6245    9.5470 O.2       1 ALC1        0.0000 
     46 O         -47.0980   16.2830    9.8740 O.2       7 ALL1        0.0000 
     47 O         -49.8190   16.9660    9.2200 O.2       4 ALP1        0.0000 
     48 O         -45.8865   15.8430    9.1300 O.2       1 ALC1        0.0000 
     49 O         -44.6750   15.4030    8.3860 O.2       4 ALP1        0.0000 
     50 CA        -40.5147   15.9360   10.9100 C.3       3 GLC5        0.0000 
     51 CA        -41.8220   17.1280   12.4460 C.3       9 GLL5        0.0000 
     52 CA        -39.7940   15.0720    9.2270 C.3       6 GLP5        0.0000 
     53 CA        -43.5508   17.1425   13.7685 C.3       3 GLC5        0.0000 
     54 CA        -44.7180   17.4730   15.3340 C.3       6 GLP5        0.0000 
     55 CA        -41.3683   15.4430   10.5452 C.3       3 GLC5        0.0000 
     56 CA        -42.9450   16.4960   11.9600 C.3       9 GLL5        0.0000 
     57 CA        -41.2357   13.1477   13.7605 C.3       3 GLC5        0.0000 
     58 CA        -40.6310   15.0970   12.5430 C.3       9 GLL5        0.0000 
     59 CA        -42.3180   11.7220   14.8950 C.3       6 GLP5        0.0000 
     60 CA        -39.9737   14.8227   10.9265 C.3       3 GLC5        0.0000 
     61 CA        -43.1554   16.6815    9.8246 C.3       3 GLC5        0.0000 
     62 CA        -42.7620   16.8490    7.9060 C.3       6 GLP5        0.0000 
     63 CA        -44.8434   17.9602   13.5267 C.3       3 GLC5        0.0000 
     64 CA        -44.1550   17.2140   11.6230 C.3       9 GLL5        0.0000 
     65 CA        -44.8375   19.1930   14.3682 C.3       3 GLC5        0.0000 
@<TRIPOS>BOND
@<TRIPOS>SUBSTRUCTURE
     1 ALC1       42 GROUP        1 X    ALC  0     ROOT ALC X 1
     2 SEC2       36 GROUP        1 X    SEC  0     **** SEC X 2
     3 GLC5        1 GROUP        1 X    GLC  0     **** GLC X 6
     4 ALP1       44 GROUP        1 Y    ALP  0     ROOT ALP Y 8
     5 SEP2       38 GROUP        1 Y    SEP  0     **** SEP Y 9
     6 GLP5        3 GROUP        1 Y    GLP  0     **** GLP Y 13
     7 ALL1       43 GROUP        1 Z    ALL  0     ROOT ALL Z 15
     8 SEL2       37 GROUP        1 Z    SEL  0     **** SEL Z 16
     9 GLL5        2 GROUP        1 Z    GLL  0     **** GLL Z 20
@<TRIPOS>SET

