#    Name: 3qcq_3Q0_1_ligand
#    Modification time : Tue Mar 25 09:38:13 2014

@<TRIPOS>MOLECULE
3qcq_3Q0_1_ligand
   35    37     1     0     0
SMALL
NO_CHARGES


@<TRIPOS>ATOM
      1 C13       -40.6490   16.4720   12.7400 C.ar      1 3Q0370      0.0000 
      2 C12       -41.8220   17.1280   12.4460 C.ar      1 3Q0370      0.0000 
      3 C20       -42.9400   15.1320   11.7670 C.ar      1 3Q0370      0.0000 
      4 C5        -44.4240   18.5120   12.0030 C.ar      1 3Q0370      0.0000 
      5 C14       -40.6310   15.0970   12.5430 C.ar      1 3Q0370      0.0000 
      6 C11       -42.9450   16.4960   11.9600 C.ar      1 3Q0370      0.0000 
      7 C19       -41.7720   14.4790   12.0740 C.ar      1 3Q0370      0.0000 
      8 C6        -44.1550   17.2140   11.6230 C.ar      1 3Q0370      0.0000 
      9 C4        -45.6480   19.0320   11.6260 C.ar      1 3Q0370      0.0000 
     10 C15       -39.6760   14.0500   12.7090 C.2       1 3Q0370      0.0000 
     11 C8        -46.1940   17.0560   10.6050 C.ar      1 3Q0370      0.0000 
     12 C1        -45.0440   20.8470   14.1490 C.3       1 3Q0370      0.0000 
     13 C2        -44.8700   20.9790   12.6560 C.3       1 3Q0370      0.0000 
     14 N7        -45.0280   16.4850   10.9230 N.ar      1 3Q0370      0.0000 
     15 N10       -46.5350   18.3100   10.9300 N.ar      1 3Q0370      0.0000 
     16 N17       -40.1960   12.8660   12.3590 N.pl3     1 3Q0370      0.0000 
     17 N18       -41.4570   13.1520   11.9840 N.2       1 3Q0370      0.0000 
     18 N16       -38.4090   14.2590   13.1660 N.pl3     1 3Q0370      0.0000 
     19 N9        -47.0980   16.2830    9.8740 N.pl3     1 3Q0370      0.0000 
     20 N3        -45.9880   20.3460   11.9780 N.pl3     1 3Q0370      0.0000 
     21 H         -39.8353   16.9614   13.0834 H         1 3Q0370      0.0000 
     22 H         -41.8642   18.1731   12.6012 H         1 3Q0370      0.0000 
     23 H         -43.7498   14.6428   11.4197 H         1 3Q0370      0.0000 
     24 H         -43.7592   19.0582   12.5318 H         1 3Q0370      0.0000 
     25 H         -43.9239   20.5087   12.3713 H         1 3Q0370      0.0000 
     26 H         -44.8115   22.0421   12.4035 H         1 3Q0370      0.0000 
     27 H         -39.7771   12.0212   12.3710 H         1 3Q0370      0.0000 
     28 H         -38.3310   14.6928   14.0636 H         1 3Q0370      0.0000 
     29 H         -37.6690   13.9601   12.5634 H         1 3Q0370      0.0000 
     30 H         -46.6987   15.6083    9.2533 H         1 3Q0370      0.0000 
     31 H         -48.0672   16.4705   10.0340 H         1 3Q0370      0.0000 
     32 H         -46.8112   20.7794   11.8120 H         1 3Q0370      0.0000 
     33 H         -45.0868   19.8896   14.4347 H         1 3Q0370      0.0000 
     34 H         -44.2881   21.2688   14.6497 H         1 3Q0370      0.0000 
     35 H         -45.8855   21.2851   14.4650 H         1 3Q0370      0.0000 
@<TRIPOS>BOND
     1    2    1 ar   
     2    5    1 ar   
     3   21    1 1    
     4    6    2 ar   
     5   22    2 1    
     6    6    3 ar   
     7    7    3 ar   
     8   23    3 1    
     9    8    4 ar   
    10    9    4 ar   
    11   24    4 1    
    12    7    5 ar   
    13   10    5 2    
    14    8    6 1    
    15   17    7 2    
    16   14    8 ar   
    17   15    9 ar   
    18   20    9 1    
    19   16   10 1    
    20   18   10 1    
    21   14   11 ar   
    22   15   11 ar   
    23   19   11 1    
    24   13   12 1    
    25   33   12 1    
    26   34   12 1    
    27   35   12 1    
    28   20   13 1    
    29   25   13 1    
    30   26   13 1    
    31   17   16 1    
    32   27   16 1    
    33   28   18 1    
    34   29   18 1    
    35   30   19 1    
    36   31   19 1    
    37   32   20 1    
@<TRIPOS>SUBSTRUCTURE
     1 3Q0370      1 GROUP   
@<TRIPOS>SET

