#    Name: 2wo8_077_3_INTS_M
#    Modification time : Tue Mar 25 04:30:55 2014

@<TRIPOS>MOLECULE
2wo8_077_3_INTS_M
   51     0     9     0     0
SMALL
NO_CHARGES


@<TRIPOS>ATOM
      1 CA         48.1890   43.7700   31.2230 C.3       3 GLC5        0.0000 
      2 CA         48.0390   41.9220   30.3010 C.3       9 GLL5        0.0000 
      3 CA         48.3390   45.6180   32.1450 C.3       6 GLP5        0.0000 
      4 CA         47.5520   43.0985   32.9265 C.3       3 GLC5        0.0000 
      5 CA         47.3670   41.5960   31.4890 C.3       9 GLL5        0.0000 
      6 CA         47.7370   44.6010   34.3640 C.3       6 GLP5        0.0000 
      7 CA         49.9705   40.7360   31.2225 C.3       3 GLC5        0.0000 
      8 CA         48.6370   40.9420   29.4970 C.3       9 GLL5        0.0000 
      9 CA         51.3040   40.5300   32.9480 C.3       6 GLP5        0.0000 
     10 N          51.3745   44.2190   20.8890 N.am      1 SEC2        0.0000 
     11 N          51.5910   43.0330   21.5860 N.am      7 SEL2        0.0000 
     12 N          51.1580   45.4050   20.1920 N.am      4 SEP2        0.0000 
     13 CA         51.3210   44.3210   22.4090 C.3       3 GLC5        0.0000 
     14 CA         52.4910   42.4370   22.5350 C.3       9 GLL5        0.0000 
     15 CA         50.1510   46.2050   22.2830 C.3       6 GLP5        0.0000 
     16 CA         50.6215   44.4910   23.4280 C.3       3 GLC5        0.0000 
     17 CA         51.0920   42.7770   24.5730 C.3       9 GLL5        0.0000 
     18 CA         51.5135   44.6625   25.4955 C.3       3 GLC5        0.0000 
     19 CA         51.9350   46.5480   26.4180 C.3       6 GLP5        0.0000 
     20 CA         53.6905   42.9415   20.1155 C.3       3 GLC5        0.0000 
     21 CA         53.5270   41.5610   21.8390 C.3       9 GLL5        0.0000 
     22 CA         53.8540   44.3220   18.3920 C.3       6 GLP5        0.0000 
     23 Zn         54.5810   39.3160   23.7990 Zn        2 ZIC7        0.0000 
     24 Zn         54.2030   39.6290   22.9180 Zn        8 ZIL7        0.0000 
     25 Zn         54.9590   39.0030   24.6800 Zn        5 ZIP7        0.0000 
     26 Zn         55.0370   40.2625   24.1270 Zn        2 ZIC7        0.0000 
     27 Zn         55.1150   41.5220   23.5740 Zn        8 ZIL7        0.0000 
     28 CA         49.5998   38.7900   31.6220 C.3       3 GLC5        0.0000 
     29 CA         48.5340   39.6250   29.9220 C.3       9 GLL5        0.0000 
     30 CA         51.0030   38.1260   32.7240 C.3       6 GLP5        0.0000 
     31 CA         47.2430   41.4265   28.1235 C.3       3 GLC5        0.0000 
     32 CA         46.1480   41.4210   26.3480 C.3       6 GLP5        0.0000 
     33 CA         49.3960   40.7680   32.1758 C.3       3 GLC5        0.0000 
     34 CA         48.5498   39.4680   25.5757 C.3       3 GLC5        0.0000 
     35 CA         50.1190   40.9230   25.9720 C.3       9 GLL5        0.0000 
     36 CA         47.2620   38.2190   24.5810 C.3       6 GLP5        0.0000 
     37 CA         50.7190   44.5307   28.1958 C.3       3 GLC5        0.0000 
     38 CA         49.6660   42.7320   28.0700 C.3       9 GLL5        0.0000 
     39 CA         51.4840   46.1160   28.9140 C.3       6 GLP5        0.0000 
     40 CA         51.5547   42.2785   28.3611 C.3       3 GLC5        0.0000 
     41 CA         50.2420   43.1590   26.8850 C.3       9 GLL5        0.0000 
     42 CA         53.2380   41.9520   29.2040 C.3       6 GLP5        0.0000 
     43 CA         52.7017   41.6043   25.5160 C.3       3 GLC5        0.0000 
     44 CA         54.0550   40.9560   26.9450 C.3       6 GLP5        0.0000 
     45 CA         51.7676   41.2037   27.1571 C.3       3 GLC5        0.0000 
     46 CA         50.4770   42.2600   25.8160 C.3       9 GLL5        0.0000 
     47 CA         53.3780   40.9190   28.1210 C.3       6 GLP5        0.0000 
     48 CA         48.1449   42.7629   26.4641 C.3       3 GLC5        0.0000 
     49 CA         46.2770   42.8050   25.7180 C.3       6 GLP5        0.0000 
     50 CA         47.9652   41.1764   26.5922 C.3       3 GLC5        0.0000 
     51 CA         49.3360   41.3700   28.2330 C.3       9 GLL5        0.0000 
@<TRIPOS>BOND
@<TRIPOS>SUBSTRUCTURE
     1 SEC2       10 GROUP        1 X    SEC  0     ROOT SEC X 2
     2 ZIC7       23 GROUP        1 X    ZIC  0     **** ZIC X 5
     3 GLC5        1 GROUP        1 X    GLC  0     **** GLC X 6
     4 SEP2       12 GROUP        1 Y    SEP  0     ROOT SEP Y 9
     5 ZIP7       25 GROUP        1 Y    ZIP  0     **** ZIP Y 12
     6 GLP5        3 GROUP        1 Y    GLP  0     **** GLP Y 13
     7 SEL2       11 GROUP        1 Z    SEL  0     ROOT SEL Z 16
     8 ZIL7       24 GROUP        1 Z    ZIL  0     **** ZIL Z 19
     9 GLL5        2 GROUP        1 Z    GLL  0     **** GLL Z 20
@<TRIPOS>SET

