#    Name: 2wo8_077_3_ligand
#    Modification time : Tue Mar 25 04:30:55 2014

@<TRIPOS>MOLECULE
2wo8_077_3_ligand
   37    38     1     0     0
SMALL
NO_CHARGES


@<TRIPOS>ATOM
      1 C1         47.8590   39.2830   31.1180 C.ar      1 0771271     0.0000 
      2 C2         48.0390   41.9220   30.3010 C.ar      1 0771271     0.0000 
      3 C3         48.5340   39.6250   29.9220 C.ar      1 0771271     0.0000 
      4 C4         47.2730   40.2530   31.9120 C.ar      1 0771271     0.0000 
      5 C5         47.3670   41.5960   31.4890 C.ar      1 0771271     0.0000 
      6 C6         48.6370   40.9420   29.4970 C.ar      1 0771271     0.0000 
      7 C8         49.3360   41.3700   28.2330 C.ar      1 0771271     0.0000 
      8 O1         51.5910   43.0330   21.5860 O.3       1 0771271     0.0000 
      9 C10        49.5560   40.5110   27.1690 C.ar      1 0771271     0.0000 
     10 C11        50.2420   43.1590   26.8850 C.ar      1 0771271     0.0000 
     11 C12        51.6050   41.7280   23.6010 C.3       1 0771271     0.0000 
     12 C20        52.4910   42.4370   22.5350 C.3       1 0771271     0.0000 
     13 C13        50.4770   42.2600   25.8160 C.ar      1 0771271     0.0000 
     14 C14        49.6660   42.7320   28.0700 C.ar      1 0771271     0.0000 
     15 C60        50.1190   40.9230   25.9720 C.ar      1 0771271     0.0000 
     16 C16        51.0920   42.7770   24.5730 C.3       1 0771271     0.0000 
     17 C17        53.5270   41.5610   21.8390 C.3       1 0771271     0.0000 
     18 C18        54.3610   40.8390   22.8660 C.2       1 0771271     0.0000 
     19 O3         54.2030   39.6290   22.9180 O.co2     1 0771271     0.0000 
     20 O4         55.1150   41.5220   23.5740 O.co2     1 0771271     0.0000 
     21 H          47.8104   38.2874   31.3914 H         1 0771271     0.0000 
     22 H          48.0943   42.9163   30.0104 H         1 0771271     0.0000 
     23 H          48.9572   38.8656   29.3588 H         1 0771271     0.0000 
     24 H          46.7905   40.0204   32.7693 H         1 0771271     0.0000 
     25 H          46.9400   42.3365   32.0563 H         1 0771271     0.0000 
     26 H          49.2838   39.5016   27.2741 H         1 0771271     0.0000 
     27 H          50.5104   44.1503   26.7651 H         1 0771271     0.0000 
     28 H          52.2068   41.0029   24.1214 H         1 0771271     0.0000 
     29 H          50.7799   41.2511   23.1005 H         1 0771271     0.0000 
     30 H          53.0223   43.2468   23.0671 H         1 0771271     0.0000 
     31 H          49.4764   43.3909   28.8292 H         1 0771271     0.0000 
     32 H          50.2711   40.2570   25.2111 H         1 0771271     0.0000 
     33 H          50.3583   43.4223   24.0316 H         1 0771271     0.0000 
     34 H          51.9404   43.4572   24.8289 H         1 0771271     0.0000 
     35 H          54.1652   42.1878   21.2207 H         1 0771271     0.0000 
     36 H          53.0155   40.8394   21.2064 H         1 0771271     0.0000 
     37 H          50.6827   42.9314   21.9919 H         1 0771271     0.0000 
@<TRIPOS>BOND
     1    3    1 ar   
     2    4    1 ar   
     3   21    1 1    
     4    5    2 ar   
     5    6    2 ar   
     6   22    2 1    
     7    6    3 ar   
     8   23    3 1    
     9    5    4 ar   
    10   24    4 1    
    11   25    5 1    
    12    7    6 1    
    13    9    7 ar   
    14   14    7 ar   
    15   12    8 1    
    16   37    8 1    
    17   15    9 ar   
    18   26    9 1    
    19   13   10 ar   
    20   14   10 ar   
    21   27   10 1    
    22   12   11 1    
    23   16   11 1    
    24   28   11 1    
    25   29   11 1    
    26   17   12 1    
    27   30   12 1    
    28   15   13 ar   
    29   16   13 1    
    30   31   14 1    
    31   32   15 1    
    32   33   16 1    
    33   34   16 1    
    34   18   17 1    
    35   35   17 1    
    36   36   17 1    
    37   19   18 ar   
    38   20   18 ar   
@<TRIPOS>SUBSTRUCTURE
     1 0771271     1 GROUP   
@<TRIPOS>SET

