#    Name: 1w6h_TIT_2_INTS_M
#    Modification time : Tue Mar 25 08:41:21 2014

@<TRIPOS>MOLECULE
1w6h_TIT_2_INTS_M
   95     0     9     0     0
SMALL
NO_CHARGES


@<TRIPOS>ATOM
      1 CA         32.5745   65.3110   62.7760 C.3       3 GLC5        0.0000 
      2 CA         30.5270   65.5830   61.9800 C.3       9 GLL5        0.0000 
      3 CA         34.6220   65.0390   63.5720 C.3       6 GLP5        0.0000 
      4 CA         28.6140   69.1155   60.8280 C.3       3 GLC5        0.0000 
      5 CA         29.0410   67.2610   60.9390 C.3       9 GLL5        0.0000 
      6 CA         28.1870   70.9700   60.7170 C.3       6 GLP5        0.0000 
      7 CA         29.0970   69.3440   61.9295 C.3       3 GLC5        0.0000 
      8 CA         30.0070   67.7180   63.1420 C.3       9 GLL5        0.0000 
      9 CA         31.4990   68.8695   61.9245 C.3       3 GLC5        0.0000 
     10 CA         32.9910   70.0210   60.7070 C.3       6 GLP5        0.0000 
     11 CA         30.5505   65.1465   57.8170 C.3       3 GLC5        0.0000 
     12 CA         29.2530   64.1950   58.6120 C.3       9 GLL5        0.0000 
     13 CA         31.8480   66.0980   57.0220 C.3       6 GLP5        0.0000 
     14 CA         27.7285   64.0245   57.8850 C.3       3 GLC5        0.0000 
     15 CA         26.2040   63.8540   57.1580 C.3       6 GLP5        0.0000 
     16 N          34.2850   64.2440   66.4520 N.am      2 SEC2        0.0000 
     17 N          34.3750   65.3990   67.0150 N.am      8 SEL2        0.0000 
     18 N          34.1950   63.0890   65.8890 N.am      5 SEP2        0.0000 
     19 N          31.9865   70.5135   67.3440 N.am      2 SEC2        0.0000 
     20 N          32.0510   69.1530   67.4770 N.am      8 SEL2        0.0000 
     21 N          31.9220   71.8740   67.2110 N.am      5 SEP2        0.0000 
     22 O          31.4425   69.1515   68.7410 O.2       1 ALC1        0.0000 
     23 O          32.0510   69.1530   67.4770 O.2       7 ALL1        0.0000 
     24 O          30.8340   69.1500   70.0050 O.2       4 ALP1        0.0000 
     25 O          29.7270   67.3430   67.7675 O.2       1 ALC1        0.0000 
     26 O          30.7470   66.8750   66.4800 O.2       7 ALL1        0.0000 
     27 O          28.7070   67.8110   69.0550 O.2       4 ALP1        0.0000 
     28 O          38.1910   64.8365   66.1680 O.2       1 ALC1        0.0000 
     29 O          38.1010   64.9040   67.6690 O.2       7 ALL1        0.0000 
     30 O          38.2810   64.7690   64.6670 O.2       4 ALP1        0.0000 
     31 CA         39.2455   62.6195   65.6095 C.3       3 GLC5        0.0000 
     32 CA         38.7520   62.7650   67.7940 C.3       9 GLL5        0.0000 
     33 CA         39.7390   62.4740   63.4250 C.3       6 GLP5        0.0000 
     34 CA         36.3205   62.7940   65.9025 C.3       3 GLC5        0.0000 
     35 CA         36.9950   61.3650   67.4880 C.3       9 GLL5        0.0000 
     36 CA         35.6460   64.2230   64.3170 C.3       6 GLP5        0.0000 
     37 CA         35.2680   61.6380   66.9650 C.3       3 GLC5        0.0000 
     38 CA         33.5410   61.9110   66.4420 C.3       6 GLP5        0.0000 
     39 O          35.6490   68.6110   68.5325 O.2       1 ALC1        0.0000 
     40 O          35.5920   67.2990   67.7220 O.2       7 ALL1        0.0000 
     41 O          35.7060   69.9230   69.3430 O.2       4 ALP1        0.0000 
     42 CA         38.8300   67.9930   65.3445 C.3       3 GLC5        0.0000 
     43 CA         37.7330   67.8380   67.1900 C.3       9 GLL5        0.0000 
     44 CA         39.9270   68.1480   63.4990 C.3       6 GLP5        0.0000 
     45 N          37.3420   65.9475   70.7465 N.am      2 SEC2        0.0000 
     46 N          37.0280   65.8790   69.5080 N.am      8 SEL2        0.0000 
     47 N          37.6560   66.0160   71.9850 N.am      5 SEP2        0.0000 
     48 O          29.0505   63.9095   64.4850 O.2       1 ALC1        0.0000 
     49 O          28.3750   64.7660   65.7000 O.2       7 ALL1        0.0000 
     50 O          29.7260   63.0530   63.2700 O.2       4 ALP1        0.0000 
     51 CA         28.2655   66.7455   68.0075 C.3       3 GLC5        0.0000 
     52 CA         29.1240   65.1120   66.7960 C.3       9 GLL5        0.0000 
     53 CA         27.4070   68.3790   69.2190 C.3       6 GLP5        0.0000 
     54 CA         27.2765   65.3155   68.8940 C.3       3 GLC5        0.0000 
     55 CA         28.0100   63.4530   68.0610 C.3       9 GLL5        0.0000 
     56 CA         26.5430   67.1780   69.7270 C.3       6 GLP5        0.0000 
     57 CA         27.3845   63.4080   70.1160 C.3       3 GLC5        0.0000 
     58 CA         26.7590   63.3630   72.1710 C.3       6 GLP5        0.0000 
     59 CA         31.2455   63.3195   68.2610 C.3       3 GLC5        0.0000 
     60 CA         29.8870   64.3600   68.9170 C.3       9 GLL5        0.0000 
     61 CA         32.6040   62.2790   67.6050 C.3       6 GLP5        0.0000 
     62 CA         28.2150   65.7690   69.3220 C.3       3 GLC5        0.0000 
     63 CA         30.0560   62.7615   70.4180 C.3       3 GLC5        0.0000 
     64 CA         30.2250   61.1630   71.9190 C.3       6 GLP5        0.0000 
     65 N          31.6740   63.3070   65.0080 N.am      2 SEC2        0.0000 
     66 N          31.1860   64.7120   65.6100 N.am      8 SEL2        0.0000 
     67 N          32.1620   61.9020   64.4060 N.am      5 SEP2        0.0000 
     68 CA         28.2715   62.7415   62.8645 C.3       3 GLC5        0.0000 
     69 CA         26.6790   63.7740   62.0560 C.3       9 GLL5        0.0000 
     70 CA         29.8640   61.7090   63.6730 C.3       6 GLP5        0.0000 
     71 CA         24.2060   67.1855   64.5320 C.3       3 GLC5        0.0000 
     72 CA         25.7370   66.0080   63.4010 C.3       9 GLL5        0.0000 
     73 CA         22.6750   68.3630   65.6630 C.3       6 GLP5        0.0000 
     74 N          25.7780   67.4935   66.5285 N.am      2 SEC2        0.0000 
     75 N          26.9210   66.6410   65.9010 N.am      8 SEL2        0.0000 
     76 N          24.6350   68.3460   67.1560 N.am      5 SEP2        0.0000 
     77 N          28.4585   63.5745   63.2770 N.am      2 SEC2        0.0000 
     78 N          27.1910   64.0960   63.2840 N.am      8 SEL2        0.0000 
     79 N          29.7260   63.0530   63.2700 N.am      5 SEP2        0.0000 
     80 CA         30.1440   63.4285   62.5475 C.3       3 GLC5        0.0000 
     81 CA         27.4105   65.4480   58.7907 C.3       3 GLC5        0.0000 
     82 CA         29.4740   65.1140   59.7860 C.3       9 GLL5        0.0000 
     83 CA         25.6680   65.1420   57.7780 C.3       6 GLP5        0.0000 
     84 CA         33.7366   67.7246   64.9439 C.3       3 GLC5        0.0000 
     85 CA         31.5230   68.3100   64.9010 C.3       9 GLL5        0.0000 
     86 CA         35.2600   67.4690   63.7240 C.3       6 GLP5        0.0000 
     87 CA         36.8970   69.1997   66.6432 C.3       3 GLC5        0.0000 
     88 CA         36.7790   66.8010   67.3010 C.3       9 GLL5        0.0000 
     89 CA         36.5380   71.0800   66.0410 C.3       6 GLP5        0.0000 
     90 CA         36.2580   67.3942   65.4847 C.3       3 GLC5        0.0000 
     91 CA         30.1475   62.4415   67.9050 C.3       3 GLC5        0.0000 
     92 CA         29.2620   63.9910   67.7190 C.3       9 GLL5        0.0000 
     93 CA         31.6590   61.1610   67.9200 C.3       6 GLP5        0.0000 
     94 CA         25.5525   65.1340   59.7873 C.3       3 GLC5        0.0000 
     95 CA         25.6650   64.5790   61.4630 C.3       9 GLL5        0.0000 
@<TRIPOS>BOND
@<TRIPOS>SUBSTRUCTURE
     1 ALC1       22 GROUP        1 X    ALC  0     ROOT ALC X 1
     2 SEC2       16 GROUP        1 X    SEC  0     **** SEC X 2
     3 GLC5        1 GROUP        1 X    GLC  0     **** GLC X 6
     4 ALP1       24 GROUP        1 Y    ALP  0     ROOT ALP Y 8
     5 SEP2       18 GROUP        1 Y    SEP  0     **** SEP Y 9
     6 GLP5        3 GROUP        1 Y    GLP  0     **** GLP Y 13
     7 ALL1       23 GROUP        1 Z    ALL  0     ROOT ALL Z 15
     8 SEL2       17 GROUP        1 Z    SEL  0     **** SEL Z 16
     9 GLL5        2 GROUP        1 Z    GLL  0     **** GLL Z 20
@<TRIPOS>SET

