#    Name: 1w6h_TIT_2_ligand
#    Modification time : Tue Mar 25 08:41:21 2014

@<TRIPOS>MOLECULE
1w6h_TIT_2_ligand
   91    92     1     0     0
SMALL
NO_CHARGES


@<TRIPOS>ATOM
      1 C22        29.8820   66.8650   62.0240 C.ar      1 TIT1330     0.0000 
      2 C23        30.5270   65.5830   61.9800 C.ar      1 TIT1330     0.0000 
      3 C24        30.3210   64.7130   60.8640 C.ar      1 TIT1330     0.0000 
      4 C25        29.4740   65.1140   59.7860 C.ar      1 TIT1330     0.0000 
      5 C26        28.8320   66.3940   59.8210 C.ar      1 TIT1330     0.0000 
      6 C27        29.0410   67.2610   60.9390 C.ar      1 TIT1330     0.0000 
      7 C21        30.0070   67.7180   63.1420 C.3       1 TIT1330     0.0000 
      8 C20        31.5230   68.3100   64.9010 C.3       1 TIT1330     0.0000 
      9 O07        31.2570   67.6300   63.7380 O.3       1 TIT1330     0.0000 
     10 BR         29.2530   64.1950   58.6120 Br        1 TIT1330     0.0000 
     11 C08        31.8860   67.4110   65.9440 C.3       1 TIT1330     0.0000 
     12 C07        32.7220   68.1000   66.9050 C.3       1 TIT1330     0.0000 
     13 C06        33.2040   67.2530   67.9500 C.3       1 TIT1330     0.0000 
     14 C05        34.4160   66.6320   67.5870 C.2       1 TIT1330     0.0000 
     15 O03        34.3750   65.3990   67.0150 O.2       1 TIT1330     0.0000 
     16 O04        32.0510   69.1530   67.4770 O.3       1 TIT1330     0.0000 
     17 N01        40.7580   64.9770   67.6780 N.am      1 TIT1330     0.0000 
     18 N04        30.7470   66.8750   66.4800 N.am      1 TIT1330     0.0000 
     19 N02        38.1010   64.9040   67.6690 N.am      1 TIT1330     0.0000 
     20 C02        38.7270   63.9930   68.4440 C.3       1 TIT1330     0.0000 
     21 C29        38.7520   62.7650   67.7940 C.3       1 TIT1330     0.0000 
     22 C30        37.8790   61.8900   68.4280 C.3       1 TIT1330     0.0000 
     23 C31        38.5930   60.8500   69.0350 C.3       1 TIT1330     0.0000 
     24 C32        36.9950   61.3650   67.4880 C.3       1 TIT1330     0.0000 
     25 C01        40.0370   64.4380   68.6760 C.2       1 TIT1330     0.0000 
     26 O01        40.5790   64.3280   69.9300 O.2       1 TIT1330     0.0000 
     27 N03        35.5920   67.2990   67.7220 N.am      1 TIT1330     0.0000 
     28 C04        36.7790   66.8010   67.3010 C.3       1 TIT1330     0.0000 
     29 C28        37.7330   67.8380   67.1900 C.3       1 TIT1330     0.0000 
     30 C03        37.2900   65.8310   68.1690 C.2       1 TIT1330     0.0000 
     31 O02        37.0280   65.8790   69.5080 O.2       1 TIT1330     0.0000 
     32 N05        28.3750   64.7660   65.7000 N.am      1 TIT1330     0.0000 
     33 C10        29.1240   65.1120   66.7960 C.3       1 TIT1330     0.0000 
     34 C17        29.2620   63.9910   67.7190 C.3       1 TIT1330     0.0000 
     35 C18        28.0100   63.4530   68.0610 C.3       1 TIT1330     0.0000 
     36 C19        29.8870   64.3600   68.9170 C.3       1 TIT1330     0.0000 
     37 C09        30.3860   65.5680   66.3110 C.2       1 TIT1330     0.0000 
     38 O05        31.1860   64.7120   65.6100 O.2       1 TIT1330     0.0000 
     39 C12        26.7530   65.1860   63.9740 C.ar      1 TIT1330     0.0000 
     40 C16        26.6790   63.7740   62.0560 C.ar      1 TIT1330     0.0000 
     41 C15        25.6650   64.5790   61.4630 C.ar      1 TIT1330     0.0000 
     42 C13        25.7370   66.0080   63.4010 C.ar      1 TIT1330     0.0000 
     43 C14        25.2090   65.6730   62.1300 C.ar      1 TIT1330     0.0000 
     44 C11        27.3100   65.4930   65.2460 C.2       1 TIT1330     0.0000 
     45 O06        26.9210   66.6410   65.9010 O.2       1 TIT1330     0.0000 
     46 N06        27.1910   64.0960   63.2840 N.ar      1 TIT1330     0.0000 
     47 H          31.1304   65.2958   62.7444 H         1 TIT1330     0.0000 
     48 H          30.7796   63.8055   60.8384 H         1 TIT1330     0.0000 
     49 H          28.2332   66.6827   59.0573 H         1 TIT1330     0.0000 
     50 H          28.5836   68.1734   60.9615 H         1 TIT1330     0.0000 
     51 H          29.1983   67.4826   63.8867 H         1 TIT1330     0.0000 
     52 H          29.7920   68.7772   62.8325 H         1 TIT1330     0.0000 
     53 H          30.6412   68.9156   65.2275 H         1 TIT1330     0.0000 
     54 H          32.3436   69.0561   64.7561 H         1 TIT1330     0.0000 
     55 H          32.5028   66.6041   65.4798 H         1 TIT1330     0.0000 
     56 H          33.6119   68.4985   66.3557 H         1 TIT1330     0.0000 
     57 H          32.4327   66.4866   68.1972 H         1 TIT1330     0.0000 
     58 H          33.3358   67.8478   68.8839 H         1 TIT1330     0.0000 
     59 H          40.3158   65.0059   66.7816 H         1 TIT1330     0.0000 
     60 H          41.6723   65.3010   67.9210 H         1 TIT1330     0.0000 
     61 H          30.1166   67.5026   67.0521 H         1 TIT1330     0.0000 
     62 H          38.2687   64.8715   66.6204 H         1 TIT1330     0.0000 
     63 H          38.2116   63.8890   69.4082 H         1 TIT1330     0.0000 
     64 H          39.7854   62.3485   67.7862 H         1 TIT1330     0.0000 
     65 H          38.4743   62.8853   66.7217 H         1 TIT1330     0.0000 
     66 H          37.3083   62.4345   69.1966 H         1 TIT1330     0.0000 
     67 H          35.5778   68.2566   68.1798 H         1 TIT1330     0.0000 
     68 H          36.6683   66.3430   66.2915 H         1 TIT1330     0.0000 
     69 H          28.6394   63.8816   65.1750 H         1 TIT1330     0.0000 
     70 H          28.6379   65.9454   67.3325 H         1 TIT1330     0.0000 
     71 H          29.8618   63.2058   67.2257 H         1 TIT1330     0.0000 
     72 H          27.0132   62.9490   61.5380 H         1 TIT1330     0.0000 
     73 H          25.3022   64.3128   60.5440 H         1 TIT1330     0.0000 
     74 H          25.4000   66.8215   63.9017 H         1 TIT1330     0.0000 
     75 H          24.4753   66.2780   61.7295 H         1 TIT1330     0.0000 
     76 H          39.1226   60.3249   68.3688 H         1 TIT1330     0.0000 
     77 H          39.2381   61.1918   69.7184 H         1 TIT1330     0.0000 
     78 H          37.9866   60.2056   69.5009 H         1 TIT1330     0.0000 
     79 H          37.4741   60.8667   66.7654 H         1 TIT1330     0.0000 
     80 H          36.3466   60.7272   67.9036 H         1 TIT1330     0.0000 
     81 H          36.4573   62.0813   67.0432 H         1 TIT1330     0.0000 
     82 H          38.6201   67.4950   66.8810 H         1 TIT1330     0.0000 
     83 H          37.4458   68.5385   66.5366 H         1 TIT1330     0.0000 
     84 H          37.8851   68.2979   68.0648 H         1 TIT1330     0.0000 
     85 H          28.0968   62.6825   68.6925 H         1 TIT1330     0.0000 
     86 H          27.4231   64.1306   68.5042 H         1 TIT1330     0.0000 
     87 H          27.5172   63.1192   67.2574 H         1 TIT1330     0.0000 
     88 H          30.8083   64.7162   68.7609 H         1 TIT1330     0.0000 
     89 H          29.3755   65.0714   69.3990 H         1 TIT1330     0.0000 
     90 H          29.9744   63.5859   69.5441 H         1 TIT1330     0.0000 
     91 H          31.7711   68.8224   68.3783 H         1 TIT1330     0.0000 
@<TRIPOS>BOND
     1    2    1 ar   
     2    6    1 ar   
     3    7    1 1    
     4    3    2 ar   
     5   47    2 1    
     6    4    3 ar   
     7   48    3 1    
     8    5    4 ar   
     9   10    4 1    
    10    6    5 ar   
    11   49    5 1    
    12   50    6 1    
    13    9    7 1    
    14   51    7 1    
    15   52    7 1    
    16    9    8 1    
    17   11    8 1    
    18   53    8 1    
    19   54    8 1    
    20   12   11 1    
    21   18   11 1    
    22   55   11 1    
    23   13   12 1    
    24   16   12 1    
    25   56   12 1    
    26   14   13 1    
    27   57   13 1    
    28   58   13 1    
    29   15   14 2    
    30   27   14 am   
    31   91   16 1    
    32   25   17 am   
    33   59   17 1    
    34   60   17 1    
    35   37   18 am   
    36   61   18 1    
    37   20   19 1    
    38   30   19 am   
    39   62   19 1    
    40   21   20 1    
    41   25   20 1    
    42   63   20 1    
    43   22   21 1    
    44   64   21 1    
    45   65   21 1    
    46   23   22 1    
    47   24   22 1    
    48   66   22 1    
    49   76   23 1    
    50   77   23 1    
    51   78   23 1    
    52   79   24 1    
    53   80   24 1    
    54   81   24 1    
    55   26   25 2    
    56   28   27 1    
    57   67   27 1    
    58   29   28 1    
    59   30   28 1    
    60   68   28 1    
    61   82   29 1    
    62   83   29 1    
    63   84   29 1    
    64   31   30 2    
    65   33   32 1    
    66   44   32 am   
    67   69   32 1    
    68   34   33 1    
    69   37   33 1    
    70   70   33 1    
    71   35   34 1    
    72   36   34 1    
    73   71   34 1    
    74   85   35 1    
    75   86   35 1    
    76   87   35 1    
    77   88   36 1    
    78   89   36 1    
    79   90   36 1    
    80   38   37 2    
    81   42   39 ar   
    82   44   39 1    
    83   46   39 ar   
    84   41   40 ar   
    85   46   40 ar   
    86   72   40 1    
    87   43   41 ar   
    88   73   41 1    
    89   43   42 ar   
    90   74   42 1    
    91   75   43 1    
    92   45   44 2    
@<TRIPOS>SUBSTRUCTURE
     1 TIT1330     1 GROUP   
@<TRIPOS>SET

