#    Name: 3ox3_4X4_1_INTS_M
#    Modification time : Tue Mar 25 05:33:22 2014

@<TRIPOS>MOLECULE
3ox3_4X4_1_INTS_M
   43     0     3     0     0
SMALL
NO_CHARGES


@<TRIPOS>ATOM
      1 CA         24.2310  -14.2585  -16.5565 C.3       1 GLC5        0.0000 
      2 CA         24.7060  -14.6160  -14.7750 C.3       3 GLL5        0.0000 
      3 CA         23.7560  -13.9010  -18.3380 C.3       2 GLP5        0.0000 
      4 CA         22.7650  -14.3275  -15.5245 C.3       1 GLC5        0.0000 
      5 CA         23.8120  -13.9770  -13.9080 C.3       3 GLL5        0.0000 
      6 CA         21.7180  -14.6780  -17.1410 C.3       2 GLP5        0.0000 
      7 CA         23.0635  -10.7185  -13.9990 C.3       1 GLC5        0.0000 
      8 CA         24.0270  -12.6690  -13.4940 C.3       3 GLL5        0.0000 
      9 CA         22.1000   -8.7680  -14.5040 C.3       2 GLP5        0.0000 
     10 CA         27.1530  -10.8855  -15.4235 C.3       1 GLC5        0.0000 
     11 CA         26.0460  -12.7370  -14.8710 C.3       3 GLL5        0.0000 
     12 CA         28.2600   -9.0340  -15.9760 C.3       2 GLP5        0.0000 
     13 CA         22.9675  -17.1965  -12.4770 C.3       1 GLC5        0.0000 
     14 CA         22.9750  -16.0200  -14.2200 C.3       3 GLL5        0.0000 
     15 CA         22.9600  -18.3730  -10.7340 C.3       2 GLP5        0.0000 
     16 CA         22.1175  -16.0035  -11.3870 C.3       1 GLC5        0.0000 
     17 CA         21.5830  -14.7950  -12.7750 C.3       3 GLL5        0.0000 
     18 CA         22.6520  -17.2120   -9.9990 C.3       2 GLP5        0.0000 
     19 CA         20.6240  -14.5175  -11.3610 C.3       1 GLC5        0.0000 
     20 CA         19.6650  -14.2400   -9.9470 C.3       2 GLP5        0.0000 
     21 CA         21.5365  -13.5385  -14.2680 C.3       1 GLC5        0.0000 
     22 CA         21.4900  -12.2820  -15.7610 C.3       2 GLP5        0.0000 
     23 CA         19.6265  -17.4535  -10.5395 C.3       1 GLC5        0.0000 
     24 CA         19.9780  -16.7840  -12.5760 C.3       3 GLL5        0.0000 
     25 CA         19.2750  -18.1230   -8.5030 C.3       2 GLP5        0.0000 
     26 CA         24.5355  -17.3515  -17.7805 C.3       1 GLC5        0.0000 
     27 CA         24.6210  -17.2140  -15.8220 C.3       3 GLL5        0.0000 
     28 CA         24.4500  -17.4890  -19.7390 C.3       2 GLP5        0.0000 
     29 CA         28.2755  -10.5265  -15.2100 C.3       1 GLC5        0.0000 
     30 CA         28.2910  -12.0190  -14.4440 C.3       3 GLL5        0.0000 
     31 CA         28.5350  -12.2165  -12.4790 C.3       1 GLC5        0.0000 
     32 CA         28.7790  -12.4140  -10.5140 C.3       2 GLP5        0.0000 
     33 CA         24.9967  -10.7797  -15.4383 C.3       1 GLC5        0.0000 
     34 CA         24.3810   -9.1660  -16.4460 C.3       2 GLP5        0.0000 
     35 CA         21.6285  -15.6008  -15.3175 C.3       1 GLC5        0.0000 
     36 CA         21.9570  -16.8760  -13.9220 C.3       3 GLL5        0.0000 
     37 CA         22.9106  -15.6449  -16.1832 C.3       1 GLC5        0.0000 
     38 CA         24.1960  -15.9990  -15.0380 C.3       3 GLL5        0.0000 
     39 CA         27.0757  -23.2045  -17.0549 C.3       1 GLC5        0.0000 
     40 CA         29.2150  -22.3030  -16.8580 C.3       3 GLL5        0.0000 
     41 CA         25.6510  -24.5170  -17.5150 C.3       2 GLP5        0.0000 
     42 CA         28.5905  -21.7000  -18.5974 C.3       1 GLC5        0.0000 
     43 CA         28.6040  -21.7990  -20.4270 C.3       2 GLP5        0.0000 
@<TRIPOS>BOND
@<TRIPOS>SUBSTRUCTURE
     1 GLC5        1 GROUP        1 X    GLC  0     ROOT GLC X 6
     2 GLP5        3 GROUP        1 Y    GLP  0     ROOT GLP Y 13
     3 GLL5        2 GROUP        1 Z    GLL  0     ROOT GLL Z 20
@<TRIPOS>SET

