#    Name: 3ox3_4X4_1_ligand
#    Modification time : Tue Mar 25 05:33:22 2014

@<TRIPOS>MOLECULE
3ox3_4X4_1_ligand
   46    50     1     0     0
SMALL
NO_CHARGES


@<TRIPOS>ATOM
      1 N1         25.8110  -14.0190  -15.2630 N.pl3     1 4X4233      0.0000 
      2 O1         28.4240  -20.1730  -17.3020 O.3       1 4X4233      0.0000 
      3 C2         24.7060  -14.6160  -14.7750 C.2       1 4X4233      0.0000 
      4 N2         22.7740  -14.8300  -13.5970 N.pl3     1 4X4233      0.0000 
      5 O2         25.2730  -20.6100  -15.9420 O.2       1 4X4233      0.0000 
      6 C3         23.8120  -13.9770  -13.9080 C.2       1 4X4233      0.0000 
      7 N3         21.7390  -18.1500  -14.3260 N.ar      1 4X4233      0.0000 
      8 O3         27.1820  -12.1360  -15.3480 O.3       1 4X4233      0.0000 
      9 C4         24.0270  -12.6690  -13.4940 C.2       1 4X4233      0.0000 
     10 N4         26.5230  -18.7590  -15.7910 N.am      1 4X4233      0.0000 
     11 C5         25.1790  -12.0500  -13.9900 C.2       1 4X4233      0.0000 
     12 C6         26.0460  -12.7370  -14.8710 C.2       1 4X4233      0.0000 
     13 C7         24.1960  -15.9990  -15.0380 C.2       1 4X4233      0.0000 
     14 C8         22.9750  -16.0200  -14.2200 C.2       1 4X4233      0.0000 
     15 C10        21.5830  -14.7950  -12.7750 C.2       1 4X4233      0.0000 
     16 C11        21.1210  -16.1710  -13.0660 C.ar      1 4X4233      0.0000 
     17 C12        21.9570  -16.8760  -13.9220 C.ar      1 4X4233      0.0000 
     18 C14        20.6410  -18.7610  -13.8510 C.ar      1 4X4233      0.0000 
     19 C15        19.7530  -18.1030  -12.9820 C.ar      1 4X4233      0.0000 
     20 C16        19.9780  -16.7840  -12.5760 C.ar      1 4X4233      0.0000 
     21 C17        24.6210  -17.2140  -15.8220 C.3       1 4X4233      0.0000 
     22 C18        25.6160  -17.9890  -14.9610 C.3       1 4X4233      0.0000 
     23 C20        26.3580  -20.0570  -16.0510 C.2       1 4X4233      0.0000 
     24 C21        27.5590  -20.8390  -16.4750 C.2       1 4X4233      0.0000 
     25 C22        28.0130  -22.1230  -16.1880 C.2       1 4X4233      0.0000 
     26 C23        29.2150  -22.3030  -16.8580 C.2       1 4X4233      0.0000 
     27 C24        29.5210  -21.1390  -17.5500 C.2       1 4X4233      0.0000 
     28 C28        28.2910  -12.0190  -14.4440 C.3       1 4X4233      0.0000 
     29 H          26.4474  -14.5009  -15.8985 H         1 4X4233      0.0000 
     30 H          23.3989  -12.1940  -12.8784 H         1 4X4233      0.0000 
     31 H          27.3385  -18.2225  -16.1861 H         1 4X4233      0.0000 
     32 H          25.4039  -11.0851  -13.7151 H         1 4X4233      0.0000 
     33 H          21.2434  -14.1973  -12.2827 H         1 4X4233      0.0000 
     34 H          20.4182  -19.7458  -14.1169 H         1 4X4233      0.0000 
     35 H          18.9186  -18.6069  -12.6384 H         1 4X4233      0.0000 
     36 H          19.3414  -16.3103  -11.9613 H         1 4X4233      0.0000 
     37 H          25.1022  -16.9134  -16.7375 H         1 4X4233      0.0000 
     38 H          23.7677  -17.8382  -16.0277 H         1 4X4233      0.0000 
     39 H          26.1635  -17.2674  -14.3414 H         1 4X4233      0.0000 
     40 H          25.0463  -18.6417  -14.2873 H         1 4X4233      0.0000 
     41 H          27.5796  -22.7558  -15.6365 H         1 4X4233      0.0000 
     42 H          29.7441  -23.0959  -16.8453 H         1 4X4233      0.0000 
     43 H          30.2563  -20.9480  -18.0806 H         1 4X4233      0.0000 
     44 H          28.6074  -12.9130  -14.1267 H         1 4X4233      0.0000 
     45 H          29.0731  -11.5664  -14.8723 H         1 4X4233      0.0000 
     46 H          28.0532  -11.4868  -13.6314 H         1 4X4233      0.0000 
@<TRIPOS>BOND
     1    3    1 1    
     2   12    1 1    
     3   29    1 1    
     4   24    2 1    
     5   27    2 1    
     6    6    3 1    
     7   13    3 2    
     8    6    4 1    
     9   14    4 1    
    10   15    4 1    
    11   23    5 2    
    12    9    6 2    
    13   17    7 ar   
    14   18    7 ar   
    15   12    8 1    
    16   28    8 1    
    17   11    9 1    
    18   30    9 1    
    19   22   10 1    
    20   23   10 am   
    21   31   10 1    
    22   12   11 2    
    23   32   11 1    
    24   14   13 1    
    25   21   13 1    
    26   17   14 2    
    27   16   15 2    
    28   33   15 1    
    29   17   16 ar   
    30   20   16 ar   
    31   19   18 ar   
    32   34   18 1    
    33   20   19 ar   
    34   35   19 1    
    35   36   20 1    
    36   22   21 1    
    37   37   21 1    
    38   38   21 1    
    39   39   22 1    
    40   40   22 1    
    41   24   23 1    
    42   25   24 2    
    43   26   25 1    
    44   41   25 1    
    45   27   26 2    
    46   42   26 1    
    47   43   27 1    
    48   44   28 1    
    49   45   28 1    
    50   46   28 1    
@<TRIPOS>SUBSTRUCTURE
     1 4X4233      1 GROUP   
@<TRIPOS>SET

