#    Name: 3rp8_FAD_1_INTS_M
#    Modification time : Mon Apr  7 20:34:36 2014

@<TRIPOS>MOLECULE
3rp8_FAD_1_INTS_M
   96     0     9     0     0
SMALL
NO_CHARGES


@<TRIPOS>ATOM
      1 CA          7.4130   22.0570    1.5570 C.3       3 GLC5        0.0000 
      2 CA          7.6280   22.6860    3.3430 C.3       9 GLL5        0.0000 
      3 CA          7.1980   21.4280   -0.2290 C.3       6 GLP5        0.0000 
      4 CA          7.8370   21.0740    5.7530 C.3       3 GLC5        0.0000 
      5 CA          8.5020   22.4350    4.5620 C.3       9 GLL5        0.0000 
      6 CA          7.1720   19.7130    6.9440 C.3       6 GLP5        0.0000 
      7 O           9.8375   23.0990    6.9190 O.2       1 ALC1        0.0000 
      8 O           9.7400   24.0180    5.8630 O.2       7 ALL1        0.0000 
      9 O           9.9350   22.1800    7.9750 O.2       4 ALP1        0.0000 
     10 O          10.9125   23.1645    6.6725 O.2       1 ALC1        0.0000 
     11 O          12.0850   22.3110    7.4820 O.2       4 ALP1        0.0000 
     12 O          12.0355   22.6555    6.2815 O.2       1 ALC1        0.0000 
     13 O          11.9860   23.0000    5.0810 O.2       7 ALL1        0.0000 
     14 CA          8.8095   20.4590    5.8485 C.3       3 GLC5        0.0000 
     15 CA         10.4470   21.2050    4.7530 C.3       9 GLL5        0.0000 
     16 CA         10.4150   16.1195    4.8915 C.3       3 GLC5        0.0000 
     17 CA         12.2070   16.7780    3.9010 C.3       9 GLL5        0.0000 
     18 CA          8.6230   15.4610    5.8820 C.3       6 GLP5        0.0000 
     19 CA         14.1880   16.3910    4.2350 C.3       3 GLC5        0.0000 
     20 CA         16.1690   16.0040    4.5690 C.3       6 GLP5        0.0000 
     21 CA         11.5420   14.9600    4.0745 C.3       3 GLC5        0.0000 
     22 CA         10.8770   13.1420    4.2480 C.3       6 GLP5        0.0000 
     23 O          13.2130   14.4680    3.1175 O.2       1 ALC1        0.0000 
     24 O          12.7780   15.9500    3.0060 O.2       7 ALL1        0.0000 
     25 O          13.6480   12.9860    3.2290 O.2       4 ALP1        0.0000 
     26 N          12.7105   15.0965    5.5515 N.am      2 SEC2        0.0000 
     27 N          11.9960   16.3490    5.1890 N.am      8 SEL2        0.0000 
     28 N          13.4250   13.8440    5.9140 N.am      5 SEP2        0.0000 
     29 CA         10.0410   16.3160    6.0155 C.3       3 GLC5        0.0000 
     30 CA         11.4590   17.1710    6.1490 C.3       9 GLL5        0.0000 
     31 CA         11.2515   18.3445    7.9735 C.3       3 GLC5        0.0000 
     32 CA         11.0440   19.5180    9.7980 C.3       6 GLP5        0.0000 
     33 CA         12.9425   18.1460    6.2190 C.3       3 GLC5        0.0000 
     34 CA         14.4260   19.1210    6.2890 C.3       6 GLP5        0.0000 
     35 CA         13.2605   16.2755    6.4790 C.3       3 GLC5        0.0000 
     36 CA         15.0620   15.3800    6.8090 C.3       6 GLP5        0.0000 
     37 CA         11.1680   15.1565    5.1985 C.3       3 GLC5        0.0000 
     38 N          12.0080   18.9305    7.0205 N.am      2 SEC2        0.0000 
     39 N          11.1110   18.4620    5.8270 N.am      8 SEL2        0.0000 
     40 N          12.9050   19.3990    8.2140 N.am      5 SEP2        0.0000 
     41 N          -0.1385   30.5255   -1.1300 N.am      2 SEC2        0.0000 
     42 N           0.2650   31.8620   -1.5080 N.am      8 SEL2        0.0000 
     43 N          -0.5420   29.1890   -0.7520 N.am      5 SEP2        0.0000 
     44 N          -2.4585   30.7605   -0.1440 N.am      2 SEC2        0.0000 
     45 N          -1.8330   31.9520   -0.6770 N.am      8 SEL2        0.0000 
     46 N          -3.0840   29.5690    0.3890 N.am      5 SEP2        0.0000 
     47 O          -1.9920   34.7800   -0.8385 O.2       1 ALC1        0.0000 
     48 O          -0.9680   33.9150   -1.4440 O.2       7 ALL1        0.0000 
     49 O          -3.0160   35.6450   -0.2330 O.2       4 ALP1        0.0000 
     50 N          -0.2120   36.4100   -0.9850 N.am      2 SEC2        0.0000 
     51 N           0.0460   35.7800   -2.2470 N.am      8 SEL2        0.0000 
     52 N          -0.4700   37.0400    0.2770 N.am      5 SEP2        0.0000 
     53 CA          5.5005   34.0690   -6.2350 C.3       3 GLC5        0.0000 
     54 CA          6.8340   34.5260   -4.7570 C.3       9 GLL5        0.0000 
     55 CA          4.1670   33.6120   -7.7130 C.3       6 GLP5        0.0000 
     56 CA          2.8880   31.9920    0.0315 C.3       3 GLC5        0.0000 
     57 CA          2.9010   29.9030   -0.7140 C.3       9 GLL5        0.0000 
     58 CA          2.8750   34.0810    0.7770 C.3       6 GLP5        0.0000 
     59 O           2.5030   26.4770   -1.9765 O.2       1 ALC1        0.0000 
     60 O           2.1740   27.7330   -1.5260 O.2       7 ALL1        0.0000 
     61 O           2.8320   25.2210   -2.4270 O.2       4 ALP1        0.0000 
     62 CA          2.3255   28.8135    2.4600 C.3       3 GLC5        0.0000 
     63 CA          3.0240   27.8240    0.7050 C.3       9 GLL5        0.0000 
     64 CA          1.6270   29.8030    4.2150 C.3       6 GLP5        0.0000 
     65 CA          3.8300   24.8535   -0.8135 C.3       3 GLC5        0.0000 
     66 CA          3.2990   26.3370    0.6450 C.3       9 GLL5        0.0000 
     67 CA          4.3610   23.3700   -2.2720 C.3       6 GLP5        0.0000 
     68 N           2.7770   22.9000    0.1100 N.am      2 SEC2        0.0000 
     69 N           3.1960   23.3860    1.3980 N.am      8 SEL2        0.0000 
     70 N           2.3580   22.4140   -1.1780 N.am      5 SEP2        0.0000 
     71 N           3.5470   22.0575    1.2280 N.am      2 SEC2        0.0000 
     72 N           3.8980   20.7290    1.0580 N.am      5 SEP2        0.0000 
     73 N           2.7975   24.1825    4.4475 N.am      2 SEC2        0.0000 
     74 N           3.9630   24.0590    3.6850 N.am      8 SEL2        0.0000 
     75 N           1.6320   24.3060    5.2100 N.am      5 SEP2        0.0000 
     76 CA          7.7525   20.6257    3.1768 C.3       3 GLC5        0.0000 
     77 CA          7.4400   18.6910    2.4010 C.3       6 GLP5        0.0000 
     78 CA         13.0485   18.6432    5.2212 C.3       3 GLC5        0.0000 
     79 CA         11.8490   18.0860    3.5810 C.3       9 GLL5        0.0000 
     80 CA          9.9905   17.7862    3.3207 C.3       3 GLC5        0.0000 
     81 CA         11.3140   18.8990    4.5660 C.3       9 GLL5        0.0000 
     82 CA          8.3100   17.4070    2.4880 C.3       6 GLP5        0.0000 
     83 CA          3.1835   33.6172   -1.1593 C.3       3 GLC5        0.0000 
     84 CA          3.5360   32.4680   -2.9620 C.3       9 GLL5        0.0000 
     85 CA          3.5438   33.8045   -5.1122 C.3       3 GLC5        0.0000 
     86 CA          3.4480   33.8390   -3.2290 C.3       9 GLL5        0.0000 
     87 CA          3.1060   33.4270   -6.7070 C.3       6 GLP5        0.0000 
     88 CA          4.4080   33.2808   -5.3537 C.3       3 GLC5        0.0000 
     89 CA          5.6690   33.8190   -4.1270 C.3       9 GLL5        0.0000 
     90 CA          3.6098   32.7738   -4.9150 C.3       3 GLC5        0.0000 
     91 CA          4.6910   31.7730   -3.2840 C.3       9 GLL5        0.0000 
     92 CA          1.1500   28.8582   -2.0679 C.3       3 GLC5        0.0000 
     93 CA          3.1320   28.3950   -0.7040 C.3       9 GLL5        0.0000 
     94 CA         -0.6300   28.4640   -3.0700 C.3       6 GLP5        0.0000 
     95 CA          1.1456   28.7687    0.3395 C.3       3 GLC5        0.0000 
     96 CA         -0.7290   29.0510    0.6810 C.3       6 GLP5        0.0000 
@<TRIPOS>BOND
@<TRIPOS>SUBSTRUCTURE
     1 ALC1        7 GROUP        1 X    ALC  0     ROOT ALC X 1
     2 SEC2       26 GROUP        1 X    SEC  0     **** SEC X 2
     3 GLC5        1 GROUP        1 X    GLC  0     **** GLC X 6
     4 ALP1        9 GROUP        1 Y    ALP  0     ROOT ALP Y 8
     5 SEP2       28 GROUP        1 Y    SEP  0     **** SEP Y 9
     6 GLP5        3 GROUP        1 Y    GLP  0     **** GLP Y 13
     7 ALL1        8 GROUP        1 Z    ALL  0     ROOT ALL Z 15
     8 SEL2       27 GROUP        1 Z    SEL  0     **** SEL Z 16
     9 GLL5        2 GROUP        1 Z    GLL  0     **** GLL Z 20
@<TRIPOS>SET

