#    Name: 3rp8_FAD_1_ligand
#    Modification time : Mon Apr  7 20:34:36 2014

@<TRIPOS>MOLECULE
3rp8_FAD_1_ligand
   84    89     1     0     0
SMALL
NO_CHARGES


@<TRIPOS>ATOM
      1 PA          6.7800   24.9630    2.2860 P.3       1 FAD385      0.0000 
      2 O1A         7.8140   24.9680    1.2090 O.co2     1 FAD385      0.0000 
      3 O2A         6.4940   26.3190    2.8450 O.co2     1 FAD385      0.0000 
      4 O5B         7.0890   23.9690    3.5140 O.3       1 FAD385      0.0000 
      5 C5B         7.6280   22.6860    3.3430 C.3       1 FAD385      0.0000 
      6 C4B         8.5020   22.4350    4.5620 C.3       1 FAD385      0.0000 
      7 O4B         9.0660   21.1460    4.4610 O.3       1 FAD385      0.0000 
      8 C3B         9.6650   23.4230    4.5860 C.3       1 FAD385      0.0000 
      9 O3B         9.7400   24.0180    5.8630 O.3       1 FAD385      0.0000 
     10 C2B        10.8960   22.5760    4.3010 C.3       1 FAD385      0.0000 
     11 O2B        11.9860   23.0000    5.0810 O.3       1 FAD385      0.0000 
     12 C1B        10.4470   21.2050    4.7530 C.3       1 FAD385      0.0000 
     13 N9A        11.0660   20.1050    4.0080 N.pl3     1 FAD385      0.0000 
     14 C8A        11.4280   20.0540    2.6850 C.2       1 FAD385      0.0000 
     15 N7A        11.9120   18.8130    2.4440 N.2       1 FAD385      0.0000 
     16 C5A        11.8490   18.0860    3.5810 C.ar      1 FAD385      0.0000 
     17 C6A        12.2070   16.7780    3.9010 C.ar      1 FAD385      0.0000 
     18 N6A        12.7780   15.9500    3.0060 N.pl3     1 FAD385      0.0000 
     19 N1A        11.9960   16.3490    5.1890 N.ar      1 FAD385      0.0000 
     20 C2A        11.4590   17.1710    6.1490 C.ar      1 FAD385      0.0000 
     21 N3A        11.1110   18.4620    5.8270 N.ar      1 FAD385      0.0000 
     22 C4A        11.3140   18.8990    4.5660 C.ar      1 FAD385      0.0000 
     23 N1          0.2650   31.8620   -1.5080 N.2       1 FAD385      0.0000 
     24 C2         -0.8780   32.5570   -1.1830 C.2       1 FAD385      0.0000 
     25 O2         -1.8330   31.9520   -0.6770 O.2       1 FAD385      0.0000 
     26 N3         -0.9680   33.9150   -1.4440 N.am      1 FAD385      0.0000 
     27 C4          0.1050   34.5750   -2.0150 C.2       1 FAD385      0.0000 
     28 O4          0.0460   35.7800   -2.2470 O.2       1 FAD385      0.0000 
     29 C4X         1.2540   33.8720   -2.3290 C.2       1 FAD385      0.0000 
     30 N5          2.3050   34.5280   -2.9120 N.2       1 FAD385      0.0000 
     31 C5X         3.4480   33.8390   -3.2290 C.ar      1 FAD385      0.0000 
     32 C6          4.5150   34.5250   -3.8060 C.ar      1 FAD385      0.0000 
     33 C7          5.6690   33.8190   -4.1270 C.ar      1 FAD385      0.0000 
     34 C7M         6.8340   34.5260   -4.7570 C.3       1 FAD385      0.0000 
     35 C8          5.7510   32.4500   -3.8740 C.ar      1 FAD385      0.0000 
     36 C8M         7.0050   31.6990   -4.2210 C.3       1 FAD385      0.0000 
     37 C9          4.6910   31.7730   -3.2840 C.ar      1 FAD385      0.0000 
     38 C9A         3.5360   32.4680   -2.9620 C.ar      1 FAD385      0.0000 
     39 N10         2.4780   31.8040   -2.3810 N.pl3     1 FAD385      0.0000 
     40 C10         1.3320   32.5050   -2.0780 C.2       1 FAD385      0.0000 
     41 C1'         2.5550   30.3170   -2.1410 C.3       1 FAD385      0.0000 
     42 C2'         2.9010   29.9030   -0.7140 C.3       1 FAD385      0.0000 
     43 O2'         4.0850   30.5460   -0.3110 O.3       1 FAD385      0.0000 
     44 C3'         3.1320   28.3950   -0.7040 C.3       1 FAD385      0.0000 
     45 O3'         2.1740   27.7330   -1.5260 O.3       1 FAD385      0.0000 
     46 C4'         3.0240   27.8240    0.7050 C.3       1 FAD385      0.0000 
     47 O4'         3.9730   28.4180    1.5580 O.3       1 FAD385      0.0000 
     48 C5'         3.2990   26.3370    0.6450 C.3       1 FAD385      0.0000 
     49 O5'         3.3900   25.8420    1.9640 O.3       1 FAD385      0.0000 
     50 P           3.9820   24.3770    2.2090 P.3       1 FAD385      0.0000 
     51 O1P         3.1960   23.3860    1.3980 O.co2     1 FAD385      0.0000 
     52 O2P         3.9630   24.0590    3.6850 O.co2     1 FAD385      0.0000 
     53 O3P         5.4680   24.3330    1.5950 O.3       1 FAD385      0.0000 
     54 H           8.2563   22.6096    2.4618 H         1 FAD385      0.0000 
     55 H           6.8677   21.9126    3.3139 H         1 FAD385      0.0000 
     56 H           7.9282   22.5579    5.4439 H         1 FAD385      0.0000 
     57 H           9.5313   24.1115    3.7954 H         1 FAD385      0.0000 
     58 H          11.0633   22.5561    3.2685 H         1 FAD385      0.0000 
     59 H          10.6141   21.1040    5.7978 H         1 FAD385      0.0000 
     60 H          11.3485   20.7692    2.0584 H         1 FAD385      0.0000 
     61 H          12.9916   15.0292    3.3323 H         1 FAD385      0.0000 
     62 H          12.9376   16.3296    2.0948 H         1 FAD385      0.0000 
     63 H          11.3165   16.8218    7.1101 H         1 FAD385      0.0000 
     64 H          -1.8285   34.4282   -1.2139 H         1 FAD385      0.0000 
     65 H           4.4493   35.5255   -3.9887 H         1 FAD385      0.0000 
     66 H           4.7639   30.7695   -3.0894 H         1 FAD385      0.0000 
     67 H           3.3079   29.8752   -2.8281 H         1 FAD385      0.0000 
     68 H           1.5844   29.8524   -2.4169 H         1 FAD385      0.0000 
     69 H           2.0726   30.1228   -0.0838 H         1 FAD385      0.0000 
     70 H           4.1390   28.2024   -1.0612 H         1 FAD385      0.0000 
     71 H           2.0187   27.9653    1.0528 H         1 FAD385      0.0000 
     72 H           4.2278   26.1879    0.0845 H         1 FAD385      0.0000 
     73 H           2.4854   25.8657    0.0838 H         1 FAD385      0.0000 
     74 H           7.1865   35.2558   -4.1712 H         1 FAD385      0.0000 
     75 H           7.5942   33.9017   -4.9370 H         1 FAD385      0.0000 
     76 H           6.5859   34.9452   -5.6304 H         1 FAD385      0.0000 
     77 H           7.8005   32.0591   -3.7336 H         1 FAD385      0.0000 
     78 H           6.9333   30.7290   -3.9886 H         1 FAD385      0.0000 
     79 H           7.2112   31.7519   -5.1981 H         1 FAD385      0.0000 
     80 H           9.8501   23.2537    6.4984 H         1 FAD385      0.0000 
     81 H          12.0896   22.2970    5.7845 H         1 FAD385      0.0000 
     82 H           4.8136   30.0908   -0.8228 H         1 FAD385      0.0000 
     83 H           2.5784   26.8409   -1.7274 H         1 FAD385      0.0000 
     84 H           4.2773   29.2388    1.0746 H         1 FAD385      0.0000 
@<TRIPOS>BOND
     1    2    1 ar   
     2    3    1 ar   
     3    4    1 1    
     4   53    1 1    
     5    5    4 1    
     6    6    5 1    
     7   54    5 1    
     8   55    5 1    
     9    7    6 1    
    10    8    6 1    
    11   56    6 1    
    12   12    7 1    
    13    9    8 1    
    14   10    8 1    
    15   57    8 1    
    16   80    9 1    
    17   11   10 1    
    18   12   10 1    
    19   58   10 1    
    20   81   11 1    
    21   13   12 1    
    22   59   12 1    
    23   14   13 1    
    24   22   13 1    
    25   15   14 2    
    26   60   14 1    
    27   16   15 1    
    28   17   16 ar   
    29   22   16 ar   
    30   18   17 1    
    31   19   17 ar   
    32   61   18 1    
    33   62   18 1    
    34   20   19 ar   
    35   21   20 ar   
    36   63   20 1    
    37   22   21 ar   
    38   24   23 1    
    39   40   23 2    
    40   25   24 2    
    41   26   24 am   
    42   27   26 am   
    43   64   26 1    
    44   28   27 2    
    45   29   27 1    
    46   30   29 2    
    47   40   29 1    
    48   31   30 1    
    49   32   31 ar   
    50   38   31 ar   
    51   33   32 ar   
    52   65   32 1    
    53   34   33 1    
    54   35   33 ar   
    55   74   34 1    
    56   75   34 1    
    57   76   34 1    
    58   36   35 1    
    59   37   35 ar   
    60   77   36 1    
    61   78   36 1    
    62   79   36 1    
    63   38   37 ar   
    64   66   37 1    
    65   39   38 1    
    66   40   39 1    
    67   41   39 1    
    68   42   41 1    
    69   67   41 1    
    70   68   41 1    
    71   43   42 1    
    72   44   42 1    
    73   69   42 1    
    74   82   43 1    
    75   45   44 1    
    76   46   44 1    
    77   70   44 1    
    78   83   45 1    
    79   47   46 1    
    80   48   46 1    
    81   71   46 1    
    82   84   47 1    
    83   49   48 1    
    84   72   48 1    
    85   73   48 1    
    86   50   49 1    
    87   51   50 ar   
    88   52   50 ar   
    89   53   50 1    
@<TRIPOS>SUBSTRUCTURE
     1 FAD385      1 GROUP   
@<TRIPOS>SET

