#    Name: 3PKC_1_CAVITY_N1_6.mol2
#    Modification time : Mon Mar 10 14:36:14 2014

@<TRIPOS>MOLECULE
3PKC_1_CAVITY_N1_6.mol2
   90     0     7     0     0
SMALL
NO_CHARGES


@<TRIPOS>ATOM
      1 CZ        -24.7909    1.4224   -4.1638 C.ar      5 PHE5        0.0000 
      2 CA        -26.7318    1.4259   -5.0197 C.3       6 GLY6        0.0000 
      3 OG        -28.3174   -2.7176   -6.6983 O.2       1 SER1        0.0000 
      4 NZ        -29.1991   -3.7526   -7.3319 N.2       4 LYS4        0.0000 
      5 CZ        -26.1398    1.7427   -6.3610 C.ar      5 PHE5        0.0000 
      6 CZ        -25.0805    0.7042   -6.1387 C.ar      5 PHE5        0.0000 
      7 CZ        -27.0214    0.7077   -6.9947 C.ar      5 PHE5        0.0000 
      8 DU        -25.9621   -0.3308   -6.7724 H         7 CUB7        0.0000 
      9 OG        -26.8437   -1.3658   -7.4060 O.2       1 SER1        0.0000 
     10 OG        -27.7254   -2.4008   -8.0396 O.2       1 SER1        0.0000 
     11 DU        -26.6661   -3.4392   -7.8173 H         7 CUB7        0.0000 
     12 CA        -28.6070   -3.4358   -8.6732 C.3       6 GLY6        0.0000 
     13 DU        -27.5477   -4.4742   -8.4509 H         7 CUB7        0.0000 
     14 DU        -26.4884   -5.5127   -8.2286 H         7 CUB7        0.0000 
     15 CA        -28.4294   -5.5093   -9.0845 C.3       6 GLY6        0.0000 
     16 CZ        -26.6071    3.0980   -7.9247 C.ar      5 PHE5        0.0000 
     17 CZ        -24.4884    1.0210   -7.4800 C.ar      5 PHE5        0.0000 
     18 O         -23.4291   -0.0174   -7.2577 O.2       2 ALA2        0.0000 
     19 CZ        -26.4294    1.0245   -8.3360 C.ar      5 PHE5        0.0000 
     20 DU        -25.3701   -0.0140   -8.1137 H         7 CUB7        0.0000 
     21 N         -24.3107   -1.0524   -7.8914 N.2       2 ALA2        0.0000 
     22 N         -27.3110   -0.0105   -8.9696 N.2       2 ALA2        0.0000 
     23 N         -26.2517   -1.0490   -8.7473 N.2       2 ALA2        0.0000 
     24 DU        -25.1924   -2.0874   -8.5250 H         7 CUB7        0.0000 
     25 CZ        -24.1330   -3.1259   -8.3027 C.ar      5 PHE5        0.0000 
     26 CZ        -23.0737   -4.1644   -8.0804 C.ar      5 PHE5        0.0000 
     27 N         -27.1333   -2.0840   -9.3809 N.2       2 ALA2        0.0000 
     28 DU        -26.0740   -3.1224   -9.1586 H         7 CUB7        0.0000 
     29 DU        -25.0147   -4.1609   -8.9363 H         7 CUB7        0.0000 
     30 O         -23.9554   -5.1994   -8.7140 O.2       2 ALA2        0.0000 
     31 N         -22.8960   -6.2378   -8.4917 N.2       2 ALA2        0.0000 
     32 CA        -26.9557   -4.1574   -9.7922 C.3       6 GLY6        0.0000 
     33 OG        -25.8963   -5.1959   -9.5699 O.2       1 SER1        0.0000 
     34 OG        -24.8370   -6.2344   -9.3476 O.2       1 SER1        0.0000 
     35 CA        -27.8373   -5.1924  -10.4258 C.3       6 GLY6        0.0000 
     36 OG        -26.7780   -6.2309  -10.2035 O.2       1 SER1        0.0000 
     37 CZ        -27.0744    4.4532   -9.4883 C.ar      5 PHE5        0.0000 
     38 CZ        -26.0150    3.4148   -9.2660 C.ar      5 PHE5        0.0000 
     39 CZ        -24.9557    2.3763   -9.0437 C.ar      5 PHE5        0.0000 
     40 CZ        -27.9560    3.4182  -10.1219 C.ar      5 PHE5        0.0000 
     41 CZ        -26.8967    2.3798   -9.8996 C.ar      5 PHE5        0.0000 
     42 N         -25.8373    1.3413   -9.6773 N.2       2 ALA2        0.0000 
     43 N         -24.7780    0.3028   -9.4550 N.2       2 ALA2        0.0000 
     44 N         -26.7190    0.3063  -10.3109 N.2       2 ALA2        0.0000 
     45 N         -25.6597   -0.7322  -10.0886 N.2       2 ALA2        0.0000 
     46 N         -24.6003   -1.7706   -9.8663 N.2       2 ALA2        0.0000 
     47 CZ        -23.5410   -2.8091   -9.6440 C.ar      5 PHE5        0.0000 
     48 N         -25.4820   -2.8056  -10.4999 N.2       2 ALA2        0.0000 
     49 N         -24.4226   -3.8441  -10.2776 N.2       2 ALA2        0.0000 
     50 O         -23.3633   -4.8825  -10.0553 O.2       2 ALA2        0.0000 
     51 CA        -26.3636   -3.8406  -11.1335 C.3       6 GLY6        0.0000 
     52 N         -25.3043   -4.8791  -10.9112 N.2       2 ALA2        0.0000 
     53 CZ        -24.5413    4.7666   -9.9737 C.ar      5 PHE5        0.0000 
     54 CA        -23.4820    3.7281   -9.7514 C.3       6 GLY6        0.0000 
     55 CA        -26.4823    4.7700  -10.8296 C.3       6 GLY6        0.0000 
     56 DU        -25.4230    3.7316  -10.6073 H         7 CUB7        0.0000 
     57 CA        -24.3636    2.6931  -10.3850 C.3       6 GLY6        0.0000 
     58 CZ        -27.3640    3.7350  -11.4632 C.ar      5 PHE5        0.0000 
     59 DU        -26.3046    2.6966  -11.2409 H         7 CUB7        0.0000 
     60 N         -25.2453    1.6581  -11.0186 N.2       2 ALA2        0.0000 
     61 CZ        -27.1863    1.6616  -11.8745 C.ar      5 PHE5        0.0000 
     62 N         -26.1269    0.6231  -11.6522 N.2       2 ALA2        0.0000 
     63 N         -25.0676   -0.4154  -11.4299 N.2       2 ALA2        0.0000 
     64 N         -24.0083   -1.4538  -11.2076 N.2       2 ALA2        0.0000 
     65 N         -22.9489   -2.4923  -10.9853 N.2       2 ALA2        0.0000 
     66 N         -25.9493   -1.4504  -12.0635 N.2       2 ALA2        0.0000 
     67 N         -24.8899   -2.4888  -11.8412 N.2       2 ALA2        0.0000 
     68 N         -23.8306   -3.5273  -11.6189 N.2       2 ALA2        0.0000 
     69 N         -25.7716   -3.5238  -12.4748 N.2       2 ALA2        0.0000 
     70 CA        -24.8309    4.0484  -11.9486 C.3       6 GLY6        0.0000 
     71 CA        -23.7716    3.0099  -11.7263 C.3       6 GLY6        0.0000 
     72 CA        -25.7126    3.0134  -12.5822 C.3       6 GLY6        0.0000 
     73 N         -24.6532    1.9749  -12.3599 N.2       2 ALA2        0.0000 
     74 CZ        -26.5942    1.9784  -13.2158 C.ar      5 PHE5        0.0000 
     75 DU        -25.5349    0.9399  -12.9935 H         7 CUB7        0.0000 
     76 N         -24.4756   -0.0985  -12.7712 N.2       2 ALA2        0.0000 
     77 N         -23.4162   -1.1370  -12.5489 N.2       2 ALA2        0.0000 
     78 N         -22.3569   -2.1755  -12.3266 N.2       2 ALA2        0.0000 
     79 OD1       -26.4165   -0.0951  -13.6271 O.3       3 ASP3        0.0000 
     80 OD1       -25.3572   -1.1335  -13.4048 O.3       3 ASP3        0.0000 
     81 NZ        -24.2979   -2.1720  -13.1825 N.2       4 LYS4        0.0000 
     82 N         -23.2385   -3.2105  -12.9602 N.2       2 ALA2        0.0000 
     83 CA        -25.1205    3.3302  -13.9235 C.3       6 GLY6        0.0000 
     84 CA        -24.0612    2.2917  -13.7012 C.3       6 GLY6        0.0000 
     85 CA        -23.0019    1.2533  -13.4789 C.3       6 GLY6        0.0000 
     86 OD1       -26.0022    2.2952  -14.5571 O.3       3 ASP3        0.0000 
     87 OD1       -24.9428    1.2567  -14.3348 O.3       3 ASP3        0.0000 
     88 NZ        -23.8835    0.2183  -14.1125 N.2       4 LYS4        0.0000 
     89 NZ        -22.8242   -0.8202  -13.8902 N.2       4 LYS4        0.0000 
     90 NZ        -24.7652   -0.8167  -14.7461 N.2       4 LYS4        0.0000 
@<TRIPOS>BOND
@<TRIPOS>SUBSTRUCTURE
     1 SER1        3 GROUP   
     2 ALA2       18 GROUP   
     3 ASP3       79 GROUP   
     4 LYS4        4 GROUP   
     5 PHE5        1 GROUP   
     6 GLY6        2 GROUP   
     7 CUB7        8 GROUP   
@<TRIPOS>SET

