#    Name: 3pkc_Y08_1_INTS_M
#    Modification time : Tue Mar 25 08:03:10 2014

@<TRIPOS>MOLECULE
3pkc_Y08_1_INTS_M
   78     0    12     0     0
SMALL
NO_CHARGES


@<TRIPOS>ATOM
      1 O         -24.7975   -4.9715  -12.2825 O.2       1 ALC1        0.0000 
      2 O         -25.0830   -3.8440  -11.3840 O.2       9 ALL1        0.0000 
      3 O         -24.5120   -6.0990  -13.1810 O.2       5 ALP1        0.0000 
      4 Zn        -25.5715    1.3045  -16.2390 Zn        3 ZIC7        0.0000 
      5 Zn        -25.7780    1.8460  -15.3460 Zn       11 ZIL7        0.0000 
      6 Zn        -25.3650    0.7630  -17.1320 Zn        7 ZIP7        0.0000 
      7 O         -26.5295    1.3205  -16.6690 O.2       1 ALC1        0.0000 
      8 O         -25.7780    1.8460  -15.3460 O.2       9 ALL1        0.0000 
      9 O         -27.2810    0.7950  -17.9920 O.2       5 ALP1        0.0000 
     10 Zn        -26.6780   -1.8665  -14.6815 Zn        3 ZIC7        0.0000 
     11 Zn        -26.5520   -1.7170  -13.5510 Zn       11 ZIL7        0.0000 
     12 Zn        -26.8040   -2.0160  -15.8120 Zn        7 ZIP7        0.0000 
     13 N         -27.5945   -1.5540  -12.6290 N.am      2 SEC2        0.0000 
     14 N         -26.5520   -1.7170  -13.5510 N.am     10 SEL2        0.0000 
     15 N         -28.6370   -1.3910  -11.7070 N.am      6 SEP2        0.0000 
     16 Zn        -25.9675   -1.3630  -15.6205 Zn        3 ZIC7        0.0000 
     17 Zn        -25.1310   -0.7100  -15.4290 Zn       11 ZIL7        0.0000 
     18 Zn        -25.2480    0.0265  -16.2805 Zn        3 ZIC7        0.0000 
     19 O         -24.3490   -1.6635  -15.7620 O.2       1 ALC1        0.0000 
     20 O         -25.1310   -0.7100  -15.4290 O.2       9 ALL1        0.0000 
     21 O         -23.5670   -2.6170  -16.0950 O.2       5 ALP1        0.0000 
     22 N         -23.0635   -0.8785  -10.6420 N.am      2 SEC2        0.0000 
     23 N         -23.9180   -2.1920  -10.4760 N.am     10 SEL2        0.0000 
     24 N         -22.2090    0.4350  -10.8080 N.am      6 SEP2        0.0000 
     25 N         -22.6025   -0.4680  -11.8900 N.am      2 SEC2        0.0000 
     26 N         -22.9960   -1.3710  -12.9720 N.am     10 SEL2        0.0000 
     27 CA        -24.1050    3.7100  -13.0800 C.3       4 GLC5        0.0000 
     28 CA        -25.5180    2.0730  -12.9230 C.3      12 GLL5        0.0000 
     29 CA        -22.6920    5.3470  -13.2370 C.3       8 GLP5        0.0000 
     30 CA        -23.5320    1.8340  -12.0630 C.3       4 GLC5        0.0000 
     31 CA        -21.5460    1.5950  -11.2030 C.3       8 GLP5        0.0000 
     32 CA        -27.2825   -1.8470  -12.3320 C.3       4 GLC5        0.0000 
     33 CA        -25.3130   -1.0540  -13.0110 C.3      12 GLL5        0.0000 
     34 CA        -29.2520   -2.6400  -11.6530 C.3       8 GLP5        0.0000 
     35 CA        -27.6085    2.0635   -8.3475 C.3       4 GLC5        0.0000 
     36 CA        -26.1070    1.9040   -9.4510 C.3      12 GLL5        0.0000 
     37 CA        -29.1100    2.2230   -7.2440 C.3       8 GLP5        0.0000 
     38 CA        -24.2855    5.6345   -9.7545 C.3       4 GLC5        0.0000 
     39 CA        -24.7530    3.6400  -10.6570 C.3      12 GLL5        0.0000 
     40 CA        -23.8180    7.6290   -8.8520 C.3       8 GLP5        0.0000 
     41 CA        -23.7225    4.4935  -11.9470 C.3       4 GLC5        0.0000 
     42 CA        -23.1495    2.6175  -10.9300 C.3       4 GLC5        0.0000 
     43 CA        -27.1365    5.1045  -12.0805 C.3       4 GLC5        0.0000 
     44 CA        -27.1700    3.9890  -10.4350 C.3      12 GLL5        0.0000 
     45 CA        -27.1030    6.2200  -13.7260 C.3       8 GLP5        0.0000 
     46 CA        -28.7095    3.4920  -11.5695 C.3       4 GLC5        0.0000 
     47 CA        -30.2490    2.9950  -12.7040 C.3       8 GLP5        0.0000 
     48 CA        -32.9365   -7.3470   -8.2145 C.3       4 GLC5        0.0000 
     49 CA        -32.1430   -5.7080   -7.4480 C.3      12 GLL5        0.0000 
     50 CA        -33.7300   -8.9860   -8.9810 C.3       8 GLP5        0.0000 
     51 CA        -20.1960   -1.0975  -12.8805 C.3       4 GLC5        0.0000 
     52 CA        -21.8450   -2.2930  -13.0610 C.3      12 GLL5        0.0000 
     53 CA        -18.5470    0.0980  -12.7000 C.3       8 GLP5        0.0000 
     54 CA        -21.6955   -0.3490  -12.1320 C.3       4 GLC5        0.0000 
     55 CA        -20.8735   -3.6040  -11.8640 C.3       4 GLC5        0.0000 
     56 CA        -19.9020   -4.9150  -10.6670 C.3       8 GLP5        0.0000 
     57 CA        -20.1190   -2.9940  -13.4555 C.3       4 GLC5        0.0000 
     58 CA        -18.3930   -3.6950  -13.8500 C.3       8 GLP5        0.0000 
     59 CA        -27.8463    3.5118   -9.0317 C.3       4 GLC5        0.0000 
     60 CA        -26.0730    2.9020  -10.6020 C.3      12 GLL5        0.0000 
     61 CA        -29.0710    3.5780   -7.5450 C.3       8 GLP5        0.0000 
     62 CA        -27.7231    2.0141  -13.4776 C.3       4 GLC5        0.0000 
     63 CA        -26.3270    2.1160  -11.8640 C.3      12 GLL5        0.0000 
     64 CA        -29.5130    2.3950  -13.7420 C.3       8 GLP5        0.0000 
     65 CA        -24.7602    3.3918   -8.5409 C.3       4 GLC5        0.0000 
     66 CA        -24.0990    3.7620   -6.7400 C.3       8 GLP5        0.0000 
     67 CA        -27.9697   -3.0572  -10.4745 C.3       4 GLC5        0.0000 
     68 CA        -26.6100   -2.7520   -9.0200 C.3      12 GLL5        0.0000 
     69 CA        -29.1968   -2.7225   -9.2505 C.3       4 GLC5        0.0000 
     70 CA        -27.8380   -2.3620   -8.1560 C.3      12 GLL5        0.0000 
     71 CA        -30.3390   -2.5240  -10.8530 C.3       8 GLP5        0.0000 
     72 CA        -33.2375   -3.6123   -7.2352 C.3       4 GLC5        0.0000 
     73 CA        -31.9070   -4.2190   -7.1850 C.3      12 GLL5        0.0000 
     74 CA        -34.4500   -2.2610   -7.1540 C.3       8 GLP5        0.0000 
     75 CA        -33.8045   -5.8217   -7.0622 C.3       4 GLC5        0.0000 
     76 CA        -35.5840   -6.6800   -6.8080 C.3       8 GLP5        0.0000 
     77 CA        -31.5104   -4.1955   -8.8094 C.3       4 GLC5        0.0000 
     78 CA        -31.3460   -3.5670  -10.4260 C.3       8 GLP5        0.0000 
@<TRIPOS>BOND
@<TRIPOS>SUBSTRUCTURE
     1 ALC1        1 GROUP        1 X    ALC  0     ROOT ALC X 1
     2 SEC2       13 GROUP        1 X    SEC  0     **** SEC X 2
     3 ZIC7        4 GROUP        1 X    ZIC  0     **** ZIC X 5
     4 GLC5       27 GROUP        1 X    GLC  0     **** GLC X 6
     5 ALP1        3 GROUP        1 Y    ALP  0     ROOT ALP Y 8
     6 SEP2       15 GROUP        1 Y    SEP  0     **** SEP Y 9
     7 ZIP7        6 GROUP        1 Y    ZIP  0     **** ZIP Y 12
     8 GLP5       29 GROUP        1 Y    GLP  0     **** GLP Y 13
     9 ALL1        2 GROUP        1 Z    ALL  0     ROOT ALL Z 15
    10 SEL2       14 GROUP        1 Z    SEL  0     **** SEL Z 16
    11 ZIL7        5 GROUP        1 Z    ZIL  0     **** ZIL Z 19
    12 GLL5       28 GROUP        1 Z    GLL  0     **** GLL Z 20
@<TRIPOS>SET

