#    Name: 3pkc_Y08_1_ligand
#    Modification time : Tue Mar 25 08:03:10 2014

@<TRIPOS>MOLECULE
3pkc_Y08_1_ligand
   67    68     1     0     0
SMALL
NO_CHARGES


@<TRIPOS>ATOM
      1 N1        -25.0830   -3.8440  -11.3840 N.am      1 Y08288      0.0000 
      2 O1        -25.7780    1.8460  -15.3460 O.3       1 Y08288      0.0000 
      3 N2        -28.3820   -4.7900   -7.8240 N.am      1 Y08288      0.0000 
      4 O2        -26.5520   -1.7170  -13.5510 O.3       1 Y08288      0.0000 
      5 O3        -25.1310   -0.7100  -15.4290 O.3       1 Y08288      0.0000 
      6 O4        -23.9180   -2.1920  -10.4760 O.2       1 Y08288      0.0000 
      7 O5        -29.4440   -6.6510   -8.4060 O.2       1 Y08288      0.0000 
      8 O6        -22.9960   -1.3710  -12.9720 O.3       1 Y08288      0.0000 
      9 C01       -26.0730    2.9020  -10.6020 C.3       1 Y08288      0.0000 
     10 C02       -26.3270    2.1160  -11.8640 C.2       1 Y08288      0.0000 
     11 C03       -25.5180    2.0730  -12.9230 C.2       1 Y08288      0.0000 
     12 C04       -25.9440    1.1720  -14.0330 C.3       1 Y08288      0.0000 
     13 C05       -25.0070   -0.0460  -14.1040 C.3       1 Y08288      0.0000 
     14 C06       -25.3130   -1.0540  -13.0110 C.3       1 Y08288      0.0000 
     15 C07       -24.2340   -2.1010  -12.8330 C.3       1 Y08288      0.0000 
     16 C08       -26.1070    1.9040   -9.4510 C.3       1 Y08288      0.0000 
     17 C09       -24.7530    3.6400  -10.6570 C.3       1 Y08288      0.0000 
     18 C10       -27.1700    3.9890  -10.4350 C.3       1 Y08288      0.0000 
     19 C11       -24.3860   -2.7260  -11.4770 C.2       1 Y08288      0.0000 
     20 C12       -25.3740   -4.5240  -10.0790 C.3       1 Y08288      0.0000 
     21 C13       -26.7650   -4.1970   -9.5720 C.3       1 Y08288      0.0000 
     22 C14       -26.6100   -2.7520   -9.0200 C.3       1 Y08288      0.0000 
     23 C15       -27.8380   -2.3620   -8.1560 C.3       1 Y08288      0.0000 
     24 C16       -28.2710   -3.4800   -7.1400 C.3       1 Y08288      0.0000 
     25 C17       -27.1060   -5.2210   -8.4360 C.3       1 Y08288      0.0000 
     26 C18       -29.5220   -5.5490   -7.8380 C.2       1 Y08288      0.0000 
     27 C19       -30.7420   -5.1500   -6.9530 C.3       1 Y08288      0.0000 
     28 C20       -32.1430   -5.7080   -7.4480 C.3       1 Y08288      0.0000 
     29 C21       -31.9070   -4.2190   -7.1850 C.3       1 Y08288      0.0000 
     30 C22       -21.8450   -2.2930  -13.0610 C.3       1 Y08288      0.0000 
     31 H         -25.4831   -4.3364  -12.2174 H         1 Y08288      0.0000 
     32 H         -27.2396    1.5773  -11.8406 H         1 Y08288      0.0000 
     33 H         -24.6692    2.5786  -13.0399 H         1 Y08288      0.0000 
     34 H         -26.9301    0.8333  -13.9108 H         1 Y08288      0.0000 
     35 H         -23.9885    0.3027  -13.9765 H         1 Y08288      0.0000 
     36 H         -25.5449   -0.5614  -12.1203 H         1 Y08288      0.0000 
     37 H         -24.3466   -2.8270  -13.5984 H         1 Y08288      0.0000 
     38 H         -24.6376   -4.2114   -9.3281 H         1 Y08288      0.0000 
     39 H         -25.2850   -5.6107  -10.2016 H         1 Y08288      0.0000 
     40 H         -27.4501   -4.2279  -10.3332 H         1 Y08288      0.0000 
     41 H         -26.5280   -2.0638   -9.8514 H         1 Y08288      0.0000 
     42 H         -25.7167   -2.7011   -8.4107 H         1 Y08288      0.0000 
     43 H         -28.6850   -2.1481   -8.8133 H         1 Y08288      0.0000 
     44 H         -27.6051   -1.4555   -7.5910 H         1 Y08288      0.0000 
     45 H         -27.5224   -3.5127   -6.3506 H         1 Y08288      0.0000 
     46 H         -29.2253   -3.1803   -6.7106 H         1 Y08288      0.0000 
     47 H         -27.1955   -6.1942   -8.8856 H         1 Y08288      0.0000 
     48 H         -26.3018   -5.2008   -7.7218 H         1 Y08288      0.0000 
     49 H         -30.8020   -5.4012   -5.9575 H         1 Y08288      0.0000 
     50 H         -32.5500   -6.0663   -6.6845 H         1 Y08288      0.0000 
     51 H         -32.0415   -5.8495   -8.3681 H         1 Y08288      0.0000 
     52 H         -31.7893   -3.7916   -8.0270 H         1 Y08288      0.0000 
     53 H         -32.2978   -4.0084   -6.3434 H         1 Y08288      0.0000 
     54 H         -25.4118    1.1928   -9.5555 H         1 Y08288      0.0000 
     55 H         -25.9425    2.3475   -8.5699 H         1 Y08288      0.0000 
     56 H         -26.9915    1.4420   -9.3860 H         1 Y08288      0.0000 
     57 H         -23.9823    3.0141  -10.7763 H         1 Y08288      0.0000 
     58 H         -24.7225    4.2905  -11.4159 H         1 Y08288      0.0000 
     59 H         -24.5823    4.1588   -9.8193 H         1 Y08288      0.0000 
     60 H         -27.0345    4.5289   -9.6042 H         1 Y08288      0.0000 
     61 H         -27.1780    4.6296  -11.2028 H         1 Y08288      0.0000 
     62 H         -28.0844    3.5882  -10.3782 H         1 Y08288      0.0000 
     63 H         -20.9802   -1.7996  -13.1535 H         1 Y08288      0.0000 
     64 H         -21.7677   -2.8701  -12.2480 H         1 Y08288      0.0000 
     65 H         -21.9192   -2.9047  -13.8486 H         1 Y08288      0.0000 
     66 H         -26.6394    1.6878  -15.8288 H         1 Y08288      0.0000 
     67 H         -24.4348   -1.4278  -15.4248 H         1 Y08288      0.0000 
@<TRIPOS>BOND
     1   19    1 am   
     2   20    1 1    
     3   31    1 1    
     4   12    2 1    
     5   66    2 1    
     6   24    3 1    
     7   25    3 1    
     8   26    3 am   
     9   14    4 1    
    10   13    5 1    
    11   67    5 1    
    12   19    6 2    
    13   26    7 2    
    14   15    8 1    
    15   30    8 1    
    16   10    9 1    
    17   16    9 1    
    18   17    9 1    
    19   18    9 1    
    20   11   10 2    
    21   32   10 1    
    22   12   11 1    
    23   33   11 1    
    24   13   12 1    
    25   34   12 1    
    26   14   13 1    
    27   35   13 1    
    28   15   14 1    
    29   36   14 1    
    30   19   15 1    
    31   37   15 1    
    32   54   16 1    
    33   55   16 1    
    34   56   16 1    
    35   57   17 1    
    36   58   17 1    
    37   59   17 1    
    38   60   18 1    
    39   61   18 1    
    40   62   18 1    
    41   21   20 1    
    42   38   20 1    
    43   39   20 1    
    44   22   21 1    
    45   25   21 1    
    46   40   21 1    
    47   23   22 1    
    48   41   22 1    
    49   42   22 1    
    50   24   23 1    
    51   43   23 1    
    52   44   23 1    
    53   45   24 1    
    54   46   24 1    
    55   47   25 1    
    56   48   25 1    
    57   27   26 1    
    58   28   27 1    
    59   29   27 1    
    60   49   27 1    
    61   29   28 1    
    62   50   28 1    
    63   51   28 1    
    64   52   29 1    
    65   53   29 1    
    66   63   30 1    
    67   64   30 1    
    68   65   30 1    
@<TRIPOS>SUBSTRUCTURE
     1 Y08288      1 GROUP   
@<TRIPOS>SET

