#    Name: 4jpe_1M7_1_INTS_M
#    Modification time : Tue Mar 25 06:11:18 2014

@<TRIPOS>MOLECULE
4jpe_1M7_1_INTS_M
   52     0     9     0     0
SMALL
NO_CHARGES


@<TRIPOS>ATOM
      1 CA         25.5825   11.3205    6.1360 C.3       3 GLC5        0.0000 
      2 CA         24.9900   11.8980    7.9020 C.3       9 GLL5        0.0000 
      3 CA         26.1750   10.7430    4.3700 C.3       6 GLP5        0.0000 
      4 CA         26.0060   10.3520    8.4940 C.3       3 GLC5        0.0000 
      5 CA         27.0220    8.8060    9.0860 C.3       6 GLP5        0.0000 
      6 OD1        21.3230   16.0450   11.6380 O.co2     2 ASC3        0.0000 
      7 OD1        22.0470   15.8540    9.4480 O.co2     8 ASL3        0.0000 
      8 OD1        21.3960   15.5590   12.9320 O.co2     5 ASP3        0.0000 
      9 OD1        22.4085   14.1925   10.8825 O.co2     2 ASC3        0.0000 
     10 OD1        22.1990   13.6730   12.1340 O.co2     5 ASP3        0.0000 
     11 OD1        20.5815   17.7550   10.2950 O.co2     2 ASC3        0.0000 
     12 OD1        19.9130   18.9790   10.2460 O.co2     5 ASP3        0.0000 
     13 O          22.4085   14.1925   10.8825 O.2       1 ALC1        0.0000 
     14 O          22.6180   14.7120    9.6310 O.2       7 ALL1        0.0000 
     15 O          22.1990   13.6730   12.1340 O.2       4 ALP1        0.0000 
     16 CA         21.9425   19.7135    8.6500 C.3       3 GLC5        0.0000 
     17 CA         21.7750   17.6870    7.7060 C.3       9 GLL5        0.0000 
     18 CA         22.1100   21.7400    9.5940 C.3       6 GLP5        0.0000 
     19 O          21.3230   16.0450   11.6380 O.2       1 ALC1        0.0000 
     20 O          21.2500   16.5310   10.3440 O.2       7 ALL1        0.0000 
     21 O          21.3960   15.5590   12.9320 O.2       4 ALP1        0.0000 
     22 O          20.5815   17.7550   10.2950 O.2       1 ALC1        0.0000 
     23 O          19.9130   18.9790   10.2460 O.2       4 ALP1        0.0000 
     24 CA         30.4160   16.7920    9.2485 C.3       3 GLC5        0.0000 
     25 CA         28.7330   17.2280    9.4320 C.3       9 GLL5        0.0000 
     26 CA         32.0990   16.3560    9.0650 C.3       6 GLP5        0.0000 
     27 CA         30.3465   19.4395   11.5075 C.3       3 GLC5        0.0000 
     28 CA         28.5880   19.0290   10.8520 C.3       9 GLL5        0.0000 
     29 CA         32.1050   19.8500   12.1630 C.3       6 GLP5        0.0000 
     30 CA         28.9365   19.0995   12.7555 C.3       3 GLC5        0.0000 
     31 CA         29.2850   19.1700   14.6590 C.3       6 GLP5        0.0000 
     32 CA         25.1315   17.8835   11.8105 C.3       3 GLC5        0.0000 
     33 CA         26.8810   17.5100   10.9660 C.3       9 GLL5        0.0000 
     34 CA         23.3820   18.2570   12.6550 C.3       6 GLP5        0.0000 
     35 CA         23.4045   10.2790    5.6730 C.3       3 GLC5        0.0000 
     36 CA         22.8510   10.6230    7.3770 C.3       9 GLL5        0.0000 
     37 CA         23.9580    9.9350    3.9690 C.3       6 GLP5        0.0000 
     38 CA         23.8335    8.8095    7.3740 C.3       3 GLC5        0.0000 
     39 CA         24.8160    6.9960    7.3710 C.3       6 GLP5        0.0000 
     40 CA         21.4085   11.5815   10.5425 C.3       3 GLC5        0.0000 
     41 CA         23.2220   11.4870    9.7010 C.3       9 GLL5        0.0000 
     42 CA         19.5950   11.6760   11.3840 C.3       6 GLP5        0.0000 
     43 CA         26.8867   12.5512   10.2517 C.3       3 GLC5        0.0000 
     44 CA         27.6930   14.3620    9.1990 C.3       9 GLL5        0.0000 
     45 CA         26.3960   11.3240   11.5580 C.3       6 GLP5        0.0000 
     46 CA         25.8347   12.5360   10.0672 C.3       3 GLC5        0.0000 
     47 CA         25.6610   13.1670    8.4420 C.3       9 GLL5        0.0000 
     48 CA         26.4974   14.8130   11.3270 C.3       3 GLC5        0.0000 
     49 CA         26.5810   14.4060   13.3780 C.3       6 GLP5        0.0000 
     50 CA         26.8882   15.7623   11.9213 C.3       3 GLC5        0.0000 
     51 CA         27.5100   16.7270    9.9630 C.3       9 GLL5        0.0000 
     52 CA         25.0613   11.4938   10.2165 C.3       3 GLC5        0.0000 
@<TRIPOS>BOND
@<TRIPOS>SUBSTRUCTURE
     1 ALC1       13 GROUP        1 X    ALC  0     ROOT ALC X 1
     2 ASC3        6 GROUP        1 X    ASC  0     **** ASC X 3
     3 GLC5        1 GROUP        1 X    GLC  0     **** GLC X 6
     4 ALP1       15 GROUP        1 Y    ALP  0     ROOT ALP Y 8
     5 ASP3        8 GROUP        1 Y    ASP  0     **** ASP Y 10
     6 GLP5        3 GROUP        1 Y    GLP  0     **** GLP Y 13
     7 ALL1       14 GROUP        1 Z    ALL  0     ROOT ALL Z 15
     8 ASL3        7 GROUP        1 Z    ASL  0     **** ASL Z 17
     9 GLL5        2 GROUP        1 Z    GLL  0     **** GLL Z 20
@<TRIPOS>SET

