#    Name: 4jpe_1M7_1_ligand
#    Modification time : Tue Mar 25 06:11:18 2014

@<TRIPOS>MOLECULE
4jpe_1M7_1_ligand
   47    50     1     0     0
SMALL
NO_CHARGES


@<TRIPOS>ATOM
      1 C1         26.9220   15.5280    9.4710 C.ar      1 1M7502      0.0000 
      2 C2         27.6930   14.3620    9.1990 C.ar      1 1M7502      0.0000 
      3 C3         27.0620   13.1950    8.6920 C.ar      1 1M7502      0.0000 
      4 C4         25.6610   13.1670    8.4420 C.ar      1 1M7502      0.0000 
      5 C5         24.8860   14.3290    8.7110 C.ar      1 1M7502      0.0000 
      6 C6         25.5200   15.4950    9.2170 C.ar      1 1M7502      0.0000 
      7 C7         24.9900   11.8980    7.9020 C.3       1 1M7502      0.0000 
      8 C8         23.4720   11.7820    8.1960 C.3       1 1M7502      0.0000 
      9 C9         22.7700   13.0920    7.7680 C.3       1 1M7502      0.0000 
     10 C10        23.3790   14.3520    8.4320 C.3       1 1M7502      0.0000 
     11 C11        27.5100   16.7270    9.9630 C.ar      1 1M7502      0.0000 
     12 C12        23.0830   15.5720    7.5430 C.2       1 1M7502      0.0000 
     13 N13        22.2800   16.4100    8.2250 N.am      1 1M7502      0.0000 
     14 C14        22.0470   15.8540    9.4480 C.cat     1 1M7502      0.0000 
     15 N15        22.6180   14.7120    9.6310 N.pl3     1 1M7502      0.0000 
     16 O16        23.5120   15.7300    6.3950 O.2       1 1M7502      0.0000 
     17 C17        21.7750   17.6870    7.7060 C.3       1 1M7502      0.0000 
     18 N18        21.2500   16.5310   10.3440 N.pl3     1 1M7502      0.0000 
     19 C19        28.7330   17.2280    9.4320 C.ar      1 1M7502      0.0000 
     20 N20        29.2650   18.3750    9.8890 N.ar      1 1M7502      0.0000 
     21 C21        28.5880   19.0290   10.8520 C.ar      1 1M7502      0.0000 
     22 N22        27.4230   18.6560   11.4060 N.ar      1 1M7502      0.0000 
     23 C23        26.8810   17.5100   10.9660 C.ar      1 1M7502      0.0000 
     24 C24        22.8510   10.6230    7.3770 C.3       1 1M7502      0.0000 
     25 C25        23.2220   11.4870    9.7010 C.3       1 1M7502      0.0000 
     26 H          28.6967   14.3666    9.3686 H         1 1M7502      0.0000 
     27 H          27.6237   12.3581    8.5025 H         1 1M7502      0.0000 
     28 H          24.9571   16.3343    9.4047 H         1 1M7502      0.0000 
     29 H          25.4955   11.0141    8.3291 H         1 1M7502      0.0000 
     30 H          25.1371   11.8506    6.8087 H         1 1M7502      0.0000 
     31 H          21.7105   13.0300    8.0337 H         1 1M7502      0.0000 
     32 H          22.8433   13.1952    6.6812 H         1 1M7502      0.0000 
     33 H          22.6077   14.1180   10.3908 H         1 1M7502      0.0000 
     34 H          20.9161   17.4257   10.0473 H         1 1M7502      0.0000 
     35 H          21.0746   16.0690   11.2133 H         1 1M7502      0.0000 
     36 H          29.1920   16.6753    8.6842 H         1 1M7502      0.0000 
     37 H          29.0314   19.9540   11.2176 H         1 1M7502      0.0000 
     38 H          25.9769   17.1576   11.3491 H         1 1M7502      0.0000 
     39 H          22.5189   18.3132    7.4724 H         1 1M7502      0.0000 
     40 H          21.2271   17.5612    6.8790 H         1 1M7502      0.0000 
     41 H          21.1957   18.1559    8.3728 H         1 1M7502      0.0000 
     42 H          22.9616   10.7627    6.3930 H         1 1M7502      0.0000 
     43 H          23.2739    9.7441    7.5976 H         1 1M7502      0.0000 
     44 H          21.8708   10.5286    7.5513 H         1 1M7502      0.0000 
     45 H          23.6490   10.6293    9.9873 H         1 1M7502      0.0000 
     46 H          23.5913   12.2082   10.2871 H         1 1M7502      0.0000 
     47 H          22.2465   11.4120    9.9077 H         1 1M7502      0.0000 
@<TRIPOS>BOND
     1    2    1 ar   
     2    6    1 ar   
     3   11    1 1    
     4    3    2 ar   
     5   26    2 1    
     6    4    3 ar   
     7   27    3 1    
     8    5    4 ar   
     9    7    4 1    
    10    6    5 ar   
    11   10    5 1    
    12   28    6 1    
    13    8    7 1    
    14   29    7 1    
    15   30    7 1    
    16    9    8 1    
    17   24    8 1    
    18   25    8 1    
    19   10    9 1    
    20   31    9 1    
    21   32    9 1    
    22   12   10 1    
    23   15   10 1    
    24   19   11 ar   
    25   23   11 ar   
    26   13   12 am   
    27   16   12 2    
    28   14   13 ar   
    29   17   13 1    
    30   15   14 ar   
    31   18   14 ar   
    32   33   15 1    
    33   39   17 1    
    34   40   17 1    
    35   41   17 1    
    36   34   18 1    
    37   35   18 1    
    38   20   19 ar   
    39   36   19 1    
    40   21   20 ar   
    41   22   21 ar   
    42   37   21 1    
    43   23   22 ar   
    44   38   23 1    
    45   42   24 1    
    46   43   24 1    
    47   44   24 1    
    48   45   25 1    
    49   46   25 1    
    50   47   25 1    
@<TRIPOS>SUBSTRUCTURE
     1 1M7502      1 GROUP   
@<TRIPOS>SET

