#    Name: 2w0u_C7C_2_INTS_M
#    Modification time : Tue Mar 25 03:28:52 2014

@<TRIPOS>MOLECULE
2w0u_C7C_2_INTS_M
   58     0     9     0     0
SMALL
NO_CHARGES


@<TRIPOS>ATOM
      1 CA        -58.1490   37.8270   -6.5110 C.3       3 GLC5        0.0000 
      2 CA        -59.6830   37.5620   -5.6760 C.3       9 GLL5        0.0000 
      3 CA        -56.6150   38.0920   -7.3460 C.3       6 GLP5        0.0000 
      4 CA        -61.2130   38.3275   -5.9780 C.3       3 GLC5        0.0000 
      5 CA        -62.7430   39.0930   -6.2800 C.3       6 GLP5        0.0000 
      6 CA        -57.4425   34.3265   -4.4625 C.3       3 GLC5        0.0000 
      7 CA        -58.4640   35.0860   -5.8570 C.3       9 GLL5        0.0000 
      8 CA        -56.4210   33.5670   -3.0680 C.3       6 GLP5        0.0000 
      9 CA        -56.6000   32.8650   -6.8650 C.3       3 GLC5        0.0000 
     10 CA        -58.3880   33.7540   -6.2480 C.3       9 GLL5        0.0000 
     11 CA        -54.8120   31.9760   -7.4820 C.3       6 GLP5        0.0000 
     12 CA        -61.6855   37.1800   -6.5880 C.3       3 GLC5        0.0000 
     13 CA        -60.6280   35.2670   -6.8960 C.3       9 GLL5        0.0000 
     14 CA        -61.8285   32.9290   -8.6555 C.3       3 GLC5        0.0000 
     15 CA        -60.5520   33.9350   -7.2880 C.3       9 GLL5        0.0000 
     16 CA        -63.1050   31.9230  -10.0230 C.3       6 GLP5        0.0000 
     17 CA        -58.7765   30.3355   -5.9785 C.3       3 GLC5        0.0000 
     18 CA        -59.3380   31.5550   -7.4400 C.3       9 GLL5        0.0000 
     19 CA        -58.2150   29.1160   -4.5170 C.3       6 GLP5        0.0000 
     20 CA        -60.3345   31.8815   -5.8230 C.3       3 GLC5        0.0000 
     21 CA        -61.3310   32.2080   -4.2060 C.3       6 GLP5        0.0000 
     22 NZ        -60.6175   28.7145   -7.8610 N.4       2 LYC4        0.0000 
     23 NZ        -59.1000   28.8360   -8.0340 N.4       8 LYL4        0.0000 
     24 NZ        -62.8410   28.1060   -8.7090 N.4       5 LYP4        0.0000 
     25 NZ        -59.4045   27.6950   -7.3015 N.4       2 LYC4        0.0000 
     26 NZ        -59.6970   25.4780   -7.3450 N.4       5 LYP4        0.0000 
     27 N         -60.6175   28.7145   -7.8610 N.am      1 SEC2        0.0000 
     28 N         -59.1000   28.8360   -8.0340 N.am      7 SEL2        0.0000 
     29 N         -62.1350   28.5930   -7.6880 N.am      4 SEP2        0.0000 
     30 N         -59.4240   27.2275   -8.3525 N.am      1 SEC2        0.0000 
     31 N         -59.7480   25.6190   -8.6710 N.am      4 SEP2        0.0000 
     32 N         -59.4045   27.6950   -7.3015 N.am      1 SEC2        0.0000 
     33 N         -59.7090   26.5540   -6.5690 N.am      4 SEP2        0.0000 
     34 NZ        -61.0970   27.9925   -9.3465 N.4       2 LYC4        0.0000 
     35 NZ        -59.3530   27.8790   -9.9840 N.4       8 LYL4        0.0000 
     36 NZ        -59.4240   27.2275   -8.3525 N.4       2 LYC4        0.0000 
     37 N         -59.5505   26.7490   -9.3275 N.am      1 SEC2        0.0000 
     38 N         -59.3530   27.8790   -9.9840 N.am      7 SEL2        0.0000 
     39 CA        -60.9750   32.3735  -10.1095 C.3       3 GLC5        0.0000 
     40 CA        -58.8450   32.8240  -10.1960 C.3       9 GLL5        0.0000 
     41 N         -58.6715   32.0445  -12.8980 N.am      1 SEC2        0.0000 
     42 N         -58.6630   31.8830  -11.6000 N.am      7 SEL2        0.0000 
     43 N         -58.6800   32.2060  -14.1960 N.am      4 SEP2        0.0000 
     44 N         -58.7270   31.3520  -12.7340 N.am      1 SEC2        0.0000 
     45 N         -58.7740   30.4980  -11.2720 N.am      7 SEL2        0.0000 
     46 N         -58.9295   29.4100  -12.1270 N.am      1 SEC2        0.0000 
     47 N         -59.0850   28.3220  -12.9820 N.am      4 SEP2        0.0000 
     48 CA        -56.8310   35.2120   -6.9398 C.3       3 GLC5        0.0000 
     49 CA        -55.2360   36.0040   -7.8270 C.3       6 GLP5        0.0000 
     50 CA        -57.9082   32.6972   -5.0797 C.3       3 GLC5        0.0000 
     51 CA        -56.9070   31.9280   -3.5540 C.3       6 GLP5        0.0000 
     52 CA        -60.6077   35.0547   -4.8392 C.3       3 GLC5        0.0000 
     53 CA        -61.3770   34.5290   -3.2840 C.3       6 GLP5        0.0000 
     54 CA        -61.8980   35.0100   -8.4700 C.3       3 GLC5        0.0000 
     55 CA        -63.2060   35.4190   -9.8480 C.3       6 GLP5        0.0000 
     56 CA        -60.5309   32.9544   -5.5764 C.3       3 GLC5        0.0000 
     57 CA        -61.0688   31.3825   -9.7895 C.3       3 GLC5        0.0000 
     58 CA        -59.0680   31.4680   -9.1620 C.3       9 GLL5        0.0000 
@<TRIPOS>BOND
@<TRIPOS>SUBSTRUCTURE
     1 SEC2       27 GROUP        1 X    SEC  0     ROOT SEC X 2
     2 LYC4       22 GROUP        1 X    LYC  0     **** LYC X 4
     3 GLC5        1 GROUP        1 X    GLC  0     **** GLC X 6
     4 SEP2       29 GROUP        1 Y    SEP  0     ROOT SEP Y 9
     5 LYP4       24 GROUP        1 Y    LYP  0     **** LYP Y 11
     6 GLP5        3 GROUP        1 Y    GLP  0     **** GLP Y 13
     7 SEL2       28 GROUP        1 Z    SEL  0     ROOT SEL Z 16
     8 LYL4       23 GROUP        1 Z    LYL  0     **** LYL Z 18
     9 GLL5        2 GROUP        1 Z    GLL  0     **** GLL Z 20
@<TRIPOS>SET

