#    Name: 2w0u_C7C_2_ligand
#    Modification time : Tue Mar 25 03:28:52 2014

@<TRIPOS>MOLECULE
2w0u_C7C_2_ligand
   20    21     1     0     0
SMALL
NO_CHARGES


@<TRIPOS>ATOM
      1 CL        -59.6830   37.5620   -5.6760 Cl        1 C7C1364     0.0000 
      2 C1        -59.5840   35.8420   -6.1810 C.ar      1 C7C1364     0.0000 
      3 C2        -58.4640   35.0860   -5.8570 C.ar      1 C7C1364     0.0000 
      4 C3        -58.3880   33.7540   -6.2480 C.ar      1 C7C1364     0.0000 
      5 C6        -60.6280   35.2670   -6.8960 C.ar      1 C7C1364     0.0000 
      6 C5        -60.5520   33.9350   -7.2880 C.ar      1 C7C1364     0.0000 
      7 C4        -59.4310   33.1790   -6.9630 C.ar      1 C7C1364     0.0000 
      8 S8        -59.3380   31.5550   -7.4400 S.3       1 C7C1364     0.0000 
      9 C9        -59.0680   31.4680   -9.1620 C.2       1 C7C1364     0.0000 
     10 C13       -58.9970   30.2160   -9.9500 C.2       1 C7C1364     0.0000 
     11 C14       -59.1600   28.8950   -9.2810 C.2       1 C7C1364     0.0000 
     12 O15       -59.1000   28.8360   -8.0340 O.co2     1 C7C1364     0.0000 
     13 O16       -59.3530   27.8790   -9.9840 O.co2     1 C7C1364     0.0000 
     14 S10       -58.8450   32.8240  -10.1960 S.3       1 C7C1364     0.0000 
     15 N11       -58.6630   31.8830  -11.6000 N.2       1 C7C1364     0.0000 
     16 N12       -58.7740   30.4980  -11.2720 N.2       1 C7C1364     0.0000 
     17 H         -57.6914   35.5113   -5.3282 H         1 C7C1364     0.0000 
     18 H         -57.5589   33.1945   -6.0075 H         1 C7C1364     0.0000 
     19 H         -61.4571   35.8266   -7.1354 H         1 C7C1364     0.0000 
     20 H         -61.3235   33.5097   -7.8174 H         1 C7C1364     0.0000 
@<TRIPOS>BOND
     1    2    1 1    
     2    3    2 ar   
     3    5    2 ar   
     4    4    3 ar   
     5   17    3 1    
     6    7    4 ar   
     7   18    4 1    
     8    6    5 ar   
     9   19    5 1    
    10    7    6 ar   
    11   20    6 1    
    12    8    7 1    
    13    9    8 1    
    14   10    9 2    
    15   14    9 1    
    16   11   10 1    
    17   16   10 1    
    18   12   11 ar   
    19   13   11 ar   
    20   15   14 1    
    21   16   15 2    
@<TRIPOS>SUBSTRUCTURE
     1 C7C1364     1 GROUP   
@<TRIPOS>SET

