#    Name: 2jt2_C90_1_INTS_M
#    Modification time : Tue Mar 25 21:14:09 2014

@<TRIPOS>MOLECULE
2jt2_C90_1_INTS_M
   84     0    12     0     0
SMALL
NO_CHARGES


@<TRIPOS>ATOM
      1 CA         -9.7675    1.4170   -1.2700 C.3       4 GLC5        0.0000 
      2 CA         -8.4040    2.3260   -0.3000 C.3      12 GLL5        0.0000 
      3 CA        -11.1310    0.5080   -2.2400 C.3       8 GLP5        0.0000 
      4 CA         -7.1575    2.1715   -1.8735 C.3       4 GLC5        0.0000 
      5 CA         -5.9110    2.0170   -3.4470 C.3       8 GLP5        0.0000 
      6 CA        -18.2440   12.9900   -0.8275 C.3       4 GLC5        0.0000 
      7 CA        -19.0550   14.8290   -0.9790 C.3      12 GLL5        0.0000 
      8 CA        -17.4330   11.1510   -0.6760 C.3       8 GLP5        0.0000 
      9 CA        -18.6160   11.5925   -3.5345 C.3       4 GLC5        0.0000 
     10 CA        -19.0860   13.6300   -3.0490 C.3      12 GLL5        0.0000 
     11 CA        -18.1460    9.5550   -4.0200 C.3       8 GLP5        0.0000 
     12 CA        -20.0305   12.5965   -4.4245 C.3       4 GLC5        0.0000 
     13 CA        -20.9750   11.5630   -5.8000 C.3       8 GLP5        0.0000 
     14 CA        -17.1180   13.7980    0.2560 C.3       4 GLC5        0.0000 
     15 CA        -17.5520   15.0520   -1.1540 C.3      12 GLL5        0.0000 
     16 CA        -16.6840   12.5440    1.6660 C.3       8 GLP5        0.0000 
     17 CA        -16.5030   15.6790    0.6155 C.3       4 GLC5        0.0000 
     18 CA        -15.4540   16.3060    2.3850 C.3       8 GLP5        0.0000 
     19 CA        -16.8660   13.2010   -5.1130 C.3       4 GLC5        0.0000 
     20 CA        -17.5860   13.8890   -3.2150 C.3      12 GLL5        0.0000 
     21 CA        -16.1460   12.5130   -7.0110 C.3       8 GLP5        0.0000 
     22 CA        -16.6690   12.0725   -3.6010 C.3       4 GLC5        0.0000 
     23 CA        -15.7520   10.2560   -3.9870 C.3       8 GLP5        0.0000 
     24 CA        -15.3440   12.9360   -5.0785 C.3       4 GLC5        0.0000 
     25 CA        -14.5420   13.3590   -3.1460 C.3      12 GLL5        0.0000 
     26 CA        -11.9280   13.0640   -2.2255 C.3       4 GLC5        0.0000 
     27 CA        -13.7080   12.3340   -2.6860 C.3      12 GLL5        0.0000 
     28 CA        -10.1480   13.7940   -1.7650 C.3       8 GLP5        0.0000 
     29 CA         -9.5025    7.8005   -2.2630 C.3       4 GLC5        0.0000 
     30 CA        -10.9320    8.0350   -0.6770 C.3      12 GLL5        0.0000 
     31 CA         -8.0730    7.5660   -3.8490 C.3       8 GLP5        0.0000 
     32 CA         -9.8390   11.2975    2.0380 C.3       4 GLC5        0.0000 
     33 CA        -10.0840    9.4550    1.0960 C.3      12 GLL5        0.0000 
     34 CA         -9.5940   13.1400    2.9800 C.3       8 GLP5        0.0000 
     35 CA         -8.8880    6.5810   -1.7900 C.3       4 GLC5        0.0000 
     36 CA        -10.1450    6.9770   -0.2090 C.3      12 GLL5        0.0000 
     37 CA         -7.6310    6.1850   -3.3710 C.3       8 GLP5        0.0000 
     38 CA        -11.0190    5.8500   -1.9085 C.3       4 GLC5        0.0000 
     39 CA        -11.8930    4.7230   -3.6080 C.3       8 GLP5        0.0000 
     40 O          -8.1405    5.5575   -0.7400 O.2       1 ALC1        0.0000 
     41 O          -8.1210    5.1750    0.5960 O.2       9 ALL1        0.0000 
     42 O          -8.1600    5.9400   -2.0760 O.2       5 ALP1        0.0000 
     43 N          -8.3505    0.4160    2.1180 N.am      2 SEC2        0.0000 
     44 N          -7.4250    1.7480    1.8300 N.am     10 SEL2        0.0000 
     45 N          -9.2760   -0.9160    2.4060 N.am      6 SEP2        0.0000 
     46 O          -6.1995    1.7170    0.6625 O.2       1 ALC1        0.0000 
     47 O          -7.4250    1.7480    1.8300 O.2       9 ALL1        0.0000 
     48 O          -4.9740    1.6860   -0.5050 O.2       5 ALP1        0.0000 
     49 Zn         -5.1795    3.7085   -1.3985 Zn        3 ZIC7        0.0000 
     50 Zn         -6.1690    3.8450   -0.9490 Zn       11 ZIL7        0.0000 
     51 Zn         -4.1900    3.5720   -1.8480 Zn        7 ZIP7        0.0000 
     52 N          -7.1645    4.8925   -1.5125 N.am      2 SEC2        0.0000 
     53 N          -6.1690    3.8450   -0.9490 N.am     10 SEL2        0.0000 
     54 N          -8.1600    5.9400   -2.0760 N.am      6 SEP2        0.0000 
     55 Zn         -4.0065    3.5745   -0.8625 Zn        3 ZIC7        0.0000 
     56 Zn         -3.8230    3.5770    0.1230 Zn       11 ZIL7        0.0000 
     57 CA        -16.0883   12.5102   -1.6938 C.3       4 GLC5        0.0000 
     58 CA        -15.4615   11.7415   -1.3487 C.3       4 GLC5        0.0000 
     59 CA        -13.0360    8.9633   -0.4962 C.3       4 GLC5        0.0000 
     60 CA        -12.4300   11.2720   -0.8900 C.3      12 GLL5        0.0000 
     61 CA        -13.9990    7.1130   -0.3020 C.3       8 GLP5        0.0000 
     62 CA        -12.1638    9.1410    1.5350 C.3       4 GLC5        0.0000 
     63 CA        -10.9010    9.2770   -0.0250 C.3      12 GLL5        0.0000 
     64 CA        -13.0190    8.4660    3.3280 C.3       8 GLP5        0.0000 
     65 CA        -11.2157   12.4360   -1.2861 C.3       4 GLC5        0.0000 
     66 CA        -11.7160   10.3550   -0.4910 C.3      12 GLL5        0.0000 
     67 CA         -8.7357    8.7165   -0.6372 C.3       4 GLC5        0.0000 
     68 CA         -7.7330   10.3650   -1.6270 C.3       8 GLP5        0.0000 
     69 CA        -17.8845   12.4552   -1.9040 C.3       4 GLC5        0.0000 
     70 CA        -15.3867   13.2035    0.4747 C.3       4 GLC5        0.0000 
     71 CA        -14.5080   14.3760   -0.9460 C.3      12 GLL5        0.0000 
     72 CA        -14.7718   15.0845    0.8342 C.3       4 GLC5        0.0000 
     73 CA        -13.6710   13.3500   -0.4870 C.3      12 GLL5        0.0000 
     74 CA        -12.1187   13.8285   -1.2407 C.3       4 GLC5        0.0000 
     75 CA        -14.8840   11.5508   -3.2854 C.3       4 GLC5        0.0000 
     76 CA        -12.9744   13.9639   -3.8939 C.3       4 GLC5        0.0000 
     77 CA        -11.7230   14.8260   -5.0890 C.3       8 GLP5        0.0000 
     78 CA        -12.7832   10.6832   -2.8449 C.3       4 GLC5        0.0000 
     79 CA        -12.2870    9.2990   -3.7850 C.3       8 GLP5        0.0000 
     80 CA         -9.4266    9.6452   -1.0473 C.3       4 GLC5        0.0000 
     81 CA        -11.7036    9.1122   -2.1262 C.3       4 GLC5        0.0000 
     82 CA         -8.7135    9.6453   -0.1482 C.3       4 GLC5        0.0000 
     83 CA        -11.3565    8.6958    2.3293 C.3       4 GLC5        0.0000 
     84 CA        -12.2649    7.4648   -0.2910 C.3       4 GLC5        0.0000 
@<TRIPOS>BOND
@<TRIPOS>SUBSTRUCTURE
     1 ALC1       40 GROUP        1 X    ALC  0     ROOT ALC X 1
     2 SEC2       43 GROUP        1 X    SEC  0     **** SEC X 2
     3 ZIC7       49 GROUP        1 X    ZIC  0     **** ZIC X 5
     4 GLC5        1 GROUP        1 X    GLC  0     **** GLC X 6
     5 ALP1       42 GROUP        1 Y    ALP  0     ROOT ALP Y 8
     6 SEP2       45 GROUP        1 Y    SEP  0     **** SEP Y 9
     7 ZIP7       51 GROUP        1 Y    ZIP  0     **** ZIP Y 12
     8 GLP5        3 GROUP        1 Y    GLP  0     **** GLP Y 13
     9 ALL1       41 GROUP        1 Z    ALL  0     ROOT ALL Z 15
    10 SEL2       44 GROUP        1 Z    SEL  0     **** SEL Z 16
    11 ZIL7       50 GROUP        1 Z    ZIL  0     **** ZIL Z 19
    12 GLL5        2 GROUP        1 Z    GLL  0     **** GLL Z 20
@<TRIPOS>SET

