#    Name: 2jt2_C90_1_ligand
#    Modification time : Tue Mar 25 21:14:09 2014

@<TRIPOS>MOLECULE
2jt2_C90_1_ligand
   59    61     1     0     0
SMALL
NO_CHARGES


@<TRIPOS>ATOM
      1 C5        -15.8510   15.4850   -2.7780 C.3       1 C90501      0.0000 
      2 C6        -14.9450   14.3800   -2.2770 C.ar      1 C90501      0.0000 
      3 C9        -13.2720   12.3300   -1.3570 C.ar      1 C90501      0.0000 
      4 C10       -12.4300   11.2720   -0.8900 C.1       1 C90501      0.0000 
      5 O1        -19.6870   14.6780   -2.2650 O.3       1 C90501      0.0000 
      6 C11       -11.7160   10.3550   -0.4910 C.1       1 C90501      0.0000 
      7 C12       -10.9010    9.2770   -0.0250 C.ar      1 C90501      0.0000 
      8 C19        -8.1350    2.7680    1.1420 C.3       1 C90501      0.0000 
      9 C15        -9.3320    7.1590    0.9140 C.ar      1 C90501      0.0000 
     10 C16        -8.5600    6.1040    1.4040 C.2       1 C90501      0.0000 
     11 C18        -7.3060    4.0520    1.1380 C.3       1 C90501      0.0000 
     12 C21        -8.4040    2.3260   -0.3000 C.3       1 C90501      0.0000 
     13 C22        -6.0710    3.8650    0.2600 C.2       1 C90501      0.0000 
     14 CA1       -19.0550   14.8290   -0.9790 C.3       1 C90501      0.0000 
     15 CA2       -19.0860   13.6300   -3.0490 C.3       1 C90501      0.0000 
     16 CB1       -17.5520   15.0520   -1.1540 C.3       1 C90501      0.0000 
     17 CB2       -17.5860   13.8890   -3.2150 C.3       1 C90501      0.0000 
     18 N4        -17.2480   15.1430   -2.5690 N.4       1 C90501      0.0000 
     19 CC1       -14.5080   14.3760   -0.9460 C.ar      1 C90501      0.0000 
     20 CC2       -14.5420   13.3590   -3.1460 C.ar      1 C90501      0.0000 
     21 CD1       -13.6710   13.3500   -0.4870 C.ar      1 C90501      0.0000 
     22 CD2       -13.7080   12.3340   -2.6860 C.ar      1 C90501      0.0000 
     23 CE1       -10.9320    8.0350   -0.6770 C.ar      1 C90501      0.0000 
     24 CE2       -10.0840    9.4550    1.0960 C.ar      1 C90501      0.0000 
     25 CF1       -10.1450    6.9770   -0.2090 C.ar      1 C90501      0.0000 
     26 CF         -9.3040    8.3960    1.5650 C.ar      1 C90501      0.0000 
     27 O16        -8.3110    6.0640    2.5930 O.2       1 C90501      0.0000 
     28 N17        -8.1210    5.1750    0.5960 N.am      1 C90501      0.0000 
     29 O20        -7.4250    1.7480    1.8300 O.3       1 C90501      0.0000 
     30 N23        -4.9150    3.7340    0.8500 N.am      1 C90501      0.0000 
     31 O22        -6.1690    3.8450   -0.9490 O.2       1 C90501      0.0000 
     32 O24        -3.8230    3.5770    0.1230 O.3       1 C90501      0.0000 
     33 H         -15.6437   15.6461   -3.8451 H         1 C90501      0.0000 
     34 H         -15.5923   16.4123   -2.2481 H         1 C90501      0.0000 
     35 H          -9.0805    2.9799    1.6092 H         1 C90501      0.0000 
     36 H          -6.9937    4.2707    2.1356 H         1 C90501      0.0000 
     37 H         -19.1928   13.9369   -0.3575 H         1 C90501      0.0000 
     38 H         -19.4610   15.6870   -0.4311 H         1 C90501      0.0000 
     39 H         -19.5294   13.5725   -4.0497 H         1 C90501      0.0000 
     40 H         -19.2066   12.6513   -2.5708 H         1 C90501      0.0000 
     41 H         -17.0284   14.2165   -0.6885 H         1 C90501      0.0000 
     42 H         -17.2816   15.9693   -0.6302 H         1 C90501      0.0000 
     43 H         -17.3634   13.9191   -4.2816 H         1 C90501      0.0000 
     44 H         -17.0465   13.0540   -2.7680 H         1 C90501      0.0000 
     45 H         -17.8747   15.9382   -3.0061 H         1 C90501      0.0000 
     46 H         -14.8001   15.1228   -0.3082 H         1 C90501      0.0000 
     47 H         -14.8590   13.3627   -4.1219 H         1 C90501      0.0000 
     48 H         -13.3516   13.3481    0.4873 H         1 C90501      0.0000 
     49 H         -13.4164   11.5855   -3.3237 H         1 C90501      0.0000 
     50 H         -11.5329    7.9042   -1.4976 H         1 C90501      0.0000 
     51 H         -10.0584   10.3628    1.5725 H         1 C90501      0.0000 
     52 H         -10.1647    6.0718   -0.6880 H         1 C90501      0.0000 
     53 H          -8.7071    8.5255    2.3914 H         1 C90501      0.0000 
     54 H          -8.2916    5.1455   -0.4157 H         1 C90501      0.0000 
     55 H          -4.8444    3.7522    1.8997 H         1 C90501      0.0000 
     56 H          -7.5555    2.1452   -0.7974 H         1 C90501      0.0000 
     57 H          -8.9492    1.4884   -0.3362 H         1 C90501      0.0000 
     58 H          -8.9029    3.0229   -0.8151 H         1 C90501      0.0000 
     59 H          -6.6403    1.5400    1.2460 H         1 C90501      0.0000 
@<TRIPOS>BOND
     1    2    1 1    
     2   18    1 1    
     3   33    1 1    
     4   34    1 1    
     5   19    2 ar   
     6   20    2 ar   
     7    4    3 1    
     8   21    3 ar   
     9   22    3 ar   
    10    6    4 3    
    11   14    5 1    
    12   15    5 1    
    13    7    6 1    
    14   23    7 ar   
    15   24    7 ar   
    16   11    8 1    
    17   12    8 1    
    18   29    8 1    
    19   35    8 1    
    20   10    9 1    
    21   25    9 ar   
    22   26    9 ar   
    23   27   10 2    
    24   28   10 am   
    25   13   11 1    
    26   28   11 1    
    27   36   11 1    
    28   56   12 1    
    29   57   12 1    
    30   58   12 1    
    31   30   13 am   
    32   31   13 2    
    33   16   14 1    
    34   37   14 1    
    35   38   14 1    
    36   17   15 1    
    37   39   15 1    
    38   40   15 1    
    39   18   16 1    
    40   41   16 1    
    41   42   16 1    
    42   18   17 1    
    43   43   17 1    
    44   44   17 1    
    45   45   18 1    
    46   21   19 ar   
    47   46   19 1    
    48   22   20 ar   
    49   47   20 1    
    50   48   21 1    
    51   49   22 1    
    52   25   23 ar   
    53   50   23 1    
    54   26   24 ar   
    55   51   24 1    
    56   52   25 1    
    57   53   26 1    
    58   54   28 1    
    59   59   29 1    
    60   32   30 1    
    61   55   30 1    
@<TRIPOS>SUBSTRUCTURE
     1 C90501      1 GROUP   
@<TRIPOS>SET

