#    Name: 1ek6_UPG_1_INTS_M
#    Modification time : Tue Mar 25 00:02:50 2014

@<TRIPOS>MOLECULE
1ek6_UPG_1_INTS_M
   81     0    12     0     0
SMALL
NO_CHARGES


@<TRIPOS>ATOM
      1 O          25.5340   28.6285   -7.1620 O.2       1 ALC1        0.0000 
      2 O          24.7120   28.3550   -6.0410 O.2       9 ALL1        0.0000 
      3 O          26.3560   28.9020   -8.2830 O.2       5 ALP1        0.0000 
      4 CA         22.6785   29.9875   -2.3425 C.3       4 GLC5        0.0000 
      5 CA         23.8310   28.9440   -3.9360 C.3      12 GLL5        0.0000 
      6 CA         21.5260   31.0310   -0.7490 C.3       8 GLP5        0.0000 
      7 CA         22.1170   29.4775   -4.0760 C.3       4 GLC5        0.0000 
      8 CA         20.4030   30.0110   -4.2160 C.3       8 GLP5        0.0000 
      9 CA         21.6435   28.1565   -4.2065 C.3       4 GLC5        0.0000 
     10 CA         23.3720   27.7150   -3.8190 C.3      12 GLL5        0.0000 
     11 CA         19.9150   28.5980   -4.5940 C.3       8 GLP5        0.0000 
     12 N          25.7945   25.7465   -7.2660 N.am      2 SEC2        0.0000 
     13 N          24.4600   26.2350   -6.8110 N.am     10 SEL2        0.0000 
     14 N          27.1290   25.2580   -7.7210 N.am      6 SEP2        0.0000 
     15 CA         21.9420   26.9815   -5.7205 C.3       4 GLC5        0.0000 
     16 CA         23.0340   25.4160   -4.5850 C.3      12 GLL5        0.0000 
     17 CA         20.8500   28.5470   -6.8560 C.3       8 GLP5        0.0000 
     18 CA         22.2140   24.5400   -5.9810 C.3       4 GLC5        0.0000 
     19 CA         21.3940   23.6640   -7.3770 C.3       8 GLP5        0.0000 
     20 O          25.6245   23.5125   -2.8670 O.2       1 ALC1        0.0000 
     21 O          24.8010   23.9110   -3.7780 O.2       9 ALL1        0.0000 
     22 O          26.4480   23.1140   -1.9560 O.2       5 ALP1        0.0000 
     23 CA         18.5710   25.2115   -2.9935 C.3       4 GLC5        0.0000 
     24 CA         20.6360   25.2720   -2.2180 C.3      12 GLL5        0.0000 
     25 CA         16.5060   25.1510   -3.7690 C.3       8 GLP5        0.0000 
     26 N          23.1785   25.9450   -0.8705 N.am      2 SEC2        0.0000 
     27 N          21.6700   26.0300   -1.5390 N.am     10 SEL2        0.0000 
     28 N          24.6870   25.8600   -0.2020 N.am      6 SEP2        0.0000 
     29 N          20.5340   29.0055    0.4675 N.am      2 SEC2        0.0000 
     30 N          20.2270   28.0630   -0.8670 N.am     10 SEL2        0.0000 
     31 N          20.8410   29.9480    1.8020 N.am      6 SEP2        0.0000 
     32 N          20.4570   29.0700   -1.8335 N.am      2 SEC2        0.0000 
     33 N          20.6870   30.0770   -2.8000 N.am      6 SEP2        0.0000 
     34 NZ         24.0140   27.8750   -0.1650 N.4       3 LYC4        0.0000 
     35 NZ         22.4750   27.7670    0.1070 N.4      11 LYL4        0.0000 
     36 NZ         25.7380   26.6710   -0.3280 N.4       7 LYP4        0.0000 
     37 N          21.6580   28.8575    0.9545 N.am      2 SEC2        0.0000 
     38 N          22.4750   27.7670    0.1070 N.am     10 SEL2        0.0000 
     39 N          24.0140   27.8750   -0.1650 N.am      2 SEC2        0.0000 
     40 N          25.5530   27.9830   -0.4370 N.am      6 SEP2        0.0000 
     41 N          23.5810   26.8135   -0.0475 N.am      2 SEC2        0.0000 
     42 NZ         20.3580   22.6825    0.4195 N.4       3 LYC4        0.0000 
     43 NZ         20.3040   23.8520    1.2330 N.4      11 LYL4        0.0000 
     44 NZ         21.2750   20.6270   -0.9020 N.4       7 LYP4        0.0000 
     45 N          18.9210   24.4155    0.9330 N.am      2 SEC2        0.0000 
     46 N          20.3040   23.8520    1.2330 N.am     10 SEL2        0.0000 
     47 N          17.5380   24.9790    0.6330 N.am      6 SEP2        0.0000 
     48 N          20.3580   22.6825    0.4195 N.am      2 SEC2        0.0000 
     49 N          20.4120   21.5130   -0.3940 N.am      6 SEP2        0.0000 
     50 CA         18.4895   24.9575    8.2135 C.3       4 GLC5        0.0000 
     51 CA         19.1870   25.6460    6.3630 C.3      12 GLL5        0.0000 
     52 CA         17.7920   24.2690   10.0640 C.3       8 GLP5        0.0000 
     53 CA         17.1170   21.8725    6.1555 C.3       4 GLC5        0.0000 
     54 CA         17.9680   23.5230    5.5370 C.3      12 GLL5        0.0000 
     55 CA         16.2660   20.2220    6.7740 C.3       8 GLP5        0.0000 
     56 CA         15.8515   23.3200    5.1780 C.3       4 GLC5        0.0000 
     57 CA         13.7350   23.1170    4.8190 C.3       8 GLP5        0.0000 
     58 N          20.5815   29.2235    2.9760 N.am      2 SEC2        0.0000 
     59 N          20.3220   28.4990    4.1500 N.am     10 SEL2        0.0000 
     60 N          19.2055   24.3615    8.2015 N.am      2 SEC2        0.0000 
     61 N          19.8840   24.9920    7.4360 N.am     10 SEL2        0.0000 
     62 N          18.5270   23.7310    8.9670 N.am      6 SEP2        0.0000 
     63 O          17.0030   23.0280    2.9905 O.2       1 ALC1        0.0000 
     64 O          17.6850   22.7110    4.3480 O.2       9 ALL1        0.0000 
     65 O          16.3210   23.3450    1.6330 O.2       5 ALP1        0.0000 
     66 CA         25.4192   28.2508   -3.8812 C.3       4 GLC5        0.0000 
     67 CA         27.2370   28.1720   -3.8850 C.3       8 GLP5        0.0000 
     68 CA         25.2437   25.9130   -4.0808 C.3       4 GLC5        0.0000 
     69 CA         27.1650   26.8020   -4.1570 C.3       8 GLP5        0.0000 
     70 CA         21.6220   23.8900   -5.2938 C.3       4 GLC5        0.0000 
     71 CA         21.2510   24.5450   -3.3850 C.3      12 GLL5        0.0000 
     72 CA         20.4292   26.7533   -3.6978 C.3       4 GLC5        0.0000 
     73 CA         19.8420   23.4305   -2.2381 C.3       4 GLC5        0.0000 
     74 CA         18.4410   22.1670   -1.7620 C.3       8 GLP5        0.0000 
     75 CA         18.1010   27.4427    6.1465 C.3       4 GLC5        0.0000 
     76 CA         19.4530   27.3970    4.5240 C.3      12 GLL5        0.0000 
     77 CA         16.4890   27.7560    7.0980 C.3       8 GLP5        0.0000 
     78 CA         20.7475   26.6035    7.8742 C.3       4 GLC5        0.0000 
     79 CA         19.9730   26.8620    5.8660 C.3      12 GLL5        0.0000 
     80 CA         21.9150   26.9530    9.6340 C.3       8 GLP5        0.0000 
     81 CA         17.7773   26.4558    6.4388 C.3       4 GLC5        0.0000 
@<TRIPOS>BOND
@<TRIPOS>SUBSTRUCTURE
     1 ALC1        1 GROUP        1 X    ALC  0     ROOT ALC X 1
     2 SEC2       12 GROUP        1 X    SEC  0     **** SEC X 2
     3 LYC4       34 GROUP        1 X    LYC  0     **** LYC X 4
     4 GLC5        4 GROUP        1 X    GLC  0     **** GLC X 6
     5 ALP1        3 GROUP        1 Y    ALP  0     ROOT ALP Y 8
     6 SEP2       14 GROUP        1 Y    SEP  0     **** SEP Y 9
     7 LYP4       36 GROUP        1 Y    LYP  0     **** LYP Y 11
     8 GLP5        6 GROUP        1 Y    GLP  0     **** GLP Y 13
     9 ALL1        2 GROUP        1 Z    ALL  0     ROOT ALL Z 15
    10 SEL2       13 GROUP        1 Z    SEL  0     **** SEL Z 16
    11 LYL4       35 GROUP        1 Z    LYL  0     **** LYL Z 18
    12 GLL5        5 GROUP        1 Z    GLL  0     **** GLL Z 20
@<TRIPOS>SET

