#    Name: 1ek6_UPG_1_ligand
#    Modification time : Tue Mar 25 00:02:50 2014

@<TRIPOS>MOLECULE
1ek6_UPG_1_ligand
   58    60     1     0     0
SMALL
NO_CHARGES


@<TRIPOS>ATOM
      1 N1         23.5740   26.7540   -4.7710 N.am      1 UPG401      0.0000 
      2 C2         24.2610   27.0520   -5.9350 C.2       1 UPG401      0.0000 
      3 N3         24.7120   28.3550   -6.0410 N.am      1 UPG401      0.0000 
      4 C4         24.5560   29.3650   -5.0950 C.2       1 UPG401      0.0000 
      5 C5         23.8310   28.9440   -3.9360 C.2       1 UPG401      0.0000 
      6 C6         23.3720   27.7150   -3.8190 C.2       1 UPG401      0.0000 
      7 O2         24.4600   26.2350   -6.8110 O.2       1 UPG401      0.0000 
      8 O4         25.0110   30.4730   -5.3170 O.2       1 UPG401      0.0000 
      9 C1C        23.0340   25.4160   -4.5850 C.3       1 UPG401      0.0000 
     10 C2C        23.6110   24.6320   -3.4240 C.3       1 UPG401      0.0000 
     11 O2C        24.8010   23.9110   -3.7780 O.3       1 UPG401      0.0000 
     12 C3C        22.4490   23.6870   -3.0360 C.3       1 UPG401      0.0000 
     13 C4C        21.2510   24.5450   -3.3850 C.3       1 UPG401      0.0000 
     14 O4C        21.6840   25.5330   -4.3630 O.3       1 UPG401      0.0000 
     15 O3C        22.4020   22.4820   -3.7850 O.3       1 UPG401      0.0000 
     16 C5C        20.6360   25.2720   -2.2180 C.3       1 UPG401      0.0000 
     17 O5C        21.6700   26.0300   -1.5390 O.3       1 UPG401      0.0000 
     18 PA         21.2630   27.1220   -0.4240 P.3       1 UPG401      0.0000 
     19 O1A        20.2270   28.0630   -0.8670 O.co2     1 UPG401      0.0000 
     20 O2A        22.4750   27.7670    0.1070 O.co2     1 UPG401      0.0000 
     21 O3A        20.4970   26.2300    0.7140 O.3       1 UPG401      0.0000 
     22 PB         20.9830   25.0880    1.6750 P.3       1 UPG401      0.0000 
     23 O1B        22.4410   24.9530    1.7310 O.co2     1 UPG401      0.0000 
     24 O2B        20.3040   23.8520    1.2330 O.co2     1 UPG401      0.0000 
     25 O3B        20.5350   25.5880    3.1830 O.3       1 UPG401      0.0000 
     26 C1'        19.3230   26.2920    3.4520 C.3       1 UPG401      0.0000 
     27 C2'        19.4530   27.3970    4.5240 C.3       1 UPG401      0.0000 
     28 C3'        19.9730   26.8620    5.8660 C.3       1 UPG401      0.0000 
     29 C4'        19.1870   25.6460    6.3630 C.3       1 UPG401      0.0000 
     30 C5'        18.9440   24.6650    5.1960 C.3       1 UPG401      0.0000 
     31 C6'        17.9680   23.5230    5.5370 C.3       1 UPG401      0.0000 
     32 O2'        20.3220   28.4990    4.1500 O.3       1 UPG401      0.0000 
     33 O3'        20.0100   27.8550    6.9240 O.3       1 UPG401      0.0000 
     34 O4'        19.8840   24.9920    7.4360 O.3       1 UPG401      0.0000 
     35 O5'        18.4230   25.3450    4.0200 O.3       1 UPG401      0.0000 
     36 O6'        17.6850   22.7110    4.3480 O.3       1 UPG401      0.0000 
     37 H          25.2359   28.6182   -6.9425 H         1 UPG401      0.0000 
     38 H          23.6878   29.6648   -3.1918 H         1 UPG401      0.0000 
     39 H          22.8177   27.4367   -2.9546 H         1 UPG401      0.0000 
     40 H          23.2082   24.8246   -5.4948 H         1 UPG401      0.0000 
     41 H          23.7498   25.3077   -2.6045 H         1 UPG401      0.0000 
     42 H          22.4641   23.5629   -1.9877 H         1 UPG401      0.0000 
     43 H          20.4947   23.9112   -3.8440 H         1 UPG401      0.0000 
     44 H          20.1842   24.5388   -1.5467 H         1 UPG401      0.0000 
     45 H          19.8491   25.9310   -2.5905 H         1 UPG401      0.0000 
     46 H          18.8950   26.7243    2.5788 H         1 UPG401      0.0000 
     47 H          18.4409   27.7916    4.7249 H         1 UPG401      0.0000 
     48 H          21.0137   26.4979    5.6897 H         1 UPG401      0.0000 
     49 H          18.2112   25.9981    6.6949 H         1 UPG401      0.0000 
     50 H          19.9042   24.1986    4.9407 H         1 UPG401      0.0000 
     51 H          17.0510   23.9689    5.9329 H         1 UPG401      0.0000 
     52 H          18.4207   22.9158    6.3261 H         1 UPG401      0.0000 
     53 H          25.4597   24.1296   -3.0581 H         1 UPG401      0.0000 
     54 H          23.2758   22.4446   -4.2699 H         1 UPG401      0.0000 
     55 H          21.2464   28.1183    4.1716 H         1 UPG401      0.0000 
     56 H          20.2255   28.7160    6.4633 H         1 UPG401      0.0000 
     57 H          20.0834   24.0740    7.0933 H         1 UPG401      0.0000 
     58 H          17.5681   23.3710    3.6059 H         1 UPG401      0.0000 
@<TRIPOS>BOND
     1    2    1 1    
     2    6    1 1    
     3    9    1 1    
     4    3    2 1    
     5    7    2 2    
     6    4    3 1    
     7   37    3 1    
     8    5    4 1    
     9    8    4 2    
    10    6    5 2    
    11   38    5 1    
    12   39    6 1    
    13   10    9 1    
    14   14    9 1    
    15   40    9 1    
    16   11   10 1    
    17   12   10 1    
    18   41   10 1    
    19   53   11 1    
    20   13   12 1    
    21   15   12 1    
    22   42   12 1    
    23   14   13 1    
    24   16   13 1    
    25   43   13 1    
    26   54   15 1    
    27   17   16 1    
    28   44   16 1    
    29   45   16 1    
    30   18   17 1    
    31   19   18 ar   
    32   20   18 ar   
    33   21   18 1    
    34   22   21 1    
    35   23   22 ar   
    36   24   22 ar   
    37   25   22 1    
    38   26   25 1    
    39   27   26 1    
    40   35   26 1    
    41   46   26 1    
    42   28   27 1    
    43   32   27 1    
    44   47   27 1    
    45   29   28 1    
    46   33   28 1    
    47   48   28 1    
    48   30   29 1    
    49   34   29 1    
    50   49   29 1    
    51   31   30 1    
    52   35   30 1    
    53   50   30 1    
    54   36   31 1    
    55   51   31 1    
    56   52   31 1    
    57   55   32 1    
    58   56   33 1    
    59   57   34 1    
    60   58   36 1    
@<TRIPOS>SUBSTRUCTURE
     1 UPG401      1 GROUP   
@<TRIPOS>SET

