#    Name: 3k22_JZS_1_INTS_M
#    Modification time : Mon Mar 24 17:58:47 2014

@<TRIPOS>MOLECULE
3k22_JZS_1_INTS_M
   85     0     6     0     0
SMALL
NO_CHARGES


@<TRIPOS>ATOM
      1 CA        -21.5960   34.2045    9.7520 C.3       2 GLC5        0.0000 
      2 CA        -22.8280   33.2100   10.9460 C.3       6 GLL5        0.0000 
      3 CA        -20.3640   35.1990    8.5580 C.3       4 GLP5        0.0000 
      4 CA        -24.1105   34.7485   11.2230 C.3       2 GLC5        0.0000 
      5 CA        -25.3930   36.2870   11.5000 C.3       4 GLP5        0.0000 
      6 CA        -16.5965   27.0655   18.8185 C.3       2 GLC5        0.0000 
      7 CA        -16.8810   26.7220   20.5400 C.3       6 GLL5        0.0000 
      8 CA        -16.3120   27.4090   17.0970 C.3       4 GLP5        0.0000 
      9 CA        -16.1010   27.2640   24.2780 C.3       2 GLC5        0.0000 
     10 CA        -15.8800   26.2100   22.3890 C.3       6 GLL5        0.0000 
     11 CA        -16.3220   28.3180   26.1670 C.3       4 GLP5        0.0000 
     12 CA        -14.6625   25.7955   23.4795 C.3       2 GLC5        0.0000 
     13 CA        -13.4450   25.3810   24.5700 C.3       4 GLP5        0.0000 
     14 O         -16.4430   23.7530   22.0540 O.2       1 ALC1        0.0000 
     15 O         -17.5590   24.2250   21.4590 O.2       5 ALL1        0.0000 
     16 O         -15.3270   23.2810   22.6490 O.2       3 ALP1        0.0000 
     17 CA        -17.4125   29.3925   22.2165 C.3       2 GLC5        0.0000 
     18 CA        -17.5080   27.6330   22.4200 C.3       6 GLL5        0.0000 
     19 CA        -17.3170   31.1520   22.0130 C.3       4 GLP5        0.0000 
     20 CA        -18.7615   28.7010   23.0845 C.3       2 GLC5        0.0000 
     21 CA        -20.0150   29.7690   23.7490 C.3       4 GLP5        0.0000 
     22 CA        -16.9150   27.9755   24.2935 C.3       2 GLC5        0.0000 
     23 CA        -16.6645   26.7655   25.1470 C.3       2 GLC5        0.0000 
     24 CA        -17.0070   25.2130   24.1270 C.3       6 GLL5        0.0000 
     25 CA        -15.2260   25.2970   24.3485 C.3       2 GLC5        0.0000 
     26 O         -18.0460   24.8725   19.2280 O.2       1 ALC1        0.0000 
     27 O         -19.2800   25.4900   19.9980 O.2       5 ALL1        0.0000 
     28 O         -16.8120   24.2550   18.4580 O.2       3 ALP1        0.0000 
     29 CA        -19.2845   23.3555   25.4220 C.3       2 GLC5        0.0000 
     30 CA        -18.6900   23.9170   23.7500 C.3       6 GLL5        0.0000 
     31 CA        -19.8790   22.7940   27.0940 C.3       4 GLP5        0.0000 
     32 O         -18.3935   32.6625   12.5120 O.2       1 ALC1        0.0000 
     33 O         -19.8260   32.3630   11.9010 O.2       5 ALL1        0.0000 
     34 O         -16.9610   32.9620   13.1230 O.2       3 ALP1        0.0000 
     35 CA        -25.1250   27.9015   14.1665 C.3       2 GLC5        0.0000 
     36 CA        -23.2460   27.6230   13.1550 C.3       6 GLL5        0.0000 
     37 CA        -27.0040   28.1800   15.1780 C.3       4 GLP5        0.0000 
     38 CA        -19.5075   27.9055   23.9245 C.3       2 GLC5        0.0000 
     39 CA        -19.0000   26.0420   24.1000 C.3       6 GLL5        0.0000 
     40 CA        -19.7070   24.9925   25.8845 C.3       2 GLC5        0.0000 
     41 CA        -20.4140   23.9430   27.6690 C.3       4 GLP5        0.0000 
     42 CA        -18.4130   27.0150   25.5990 C.3       2 GLC5        0.0000 
     43 CA        -17.8260   27.9880   27.0980 C.3       4 GLP5        0.0000 
     44 CA        -24.4050   26.0880   14.9025 C.3       2 GLC5        0.0000 
     45 CA        -22.6420   26.9220   14.1690 C.3       6 GLL5        0.0000 
     46 CA        -26.1680   25.2540   15.6360 C.3       4 GLP5        0.0000 
     47 CA        -23.3155   24.9395   13.9345 C.3       2 GLC5        0.0000 
     48 CA        -23.9890   22.9570   13.7000 C.3       4 GLP5        0.0000 
     49 CA        -18.3470   26.8345   17.5355 C.3       2 GLC5        0.0000 
     50 CA        -20.3820   26.2600   17.9740 C.3       6 GLL5        0.0000 
     51 CA        -21.4085   28.4695   21.3975 C.3       2 GLC5        0.0000 
     52 CA        -21.3590   26.7260   20.0200 C.3       6 GLL5        0.0000 
     53 CA        -21.4580   30.2130   22.7750 C.3       4 GLP5        0.0000 
     54 CA        -22.4650   29.0930   21.4895 C.3       2 GLC5        0.0000 
     55 CA        -23.4720   27.9730   20.2040 C.3       6 GLL5        0.0000 
     56 CA        -24.7085   29.4630   19.8335 C.3       2 GLC5        0.0000 
     57 CA        -25.9450   30.9530   19.4630 C.3       4 GLP5        0.0000 
     58 CA        -24.6650   26.4540   20.8975 C.3       2 GLC5        0.0000 
     59 CA        -25.8580   24.9350   21.5910 C.3       4 GLP5        0.0000 
     60 CA        -24.3580   28.7310   22.0855 C.3       2 GLC5        0.0000 
     61 CA        -25.2440   29.4890   23.9670 C.3       4 GLP5        0.0000 
     62 CA        -20.1310   28.2825   16.8170 C.3       2 GLC5        0.0000 
     63 CA        -21.4210   26.9120   17.3600 C.3       6 GLL5        0.0000 
     64 CA        -18.8410   29.6530   16.2740 C.3       4 GLP5        0.0000 
     65 CA        -23.8577   32.5045   12.4823 C.3       2 GLC5        0.0000 
     66 CA        -22.1110   32.8860   12.2250 C.3       6 GLL5        0.0000 
     67 CA        -25.2460   31.9610   13.3790 C.3       4 GLP5        0.0000 
     68 CA        -15.4401   27.9643   21.2709 C.3       2 GLC5        0.0000 
     69 CA        -13.9120   28.9070   20.4360 C.3       4 GLP5        0.0000 
     70 CA        -23.8982   30.6148   13.3990 C.3       2 GLC5        0.0000 
     71 CA        -22.1160   29.5780   13.8490 C.3       6 GLL5        0.0000 
     72 CA        -20.3170   29.0280   15.4805 C.3       2 GLC5        0.0000 
     73 CA        -20.3686   29.3896   13.1480 C.3       2 GLC5        0.0000 
     74 CA        -21.4980   28.9000   14.8690 C.3       6 GLL5        0.0000 
     75 CA        -18.7130   29.6950   12.1520 C.3       4 GLP5        0.0000 
     76 CA        -19.7185   28.1367   18.3263 C.3       2 GLC5        0.0000 
     77 CA        -19.0860   30.0700   17.9940 C.3       4 GLP5        0.0000 
     78 CA        -15.9104   24.8086   20.9756 C.3       2 GLC5        0.0000 
     79 CA        -14.5760   23.7150   20.0280 C.3       4 GLP5        0.0000 
     80 CA        -22.1940   29.2566   18.5294 C.3       2 GLC5        0.0000 
     81 CA        -22.3900   27.3740   19.3910 C.3       6 GLL5        0.0000 
     82 CA        -21.6930   30.9300   18.1450 C.3       4 GLP5        0.0000 
     83 CA        -24.3980   26.6711   18.5184 C.3       2 GLC5        0.0000 
     84 CA        -22.4590   27.4930   18.0300 C.3       6 GLL5        0.0000 
     85 CA        -26.1010   25.7590   18.1230 C.3       4 GLP5        0.0000 
@<TRIPOS>BOND
@<TRIPOS>SUBSTRUCTURE
     1 ALC1       14 GROUP        1 X    ALC  0     ROOT ALC X 1
     2 GLC5        1 GROUP        1 X    GLC  0     **** GLC X 6
     3 ALP1       16 GROUP        1 Y    ALP  0     ROOT ALP Y 8
     4 GLP5        3 GROUP        1 Y    GLP  0     **** GLP Y 13
     5 ALL1       15 GROUP        1 Z    ALL  0     ROOT ALL Z 15
     6 GLL5        2 GROUP        1 Z    GLL  0     **** GLL Z 20
@<TRIPOS>SET

