#    Name: 3k22_JZS_1_ligand
#    Modification time : Mon Mar 24 17:58:47 2014

@<TRIPOS>MOLECULE
3k22_JZS_1_ligand
   57    59     1     0     0
SMALL
NO_CHARGES


@<TRIPOS>ATOM
      1 C1        -22.8280   33.2100   10.9460 C.3       1 JZS1        0.0000 
      2 F1        -16.8810   26.7220   20.5400 F         1 JZS1        0.0000 
      3 N1        -22.0060   31.4680   12.4190 N.am      1 JZS1        0.0000 
      4 O1        -21.4610   31.6420   14.6400 O.2       1 JZS1        0.0000 
      5 C2        -22.1110   32.8860   12.2250 C.3       1 JZS1        0.0000 
      6 F2        -15.8800   26.2100   22.3890 F         1 JZS1        0.0000 
      7 N2        -21.1700   26.8370   16.0230 N.pl3     1 JZS1        0.0000 
      8 O2        -17.5590   24.2250   21.4590 O.3       1 JZS1        0.0000 
      9 C3        -21.8320   30.9940   13.6820 C.2       1 JZS1        0.0000 
     10 F3        -17.5080   27.6330   22.4200 F         1 JZS1        0.0000 
     11 N3        -20.0480   26.1760   15.7320 N.2       1 JZS1        0.0000 
     12 O3        -20.4170   34.5550   12.1040 O.2       1 JZS1        0.0000 
     13 C4        -22.1160   29.5780   13.8490 C.ar      1 JZS1        0.0000 
     14 F4        -17.0070   25.2130   24.1270 F         1 JZS1        0.0000 
     15 N4        -19.2800   25.4900   19.9980 N.pl3     1 JZS1        0.0000 
     16 C5        -22.9850   28.9590   12.9890 C.ar      1 JZS1        0.0000 
     17 F5        -18.6900   23.9170   23.7500 F         1 JZS1        0.0000 
     18 N5        -19.8260   32.3630   11.9010 N.am      1 JZS1        0.0000 
     19 C6        -23.2460   27.6230   13.1550 C.ar      1 JZS1        0.0000 
     20 F6        -19.0000   26.0420   24.1000 F         1 JZS1        0.0000 
     21 C7        -22.6420   26.9220   14.1690 C.ar      1 JZS1        0.0000 
     22 C8        -21.7790   27.5670   15.0150 C.ar      1 JZS1        0.0000 
     23 C9        -21.4980   28.9000   14.8690 C.ar      1 JZS1        0.0000 
     24 C10       -19.5610   25.8280   16.9170 C.2       1 JZS1        0.0000 
     25 C11       -20.3820   26.2600   17.9740 C.ar      1 JZS1        0.0000 
     26 C12       -20.3200   26.1470   19.3430 C.ar      1 JZS1        0.0000 
     27 C13       -19.3850   25.7250   21.4160 C.3       1 JZS1        0.0000 
     28 C14       -18.0610   25.3940   22.0550 C.3       1 JZS1        0.0000 
     29 C15       -17.0730   26.4990   21.8480 C.3       1 JZS1        0.0000 
     30 C16       -18.1990   25.1410   23.5190 C.3       1 JZS1        0.0000 
     31 C17       -21.3590   26.7260   20.0200 C.ar      1 JZS1        0.0000 
     32 C18       -22.3900   27.3740   19.3910 C.ar      1 JZS1        0.0000 
     33 C19       -23.4720   27.9730   20.2040 C.3       1 JZS1        0.0000 
     34 C20       -22.4590   27.4930   18.0300 C.ar      1 JZS1        0.0000 
     35 C21       -21.4210   26.9120   17.3600 C.ar      1 JZS1        0.0000 
     36 C22       -20.7120   33.3760   12.0740 C.2       1 JZS1        0.0000 
     37 H         -22.0647   30.8589   11.6068 H         1 JZS1        0.0000 
     38 H         -22.5669   33.3724   13.0384 H         1 JZS1        0.0000 
     39 H         -18.6005   24.9668   19.5996 H         1 JZS1        0.0000 
     40 H         -23.4347   29.4877   12.2308 H         1 JZS1        0.0000 
     41 H         -20.2035   31.4376   11.9350 H         1 JZS1        0.0000 
     42 H         -18.8738   32.6314   11.7548 H         1 JZS1        0.0000 
     43 H         -23.9009   27.1407   12.5135 H         1 JZS1        0.0000 
     44 H         -22.8374   25.9167   14.2920 H         1 JZS1        0.0000 
     45 H         -20.8499   29.3741   15.4984 H         1 JZS1        0.0000 
     46 H         -18.7299   25.3282   17.0808 H         1 JZS1        0.0000 
     47 H         -20.1554   25.0960   21.8656 H         1 JZS1        0.0000 
     48 H         -19.6224   26.7691   21.6277 H         1 JZS1        0.0000 
     49 H         -21.3675   26.6715   21.0744 H         1 JZS1        0.0000 
     50 H         -23.2064   27.9654   17.5667 H         1 JZS1        0.0000 
     51 H         -22.9077   34.1967   10.8046 H         1 JZS1        0.0000 
     52 H         -22.3527   32.8371   10.1491 H         1 JZS1        0.0000 
     53 H         -23.7556   32.8365   10.9354 H         1 JZS1        0.0000 
     54 H         -23.1225   28.6659   20.8347 H         1 JZS1        0.0000 
     55 H         -24.1626   28.4176   19.6335 H         1 JZS1        0.0000 
     56 H         -23.9454   27.2865   20.7558 H         1 JZS1        0.0000 
     57 H         -16.7371   24.0002   21.9825 H         1 JZS1        0.0000 
@<TRIPOS>BOND
     1    5    1 1    
     2   51    1 1    
     3   52    1 1    
     4   53    1 1    
     5   29    2 1    
     6    5    3 1    
     7    9    3 am   
     8   37    3 1    
     9    9    4 2    
    10   36    5 1    
    11   38    5 1    
    12   29    6 1    
    13   11    7 1    
    14   22    7 1    
    15   35    7 1    
    16   28    8 1    
    17   57    8 1    
    18   13    9 1    
    19   29   10 1    
    20   24   11 2    
    21   36   12 2    
    22   16   13 ar   
    23   23   13 ar   
    24   30   14 1    
    25   26   15 1    
    26   27   15 1    
    27   39   15 1    
    28   19   16 ar   
    29   40   16 1    
    30   30   17 1    
    31   36   18 am   
    32   41   18 1    
    33   42   18 1    
    34   21   19 ar   
    35   43   19 1    
    36   30   20 1    
    37   22   21 ar   
    38   44   21 1    
    39   23   22 ar   
    40   45   23 1    
    41   25   24 1    
    42   46   24 1    
    43   26   25 ar   
    44   35   25 ar   
    45   31   26 ar   
    46   28   27 1    
    47   47   27 1    
    48   48   27 1    
    49   29   28 1    
    50   30   28 1    
    51   32   31 ar   
    52   49   31 1    
    53   33   32 1    
    54   34   32 ar   
    55   54   33 1    
    56   55   33 1    
    57   56   33 1    
    58   35   34 ar   
    59   50   34 1    
@<TRIPOS>SUBSTRUCTURE
     1 JZS1        1 GROUP   
@<TRIPOS>SET

