#    Name: 1pmn_984_1_INTS_M
#    Modification time : Mon Mar 24 21:56:33 2014

@<TRIPOS>MOLECULE
1pmn_984_1_INTS_M
   89     0     6     0     0
SMALL
NO_CHARGES


@<TRIPOS>ATOM
      1 CA         22.0725    8.8275   29.3170 C.3       2 GLC5        0.0000 
      2 CA         23.8100    9.7730   30.2840 C.3       6 GLL5        0.0000 
      3 CA         20.3350    7.8820   28.3500 C.3       4 GLP5        0.0000 
      4 CA         25.6815    8.4075   32.8960 C.3       2 GLC5        0.0000 
      5 CA         25.0520    9.3460   31.0580 C.3       6 GLL5        0.0000 
      6 CA         26.3110    7.4690   34.7340 C.3       4 GLP5        0.0000 
      7 CA         21.2360   12.7560   29.1770 C.3       2 GLC5        0.0000 
      8 CA         22.9930   13.7550   29.2460 C.3       6 GLL5        0.0000 
      9 CA         19.4790   11.7570   29.1080 C.3       4 GLP5        0.0000 
     10 CA         24.4265   13.1135   32.9830 C.3       2 GLC5        0.0000 
     11 CA         24.7420   13.6940   31.1040 C.3       6 GLL5        0.0000 
     12 CA         24.1110   12.5330   34.8620 C.3       4 GLP5        0.0000 
     13 CA         27.1355   17.0670   30.0730 C.3       2 GLC5        0.0000 
     14 CA         25.7710   16.3300   28.4900 C.3       6 GLL5        0.0000 
     15 CA         28.5000   17.8040   31.6560 C.3       4 GLP5        0.0000 
     16 CA         20.9065    8.3980   30.2880 C.3       2 GLC5        0.0000 
     17 CA         21.4780    8.9140   32.2260 C.3       6 GLL5        0.0000 
     18 CA         20.4005    9.5390   35.5960 C.3       2 GLC5        0.0000 
     19 CA         20.1490   11.4870   34.7500 C.3       6 GLL5        0.0000 
     20 CA         20.6520    7.5910   36.4420 C.3       4 GLP5        0.0000 
     21 CA         19.9285    9.2820   36.8035 C.3       2 GLC5        0.0000 
     22 CA         19.2050   10.9730   37.1650 C.3       6 GLL5        0.0000 
     23 CA         20.2625   10.6370   38.6175 C.3       2 GLC5        0.0000 
     24 CA         21.3200   10.3010   40.0700 C.3       4 GLP5        0.0000 
     25 CA         20.3900   12.5435   37.2870 C.3       2 GLC5        0.0000 
     26 CA         21.5750   14.1140   37.4090 C.3       4 GLP5        0.0000 
     27 CA         18.0005   10.8010   38.7730 C.3       2 GLC5        0.0000 
     28 CA         16.7960   10.6290   40.3810 C.3       4 GLP5        0.0000 
     29 CA         15.8870   13.1590   34.9145 C.3       2 GLC5        0.0000 
     30 CA         16.9170   13.2460   36.4370 C.3       6 GLL5        0.0000 
     31 CA         14.8570   13.0720   33.3920 C.3       4 GLP5        0.0000 
     32 CA         15.4025   13.4795   37.1750 C.3       2 GLC5        0.0000 
     33 CA         13.8880   13.7130   37.9130 C.3       4 GLP5        0.0000 
     34 CA         16.1725   11.2040   36.3395 C.3       2 GLC5        0.0000 
     35 CA         15.4280    9.1620   36.2420 C.3       4 GLP5        0.0000 
     36 CA         18.8790    9.7025   31.5850 C.3       2 GLC5        0.0000 
     37 CA         20.2400    8.5980   32.8480 C.3       6 GLL5        0.0000 
     38 CA         17.5180   10.8070   30.3220 C.3       4 GLP5        0.0000 
     39 CA         19.4240    5.4430   34.1645 C.3       2 GLC5        0.0000 
     40 CA         19.9620    7.2220   33.0170 C.3       6 GLL5        0.0000 
     41 CA         18.8860    3.6640   35.3120 C.3       4 GLP5        0.0000 
     42 CA         18.7520    6.1980   32.0300 C.3       2 GLC5        0.0000 
     43 CA         17.5420    5.1740   31.0430 C.3       4 GLP5        0.0000 
     44 N          20.0210    5.0145   32.7855 N.am      1 SEC2        0.0000 
     45 N          20.8310    6.2650   32.6340 N.am      5 SEL2        0.0000 
     46 N          19.2110    3.7640   32.9370 N.am      3 SEP2        0.0000 
     47 CA         23.4780    6.6915   33.4255 C.3       2 GLC5        0.0000 
     48 CA         21.9780    6.6790   32.0780 C.3       6 GLL5        0.0000 
     49 CA         24.9780    6.7040   34.7730 C.3       4 GLP5        0.0000 
     50 CA         21.9985    5.2780   33.7775 C.3       2 GLC5        0.0000 
     51 CA         22.0190    3.8770   35.4770 C.3       4 GLP5        0.0000 
     52 CA         20.4180    5.5970   31.3710 C.3       2 GLC5        0.0000 
     53 CA         18.8580    4.5150   30.6640 C.3       4 GLP5        0.0000 
     54 CA         21.1565    7.2805   30.2140 C.3       2 GLC5        0.0000 
     55 CA         20.9490    4.9400   30.4825 C.3       2 GLC5        0.0000 
     56 CA         23.0400    5.3650   30.3010 C.3       6 GLL5        0.0000 
     57 CA         21.6875    6.6235   29.3255 C.3       2 GLC5        0.0000 
     58 CA         20.5155   11.4050   30.6980 C.3       2 GLC5        0.0000 
     59 CA         21.2860   11.7150   32.5060 C.3       6 GLL5        0.0000 
     60 CA         22.8135    9.9013   33.8780 C.3       2 GLC5        0.0000 
     61 CA         21.8180   10.3910   32.0700 C.3       6 GLL5        0.0000 
     62 CA         23.9790   10.1500   35.6080 C.3       4 GLP5        0.0000 
     63 CA         27.1748   10.0292   31.7733 C.3       2 GLC5        0.0000 
     64 CA         28.6870   10.8340   32.9300 C.3       4 GLP5        0.0000 
     65 CA         20.4315   14.1773   34.4130 C.3       2 GLC5        0.0000 
     66 CA         20.2330   12.1130   33.4840 C.3       6 GLL5        0.0000 
     67 CA         21.1050   15.7470   35.5140 C.3       4 GLP5        0.0000 
     68 CA         18.6380   11.7073   31.8170 C.3       2 GLC5        0.0000 
     69 CA         22.2826   12.1167   34.3672 C.3       2 GLC5        0.0000 
     70 CA         20.6158   12.8845   36.3115 C.3       2 GLC5        0.0000 
     71 CA         17.9292   10.1820   35.9128 C.3       2 GLC5        0.0000 
     72 CA         19.1640   11.8230   35.6780 C.3       6 GLL5        0.0000 
     73 CA         16.6740    8.9660   35.4040 C.3       4 GLP5        0.0000 
     74 CA         19.6620   14.4387   35.1160 C.3       2 GLC5        0.0000 
     75 CA         18.1870   12.8000   35.3520 C.3       6 GLL5        0.0000 
     76 CA         17.5070   14.0235   37.5187 C.3       2 GLC5        0.0000 
     77 CA         17.4620   15.0240   39.1430 C.3       4 GLP5        0.0000 
     78 CA         16.8040   13.0941   33.6605 C.3       2 GLC5        0.0000 
     79 CA         18.2510   13.4610   34.0840 C.3       6 GLL5        0.0000 
     80 CA         18.2910    8.8310   33.3387 C.3       2 GLC5        0.0000 
     81 CA         16.4810    9.7520   33.7450 C.3       4 GLP5        0.0000 
     82 CA         20.5312    7.7900   34.6095 C.3       2 GLC5        0.0000 
     83 CA         22.8115    3.1573   30.1320 C.3       2 GLC5        0.0000 
     84 CA         21.9170    1.2720   29.7780 C.3       4 GLP5        0.0000 
     85 CA         23.6372    4.4719   28.5762 C.3       2 GLC5        0.0000 
     86 CA         24.2570    5.7910   29.6330 C.3       6 GLL5        0.0000 
     87 CA         23.2930    3.5270   27.0930 C.3       4 GLP5        0.0000 
     88 CA         17.7295   11.2714   33.9591 C.3       2 GLC5        0.0000 
     89 CA         19.2830   13.1020   33.1400 C.3       6 GLL5        0.0000 
@<TRIPOS>BOND
@<TRIPOS>SUBSTRUCTURE
     1 SEC2       44 GROUP        1 X    SEC  0     ROOT SEC X 2
     2 GLC5        1 GROUP        1 X    GLC  0     **** GLC X 6
     3 SEP2       46 GROUP        1 Y    SEP  0     ROOT SEP Y 9
     4 GLP5        3 GROUP        1 Y    GLP  0     **** GLP Y 13
     5 SEL2       45 GROUP        1 Z    SEL  0     ROOT SEL Z 16
     6 GLL5        2 GROUP        1 Z    GLL  0     **** GLL Z 20
@<TRIPOS>SET

