#    Name: 1pmn_984_1_ligand
#    Modification time : Mon Mar 24 21:56:33 2014

@<TRIPOS>MOLECULE
1pmn_984_1_ligand
   64    68     1     0     0
SMALL
NO_CHARGES


@<TRIPOS>ATOM
      1 N1         22.9290   10.6810   31.0540 N.pl3     1 984501      0.0000 
      2 C2         23.0120   12.0320   30.9590 C.2       1 984501      0.0000 
      3 N3         22.0990   12.6890   31.7610 N.2       1 984501      0.0000 
      4 C4         21.2860   11.7150   32.5060 C.2       1 984501      0.0000 
      5 C5         21.8180   10.3910   32.0700 C.2       1 984501      0.0000 
      6 C6         23.8100    9.7730   30.2840 C.3       1 984501      0.0000 
      7 C7         25.0520    9.3460   31.0580 C.3       1 984501      0.0000 
      8 C10        26.2730    9.1030   30.1750 C.3       1 984501      0.0000 
      9 C16        23.7550   12.8320   30.2590 C.3       1 984501      0.0000 
     10 C17        22.9930   13.7550   29.2460 C.3       1 984501      0.0000 
     11 C18        23.9490   14.6900   28.4210 C.3       1 984501      0.0000 
     12 N19        24.8670   15.4780   29.3040 N.4       1 984501      0.0000 
     13 C20        25.6460   14.6180   30.2170 C.3       1 984501      0.0000 
     14 C21        24.7420   13.6940   31.1040 C.3       1 984501      0.0000 
     15 C31        25.7710   16.3300   28.4900 C.3       1 984501      0.0000 
     16 C35        20.2330   12.1130   33.4840 C.ar      1 984501      0.0000 
     17 C36        21.4780    8.9140   32.2260 C.ar      1 984501      0.0000 
     18 C37        20.1490   11.4870   34.7500 C.ar      1 984501      0.0000 
     19 C38        19.1640   11.8230   35.6780 C.ar      1 984501      0.0000 
     20 C39        18.1870   12.8000   35.3520 C.ar      1 984501      0.0000 
     21 C40        18.2510   13.4610   34.0840 C.ar      1 984501      0.0000 
     22 C41        19.2830   13.1020   33.1400 C.ar      1 984501      0.0000 
     23 CL45       19.2050   10.9730   37.1650 Cl        1 984501      0.0000 
     24 CL46       16.9170   13.2460   36.4370 Cl        1 984501      0.0000 
     25 C47        20.2400    8.5980   32.8480 C.ar      1 984501      0.0000 
     26 C48        19.9620    7.2220   33.0170 C.ar      1 984501      0.0000 
     27 N49        20.8310    6.2650   32.6340 N.ar      1 984501      0.0000 
     28 C50        21.9780    6.6790   32.0780 C.ar      1 984501      0.0000 
     29 N51        22.3180    7.9500   31.8670 N.ar      1 984501      0.0000 
     30 N54        22.9070    5.7760   31.6830 N.pl3     1 984501      0.0000 
     31 C55        23.0400    5.3650   30.3010 C.3       1 984501      0.0000 
     32 C56        24.3720    4.7200   30.6710 C.3       1 984501      0.0000 
     33 C57        24.2570    5.7910   29.6330 C.3       1 984501      0.0000 
     34 H          24.1346   10.2629   29.3492 H         1 984501      0.0000 
     35 H          23.2544    8.8651   29.9905 H         1 984501      0.0000 
     36 H          24.8265    8.4240   31.6177 H         1 984501      0.0000 
     37 H          25.2967   10.1227   31.8004 H         1 984501      0.0000 
     38 H          24.4713   12.2434   29.5676 H         1 984501      0.0000 
     39 H          22.2895   14.3771   29.7992 H         1 984501      0.0000 
     40 H          22.4348   13.1274   28.5513 H         1 984501      0.0000 
     41 H          23.3234   15.3589   27.8240 H         1 984501      0.0000 
     42 H          24.5228   14.0573   27.7387 H         1 984501      0.0000 
     43 H          24.2393   16.1536   29.9183 H         1 984501      0.0000 
     44 H          26.2605   15.2244   30.8979 H         1 984501      0.0000 
     45 H          26.3276   13.9644   29.6538 H         1 984501      0.0000 
     46 H          25.3835   13.0321   31.6832 H         1 984501      0.0000 
     47 H          24.1701   14.3193   31.7875 H         1 984501      0.0000 
     48 H          20.8467   10.7555   34.9873 H         1 984501      0.0000 
     49 H          17.5789   14.1772   33.8450 H         1 984501      0.0000 
     50 H          19.3147   13.5644   32.2390 H         1 984501      0.0000 
     51 H          19.6100    9.3040   33.1450 H         1 984501      0.0000 
     52 H          19.0470    6.9676   33.4551 H         1 984501      0.0000 
     53 H          23.5635    5.3417   32.3629 H         1 984501      0.0000 
     54 H          22.5740    4.7291   29.8796 H         1 984501      0.0000 
     55 H          24.4084    3.8844   30.2315 H         1 984501      0.0000 
     56 H          24.6602    5.1190   31.4775 H         1 984501      0.0000 
     57 H          24.5707    6.6156   30.0127 H         1 984501      0.0000 
     58 H          24.3189    5.3810   28.7667 H         1 984501      0.0000 
     59 H          27.0695    8.8238   30.7113 H         1 984501      0.0000 
     60 H          26.1066    8.3833   29.5009 H         1 984501      0.0000 
     61 H          26.5343    9.9245   29.6682 H         1 984501      0.0000 
     62 H          26.3946   16.8625   29.0623 H         1 984501      0.0000 
     63 H          26.3354   15.7856   27.8694 H         1 984501      0.0000 
     64 H          25.2612   16.9810   27.9276 H         1 984501      0.0000 
@<TRIPOS>BOND
     1    2    1 1    
     2    5    1 1    
     3    6    1 1    
     4    3    2 2    
     5    9    2 1    
     6    4    3 1    
     7    5    4 2    
     8   16    4 1    
     9   17    5 1    
    10    7    6 1    
    11   34    6 1    
    12   35    6 1    
    13    8    7 1    
    14   36    7 1    
    15   37    7 1    
    16   59    8 1    
    17   60    8 1    
    18   61    8 1    
    19   10    9 1    
    20   14    9 1    
    21   38    9 1    
    22   11   10 1    
    23   39   10 1    
    24   40   10 1    
    25   12   11 1    
    26   41   11 1    
    27   42   11 1    
    28   13   12 1    
    29   15   12 1    
    30   43   12 1    
    31   14   13 1    
    32   44   13 1    
    33   45   13 1    
    34   46   14 1    
    35   47   14 1    
    36   62   15 1    
    37   63   15 1    
    38   64   15 1    
    39   18   16 ar   
    40   22   16 ar   
    41   25   17 ar   
    42   29   17 ar   
    43   19   18 ar   
    44   48   18 1    
    45   20   19 ar   
    46   23   19 1    
    47   21   20 ar   
    48   24   20 1    
    49   22   21 ar   
    50   49   21 1    
    51   50   22 1    
    52   26   25 ar   
    53   51   25 1    
    54   27   26 ar   
    55   52   26 1    
    56   28   27 ar   
    57   29   28 ar   
    58   30   28 1    
    59   31   30 1    
    60   53   30 1    
    61   32   31 1    
    62   33   31 1    
    63   54   31 1    
    64   33   32 1    
    65   55   32 1    
    66   56   32 1    
    67   57   33 1    
    68   58   33 1    
@<TRIPOS>SUBSTRUCTURE
     1 984501      1 GROUP   
@<TRIPOS>SET

