#    Name: 3w23_3RO_2_INTS_M
#    Modification time : Tue Mar 25 02:01:12 2014

@<TRIPOS>MOLECULE
3w23_3RO_2_INTS_M
   52     0    12     0     0
SMALL
NO_CHARGES


@<TRIPOS>ATOM
      1 N          -3.4675  -16.2985   14.3070 N.am      2 SEC2        0.0000 
      2 N          -4.0450  -14.8490   14.4540 N.am     10 SEL2        0.0000 
      3 N          -2.8900  -17.7480   14.1600 N.am      6 SEP2        0.0000 
      4 NZ         -7.3995  -16.0860   14.8380 N.4       3 LYC4        0.0000 
      5 NZ         -6.0450  -15.7740   14.2100 N.4      11 LYL4        0.0000 
      6 NZ         -8.7540  -16.3980   15.4660 N.4       7 LYP4        0.0000 
      7 N          -5.6810  -16.9895   13.5015 N.am      2 SEC2        0.0000 
      8 N          -6.0450  -15.7740   14.2100 N.am     10 SEL2        0.0000 
      9 N          -5.3170  -18.2050   12.7930 N.am      6 SEP2        0.0000 
     10 N          -7.3995  -16.0860   14.8380 N.am      2 SEC2        0.0000 
     11 N          -8.7540  -16.3980   15.4660 N.am      6 SEP2        0.0000 
     12 CA         -7.0660  -13.2325   15.9085 C.3       4 GLC5        0.0000 
     13 CA         -5.8630  -13.4560   14.2180 C.3      12 GLL5        0.0000 
     14 CA         -8.2690  -13.0090   17.5990 C.3       8 GLP5        0.0000 
     15 O          -4.4860  -12.9310   16.2715 O.2       1 ALC1        0.0000 
     16 O          -5.3970  -12.5620   15.2210 O.2       9 ALL1        0.0000 
     17 O          -3.5750  -13.3000   17.3220 O.2       5 ALP1        0.0000 
     18 N          -4.6510  -10.9520   17.2950 N.am      2 SEC2        0.0000 
     19 N          -5.3960  -10.4940   16.1120 N.am     10 SEL2        0.0000 
     20 N          -3.9060  -11.4100   18.4780 N.am      6 SEP2        0.0000 
     21 N          -4.8325   -9.2630   15.9745 N.am      2 SEC2        0.0000 
     22 N          -4.2690   -8.0320   15.8370 N.am      6 SEP2        0.0000 
     23 O          -6.9540   -9.4505   14.1780 O.2       1 ALC1        0.0000 
     24 O          -6.6020  -10.8140   14.2260 O.2       9 ALL1        0.0000 
     25 O          -7.3060   -8.0870   14.1300 O.2       5 ALP1        0.0000 
     26 N          -8.9555  -11.3480   11.4560 N.am      2 SEC2        0.0000 
     27 N          -7.8260  -11.1150   12.3830 N.am     10 SEL2        0.0000 
     28 N         -10.0850  -11.5810   10.5290 N.am      6 SEP2        0.0000 
     29 N          -8.1985   -9.6850   12.3610 N.am      2 SEC2        0.0000 
     30 N          -8.5710   -8.2550   12.3390 N.am      6 SEP2        0.0000 
     31 CA         -2.3470  -16.9000   12.3645 C.3       4 GLC5        0.0000 
     32 CA         -1.7530  -15.3230   11.8410 C.3      12 GLL5        0.0000 
     33 CA         -2.9410  -18.4770   12.8880 C.3       8 GLP5        0.0000 
     34 CA         -5.5420  -10.4720    9.8795 C.3       4 GLC5        0.0000 
     35 CA         -4.4940  -12.1400   10.5980 C.3      12 GLL5        0.0000 
     36 CA         -6.5900   -8.8040    9.1610 C.3       8 GLP5        0.0000 
     37 CA         -7.8918  -15.2918   11.2340 C.3       4 GLC5        0.0000 
     38 CA         -6.4940  -13.4530   10.7730 C.3      12 GLL5        0.0000 
     39 CA         -9.0070  -16.9040   11.0440 C.3       8 GLP5        0.0000 
     40 CA         -5.3857  -13.0473    8.8573 C.3       4 GLC5        0.0000 
     41 CA         -4.9650  -12.6880    6.9160 C.3       8 GLP5        0.0000 
     42 CA         -4.3457  -14.6728    9.2925 C.3       4 GLC5        0.0000 
     43 CA         -5.1190  -13.3600   10.8240 C.3      12 GLL5        0.0000 
     44 CA         -3.9930  -15.4730    7.5320 C.3       8 GLP5        0.0000 
     45 CA         -2.6958  -15.6445    9.8810 C.3       4 GLC5        0.0000 
     46 CA         -2.8700  -14.1790   11.3090 C.3      12 GLL5        0.0000 
     47 CA         -3.0800  -16.5380    8.1870 C.3       8 GLP5        0.0000 
     48 CA         -2.1818  -13.5385    9.1968 C.3       4 GLC5        0.0000 
     49 CA         -2.2920  -12.9420   11.0470 C.3      12 GLL5        0.0000 
     50 CA         -1.6630  -14.6340    7.5670 C.3       8 GLP5        0.0000 
     51 CA         -4.3833  -12.3650    8.7590 C.3       4 GLC5        0.0000 
     52 CA         -3.1090  -11.9440   10.6060 C.3      12 GLL5        0.0000 
@<TRIPOS>BOND
@<TRIPOS>SUBSTRUCTURE
     1 ALC1       15 GROUP        1 X    ALC  0     ROOT ALC X 1
     2 SEC2        1 GROUP        1 X    SEC  0     **** SEC X 2
     3 LYC4        4 GROUP        1 X    LYC  0     **** LYC X 4
     4 GLC5       12 GROUP        1 X    GLC  0     **** GLC X 6
     5 ALP1       17 GROUP        1 Y    ALP  0     ROOT ALP Y 8
     6 SEP2        3 GROUP        1 Y    SEP  0     **** SEP Y 9
     7 LYP4        6 GROUP        1 Y    LYP  0     **** LYP Y 11
     8 GLP5       14 GROUP        1 Y    GLP  0     **** GLP Y 13
     9 ALL1       16 GROUP        1 Z    ALL  0     ROOT ALL Z 15
    10 SEL2        2 GROUP        1 Z    SEL  0     **** SEL Z 16
    11 LYL4        5 GROUP        1 Z    LYL  0     **** LYL Z 18
    12 GLL5       13 GROUP        1 Z    GLL  0     **** GLL Z 20
@<TRIPOS>SET

