#    Name: 3w23_3RO_2_ligand
#    Modification time : Tue Mar 25 02:01:12 2014

@<TRIPOS>MOLECULE
3w23_3RO_2_ligand
   30    31     1     0     0
SMALL
NO_CHARGES


@<TRIPOS>ATOM
      1 OAA        -4.0450  -14.8490   14.4540 O.co2     1 3RO401      0.0000 
      2 CAN        -5.2840  -14.8140   14.2370 C.2       1 3RO401      0.0000 
      3 OAD        -6.0450  -15.7740   14.2100 O.co2     1 3RO401      0.0000 
      4 CAQ        -5.8630  -13.4560   14.2180 C.2       1 3RO401      0.0000 
      5 NAL        -5.3970  -12.5620   15.2210 N.am      1 3RO401      0.0000 
      6 CAS        -5.7850  -11.2660   15.2020 C.2       1 3RO401      0.0000 
      7 OAB        -5.3960  -10.4940   16.1120 O.2       1 3RO401      0.0000 
      8 NAM        -6.6020  -10.8140   14.2260 N.am      1 3RO401      0.0000 
      9 CAT        -7.0990  -11.6250   13.2370 C.2       1 3RO401      0.0000 
     10 OAC        -7.8260  -11.1150   12.3830 O.2       1 3RO401      0.0000 
     11 CAR        -6.6560  -12.9800   13.1900 C.2       1 3RO401      0.0000 
     12 CAK        -7.0590  -13.9060   12.0750 C.3       1 3RO401      0.0000 
     13 CAJ        -6.4940  -13.4530   10.7730 C.3       1 3RO401      0.0000 
     14 CAP        -5.1190  -13.3600   10.8240 C.ar      1 3RO401      0.0000 
     15 CAI        -4.2780  -14.3850   11.2820 C.ar      1 3RO401      0.0000 
     16 CAO        -2.8700  -14.1790   11.3090 C.ar      1 3RO401      0.0000 
     17 CL1        -1.7530  -15.3230   11.8410 Cl        1 3RO401      0.0000 
     18 CAG        -2.2920  -12.9420   11.0470 C.ar      1 3RO401      0.0000 
     19 CAF        -3.1090  -11.9440   10.6060 C.ar      1 3RO401      0.0000 
     20 CAH        -4.4940  -12.1400   10.5980 C.ar      1 3RO401      0.0000 
     21 H          -4.7669  -12.9301   15.9464 H         1 3RO401      0.0000 
     22 H          -6.8757   -9.7925   14.2157 H         1 3RO401      0.0000 
     23 H          -8.1531  -13.9403   12.0127 H         1 3RO401      0.0000 
     24 H          -6.7040  -14.9184   12.3012 H         1 3RO401      0.0000 
     25 H          -6.9708  -12.4797   10.5181 H         1 3RO401      0.0000 
     26 H          -6.8372  -14.1657    9.9895 H         1 3RO401      0.0000 
     27 H          -4.6632  -15.2736   11.5949 H         1 3RO401      0.0000 
     28 H          -1.2949  -12.7999   11.1834 H         1 3RO401      0.0000 
     29 H          -2.7259  -11.0478   10.2783 H         1 3RO401      0.0000 
     30 H          -5.1060  -11.2966   10.4057 H         1 3RO401      0.0000 
@<TRIPOS>BOND
     1    2    1 ar   
     2    3    2 ar   
     3    4    2 1    
     4    5    4 1    
     5   11    4 2    
     6    6    5 am   
     7   21    5 1    
     8    7    6 2    
     9    8    6 am   
    10    9    8 am   
    11   22    8 1    
    12   10    9 2    
    13   11    9 1    
    14   12   11 1    
    15   13   12 1    
    16   23   12 1    
    17   24   12 1    
    18   14   13 1    
    19   25   13 1    
    20   26   13 1    
    21   15   14 ar   
    22   20   14 ar   
    23   16   15 ar   
    24   27   15 1    
    25   17   16 1    
    26   18   16 ar   
    27   19   18 ar   
    28   28   18 1    
    29   20   19 ar   
    30   29   19 1    
    31   30   20 1    
@<TRIPOS>SUBSTRUCTURE
     1 3RO401      1 GROUP   
@<TRIPOS>SET

