#    Name: 3fhj_AMP_1_INTS_M
#    Modification time : Tue Mar 25 04:08:21 2014

@<TRIPOS>MOLECULE
3fhj_AMP_1_INTS_M
   32     0     9     0     0
SMALL
NO_CHARGES


@<TRIPOS>ATOM
      1 CA        -54.4900   -9.0840  -75.7545 C.3       3 GLC5        0.0000 
      2 CA        -55.2840   -8.8300  -73.7350 C.3       9 GLL5        0.0000 
      3 CA        -53.6960   -9.3380  -77.7740 C.3       6 GLP5        0.0000 
      4 N         -57.3670   -9.4350  -70.6915 N.am      2 SEC2        0.0000 
      5 N         -57.1070  -10.8170  -71.3070 N.am      8 SEL2        0.0000 
      6 N         -57.6270   -8.0530  -70.0760 N.am      5 SEP2        0.0000 
      7 CA        -59.2895  -12.9785  -73.1075 C.3       3 GLC5        0.0000 
      8 CA        -59.3670  -11.1070  -72.4630 C.3       9 GLL5        0.0000 
      9 CA        -59.2120  -14.8500  -73.7520 C.3       6 GLP5        0.0000 
     10 CA        -60.9655  -12.5005  -73.0810 C.3       3 GLC5        0.0000 
     11 CA        -62.5640  -13.8940  -73.6990 C.3       6 GLP5        0.0000 
     12 O         -61.4070  -11.9305  -71.3525 O.2       1 ALC1        0.0000 
     13 O         -60.0200  -11.8560  -71.5130 O.2       7 ALL1        0.0000 
     14 O         -62.7940  -12.0050  -71.1920 O.2       4 ALP1        0.0000 
     15 O         -59.5575  -12.1965  -70.0845 O.2       1 ALC1        0.0000 
     16 O         -59.0950  -12.5370  -68.6560 O.2       4 ALP1        0.0000 
     17 N         -61.5800  -11.1390  -73.8115 N.am      2 SEC2        0.0000 
     18 N         -60.0310  -10.7790  -73.6030 N.am      8 SEL2        0.0000 
     19 N         -63.1290  -11.4990  -74.0200 N.am      5 SEP2        0.0000 
     20 CA        -58.6645  -10.5070  -76.0980 C.3       3 GLC5        0.0000 
     21 CA        -59.3870  -10.0410  -74.5390 C.3       9 GLL5        0.0000 
     22 CA        -57.9420  -10.9730  -77.6570 C.3       6 GLP5        0.0000 
     23 CA        -61.4085   -9.6705  -74.7635 C.3       3 GLC5        0.0000 
     24 CA        -63.4300   -9.3000  -74.9880 C.3       6 GLP5        0.0000 
     25 CA        -59.1875   -9.2410  -72.5425 C.3       3 GLC5        0.0000 
     26 CA        -58.9880   -8.4410  -70.5460 C.3       6 GLP5        0.0000 
     27 CA        -57.7255  -10.4420  -75.5050 C.3       3 GLC5        0.0000 
     28 CA        -57.5090   -9.9110  -73.3530 C.3       9 GLL5        0.0000 
     29 CA        -56.7865  -11.8522  -73.5215 C.3       3 GLC5        0.0000 
     30 CA        -58.0370  -10.6600  -72.3150 C.3       9 GLL5        0.0000 
     31 CA        -55.8000  -13.4190  -74.2090 C.3       6 GLP5        0.0000 
     32 CA        -58.5468   -9.4191  -71.7085 C.3       3 GLC5        0.0000 
@<TRIPOS>BOND
@<TRIPOS>SUBSTRUCTURE
     1 ALC1       12 GROUP        1 X    ALC  0     ROOT ALC X 1
     2 SEC2        4 GROUP        1 X    SEC  0     **** SEC X 2
     3 GLC5        1 GROUP        1 X    GLC  0     **** GLC X 6
     4 ALP1       14 GROUP        1 Y    ALP  0     ROOT ALP Y 8
     5 SEP2        6 GROUP        1 Y    SEP  0     **** SEP Y 9
     6 GLP5        3 GROUP        1 Y    GLP  0     **** GLP Y 13
     7 ALL1       13 GROUP        1 Z    ALL  0     ROOT ALL Z 15
     8 SEL2        5 GROUP        1 Z    SEL  0     **** SEL Z 16
     9 GLL5        2 GROUP        1 Z    GLL  0     **** GLL Z 20
@<TRIPOS>SET

