#    Name: 3fhj_AMP_1_ligand
#    Modification time : Tue Mar 25 04:08:21 2014

@<TRIPOS>MOLECULE
3fhj_AMP_1_ligand
   35    37     1     0     0
SMALL
NO_CHARGES


@<TRIPOS>ATOM
      1 P         -52.3090   -8.0960  -69.2010 P.3       1 AMP1003     0.0000 
      2 O1P       -53.4510   -9.0020  -68.7730 O.co2     1 AMP1003     0.0000 
      3 O2P       -52.6230   -6.6620  -68.8090 O.co2     1 AMP1003     0.0000 
      4 O3P       -51.0200   -8.5410  -68.5200 O.co2     1 AMP1003     0.0000 
      5 O5'       -52.1630   -8.1920  -70.8020 O.3       1 AMP1003     0.0000 
      6 C5'       -53.2340   -8.8390  -71.4890 C.3       1 AMP1003     0.0000 
      7 C4'       -53.0870   -8.6180  -72.9950 C.3       1 AMP1003     0.0000 
      8 O4'       -53.9900   -9.5070  -73.6990 O.3       1 AMP1003     0.0000 
      9 C3'       -53.5630   -7.2380  -73.4250 C.3       1 AMP1003     0.0000 
     10 O3'       -53.2870   -6.9740  -74.8010 O.3       1 AMP1003     0.0000 
     11 C2'       -55.0490   -7.4220  -73.1510 C.3       1 AMP1003     0.0000 
     12 O2'       -55.7760   -6.3900  -73.8490 O.3       1 AMP1003     0.0000 
     13 C1'       -55.2840   -8.8300  -73.7350 C.3       1 AMP1003     0.0000 
     14 N9        -56.2310   -9.6120  -72.9610 N.pl3     1 AMP1003     0.0000 
     15 C8        -56.0360  -10.1790  -71.7320 C.2       1 AMP1003     0.0000 
     16 N7        -57.1070  -10.8170  -71.3070 N.2       1 AMP1003     0.0000 
     17 C5        -58.0370  -10.6600  -72.3150 C.ar      1 AMP1003     0.0000 
     18 C6        -59.3670  -11.1070  -72.4630 C.ar      1 AMP1003     0.0000 
     19 N6        -60.0200  -11.8560  -71.5130 N.pl3     1 AMP1003     0.0000 
     20 N1        -60.0310  -10.7790  -73.6030 N.ar      1 AMP1003     0.0000 
     21 C2        -59.3870  -10.0410  -74.5390 C.ar      1 AMP1003     0.0000 
     22 N3        -58.1220   -9.5570  -74.4960 N.ar      1 AMP1003     0.0000 
     23 C4        -57.5090   -9.9110  -73.3530 C.ar      1 AMP1003     0.0000 
     24 H         -54.2099   -8.4425  -71.1874 H         1 AMP1003     0.0000 
     25 H         -53.2391   -9.9199  -71.3095 H         1 AMP1003     0.0000 
     26 H         -52.0954   -8.7617  -73.3045 H         1 AMP1003     0.0000 
     27 H         -53.1884   -6.5358  -72.7413 H         1 AMP1003     0.0000 
     28 H         -55.1971   -7.4488  -72.1209 H         1 AMP1003     0.0000 
     29 H         -55.6001   -8.7192  -74.7517 H         1 AMP1003     0.0000 
     30 H         -55.1780  -10.1031  -71.2402 H         1 AMP1003     0.0000 
     31 H         -60.9475  -12.1491  -71.7449 H         1 AMP1003     0.0000 
     32 H         -59.5104  -12.0424  -70.6729 H         1 AMP1003     0.0000 
     33 H         -59.9602   -9.8062  -75.4434 H         1 AMP1003     0.0000 
     34 H         -52.5571   -6.2905  -74.7919 H         1 AMP1003     0.0000 
     35 H         -55.1497   -6.0672  -74.5586 H         1 AMP1003     0.0000 
@<TRIPOS>BOND
     1    2    1 ar   
     2    3    1 ar   
     3    4    1 ar   
     4    5    1 1    
     5    6    5 1    
     6    7    6 1    
     7   24    6 1    
     8   25    6 1    
     9    8    7 1    
    10    9    7 1    
    11   26    7 1    
    12   13    8 1    
    13   10    9 1    
    14   11    9 1    
    15   27    9 1    
    16   34   10 1    
    17   12   11 1    
    18   13   11 1    
    19   28   11 1    
    20   35   12 1    
    21   14   13 1    
    22   29   13 1    
    23   15   14 1    
    24   23   14 1    
    25   16   15 2    
    26   30   15 1    
    27   17   16 1    
    28   18   17 ar   
    29   23   17 ar   
    30   19   18 1    
    31   20   18 ar   
    32   31   19 1    
    33   32   19 1    
    34   21   20 ar   
    35   22   21 ar   
    36   33   21 1    
    37   23   22 ar   
@<TRIPOS>SUBSTRUCTURE
     1 AMP1003     1 GROUP   
@<TRIPOS>SET

