#    Name: 3q2j_CKI_2_INTS_M
#    Modification time : Tue Mar 25 08:48:00 2014

@<TRIPOS>MOLECULE
3q2j_CKI_2_INTS_M
   50     0     9     0     0
SMALL
NO_CHARGES


@<TRIPOS>ATOM
      1 CA         30.2735   -9.5720   44.2000 C.3       3 GLC5        0.0000 
      2 CA         28.6260   -8.1880   44.8090 C.3       9 GLL5        0.0000 
      3 CA         31.9210  -10.9560   43.5910 C.3       6 GLP5        0.0000 
      4 CA         28.6805   -8.2900   42.7330 C.3       3 GLC5        0.0000 
      5 CA         28.7350   -8.3920   40.6570 C.3       6 GLP5        0.0000 
      6 CA         26.9205   -7.7440   43.6515 C.3       3 GLC5        0.0000 
      7 CA         25.2150   -7.3000   42.4940 C.3       6 GLP5        0.0000 
      8 N          28.7850   -9.8990   42.8460 N.am      2 SEC2        0.0000 
      9 N          28.2640   -9.2500   44.0450 N.am      8 SEL2        0.0000 
     10 N          29.3060  -10.5480   41.6470 N.am      5 SEP2        0.0000 
     11 CA         25.9300  -10.5055   42.7925 C.3       3 GLC5        0.0000 
     12 CA         27.1500   -9.9940   44.3300 C.3       9 GLL5        0.0000 
     13 CA         24.7100  -11.0170   41.2550 C.3       6 GLP5        0.0000 
     14 CA         28.5420  -11.2125   43.6905 C.3       3 GLC5        0.0000 
     15 CA         29.9340  -12.4310   43.0510 C.3       6 GLP5        0.0000 
     16 CA         27.9425   -9.1930   42.4935 C.3       3 GLC5        0.0000 
     17 CA         23.5865   -7.2610   48.3360 C.3       3 GLC5        0.0000 
     18 CA         24.5440   -9.0310   47.8340 C.3       9 GLL5        0.0000 
     19 CA         22.6290   -5.4910   48.8380 C.3       6 GLP5        0.0000 
     20 CA         22.4880   -9.2255   48.4750 C.3       3 GLC5        0.0000 
     21 CA         20.4320   -9.4200   49.1160 C.3       6 GLP5        0.0000 
     22 CA         23.5335  -10.5660   47.2355 C.3       3 GLC5        0.0000 
     23 CA         22.5230  -12.1010   46.6370 C.3       6 GLP5        0.0000 
     24 CA         26.6485   -4.0370   45.6930 C.3       3 GLC5        0.0000 
     25 CA         27.7310   -3.0600   46.8510 C.3       9 GLL5        0.0000 
     26 CA         25.5660   -5.0140   44.5350 C.3       6 GLP5        0.0000 
     27 O          26.7360   -1.5205   45.6520 O.2       1 ALC1        0.0000 
     28 O          27.2770   -1.6690   46.8970 O.2       7 ALL1        0.0000 
     29 O          26.1950   -1.3720   44.4070 O.2       4 ALP1        0.0000 
     30 CA         25.0770  -10.9292   44.9712 C.3       3 GLC5        0.0000 
     31 CA         26.3620   -9.6790   45.4130 C.3       9 GLL5        0.0000 
     32 CA         23.3980  -12.0220   45.0710 C.3       6 GLP5        0.0000 
     33 CA         25.9855   -8.5682   43.6827 C.3       3 GLC5        0.0000 
     34 CA         26.0940  -10.4157   47.9288 C.3       3 GLC5        0.0000 
     35 CA         26.9620  -12.2340   48.2280 C.3       6 GLP5        0.0000 
     36 CA         25.8305   -6.3108   46.1822 C.3       3 GLC5        0.0000 
     37 CA         25.9080   -8.1640   47.4250 C.3       9 GLL5        0.0000 
     38 CA         25.7785   -8.3041   49.7534 C.3       3 GLC5        0.0000 
     39 CA         26.2820   -7.0510   48.2340 C.3       9 GLL5        0.0000 
     40 CA         25.8030   -8.7840   51.5750 C.3       6 GLP5        0.0000 
     41 CA         25.0225   -5.8224   47.6286 C.3       3 GLC5        0.0000 
     42 CA         23.2900   -4.6750   47.3830 C.3       6 GLP5        0.0000 
     43 CA         26.6885   -5.7645   45.9405 C.3       3 GLC5        0.0000 
     44 CA         27.4150   -6.3320   47.9190 C.3       9 GLL5        0.0000 
     45 CA         26.4198   -6.5998   45.3195 C.3       3 GLC5        0.0000 
     46 CA         27.8380   -7.8230   45.9440 C.3       9 GLL5        0.0000 
     47 CA         26.8472  -10.7131   46.8979 C.3       3 GLC5        0.0000 
     48 CA         26.7090   -8.5480   46.2640 C.3       9 GLL5        0.0000 
     49 CA         29.5143   -2.1702   45.9650 C.3       3 GLC5        0.0000 
     50 CA         30.5450   -1.1490   44.9930 C.3       6 GLP5        0.0000 
@<TRIPOS>BOND
@<TRIPOS>SUBSTRUCTURE
     1 ALC1       27 GROUP        1 X    ALC  0     ROOT ALC X 1
     2 SEC2        8 GROUP        1 X    SEC  0     **** SEC X 2
     3 GLC5        1 GROUP        1 X    GLC  0     **** GLC X 6
     4 ALP1       29 GROUP        1 Y    ALP  0     ROOT ALP Y 8
     5 SEP2       10 GROUP        1 Y    SEP  0     **** SEP Y 9
     6 GLP5        3 GROUP        1 Y    GLP  0     **** GLP Y 13
     7 ALL1       28 GROUP        1 Z    ALL  0     ROOT ALL Z 15
     8 SEL2        9 GROUP        1 Z    SEL  0     **** SEL Z 16
     9 GLL5        2 GROUP        1 Z    GLL  0     **** GLL Z 20
@<TRIPOS>SET

