#    Name: 3q2j_CKI_2_ligand
#    Modification time : Tue Mar 25 08:48:00 2014

@<TRIPOS>MOLECULE
3q2j_CKI_2_ligand
   31    32     1     0     0
SMALL
NO_CHARGES


@<TRIPOS>ATOM
      1 C1         28.6260   -8.1880   44.8090 C.ar      1 CKI300      0.0000 
      2 N2         28.2640   -9.2500   44.0450 N.ar      1 CKI300      0.0000 
      3 C3         27.1500   -9.9940   44.3300 C.ar      1 CKI300      0.0000 
      4 C4         26.3620   -9.6790   45.4130 C.ar      1 CKI300      0.0000 
      5 C5         25.9080   -8.1640   47.4250 C.ar      1 CKI300      0.0000 
      6 CL5        24.5440   -9.0310   47.8340 Cl        1 CKI300      0.0000 
      7 C6         26.2820   -7.0510   48.2340 C.ar      1 CKI300      0.0000 
      8 C7         27.4150   -6.3320   47.9190 C.ar      1 CKI300      0.0000 
      9 C8         28.2070   -6.6980   46.7730 C.ar      1 CKI300      0.0000 
     10 C9         27.8380   -7.8230   45.9440 C.ar      1 CKI300      0.0000 
     11 C10        26.7090   -8.5480   46.2640 C.ar      1 CKI300      0.0000 
     12 S          29.6180   -5.7260   46.4500 S.o2      1 CKI300      0.0000 
     13 O1S        29.5380   -5.0580   45.1330 O.2       1 CKI300      0.0000 
     14 O2S        30.8710   -6.5740   46.4920 O.2       1 CKI300      0.0000 
     15 N1'        29.6640   -4.5910   47.6260 N.pl3     1 CKI300      0.0000 
     16 C1'        29.2360   -3.3230   47.0230 C.3       1 CKI300      0.0000 
     17 C2'        27.7310   -3.0600   46.8510 C.3       1 CKI300      0.0000 
     18 N2'        27.2770   -1.6690   46.8970 N.4       1 CKI300      0.0000 
     19 H          29.4605   -7.6264   44.5981 H         1 CKI300      0.0000 
     20 H          26.8968  -10.7993   43.7283 H         1 CKI300      0.0000 
     21 H          25.5268  -10.2154   45.6508 H         1 CKI300      0.0000 
     22 H          25.7002   -6.8054   49.0368 H         1 CKI300      0.0000 
     23 H          27.7168   -5.5332   48.4824 H         1 CKI300      0.0000 
     24 H          29.9141   -4.7970   48.4459 H         1 CKI300      0.0000 
     25 H          29.7122   -3.2035   46.0060 H         1 CKI300      0.0000 
     26 H          29.6590   -2.4575   47.6124 H         1 CKI300      0.0000 
     27 H          27.1962   -3.6660   47.6333 H         1 CKI300      0.0000 
     28 H          27.4194   -3.5352   45.8803 H         1 CKI300      0.0000 
     29 H          28.0367   -1.0350   47.0417 H         1 CKI300      0.0000 
     30 H          26.8262   -1.3971   46.0467 H         1 CKI300      0.0000 
     31 H          26.6226   -1.5162   47.6375 H         1 CKI300      0.0000 
@<TRIPOS>BOND
     1    2    1 ar   
     2   10    1 ar   
     3   19    1 1    
     4    3    2 ar   
     5    4    3 ar   
     6   20    3 1    
     7   11    4 ar   
     8   21    4 1    
     9    6    5 1    
    10    7    5 ar   
    11   11    5 ar   
    12    8    7 ar   
    13   22    7 1    
    14    9    8 ar   
    15   23    8 1    
    16   10    9 ar   
    17   12    9 1    
    18   11   10 ar   
    19   13   12 2    
    20   14   12 2    
    21   15   12 1    
    22   16   15 1    
    23   24   15 1    
    24   17   16 1    
    25   25   16 1    
    26   26   16 1    
    27   18   17 1    
    28   27   17 1    
    29   28   17 1    
    30   29   18 1    
    31   30   18 1    
    32   31   18 1    
@<TRIPOS>SUBSTRUCTURE
     1 CKI300      1 GROUP   
@<TRIPOS>SET

