#    Name: 2ic5_GNP_1_INTS_M
#    Modification time : Tue Mar 25 17:36:46 2014

@<TRIPOS>MOLECULE
2ic5_GNP_1_INTS_M
   64     0    15     0     0
SMALL
NO_CHARGES


@<TRIPOS>ATOM
      1 Zn        -17.1930    5.7960  -14.1350 Zn        4 ZIC7        0.0000 
      2 Zn        -16.3640    5.1450  -14.0100 Zn       14 ZIL7        0.0000 
      3 Zn        -18.0220    6.4470  -14.2600 Zn        9 ZIP7        0.0000 
      4 NZ        -14.3295    6.8100  -11.7565 N.4       3 LYC4        0.0000 
      5 NZ        -14.2880    5.6260  -12.5880 N.4      13 LYL4        0.0000 
      6 NZ        -14.3710    7.9940  -10.9250 N.4       8 LYP4        0.0000 
      7 N         -14.3295    6.8100  -11.7565 N.am      2 SEC2        0.0000 
      8 N         -14.2880    5.6260  -12.5880 N.am     12 SEL2        0.0000 
      9 N         -14.3710    7.9940  -10.9250 N.am      7 SEP2        0.0000 
     10 N         -12.8645    6.1875  -13.0520 N.am      2 SEC2        0.0000 
     11 N         -11.4410    6.7490  -13.5160 N.am      7 SEP2        0.0000 
     12 N         -13.3290    4.2330  -12.6810 N.am      2 SEC2        0.0000 
     13 N         -12.3700    2.8400  -12.7740 N.am      7 SEP2        0.0000 
     14 N         -13.8160    3.1335  -12.7730 N.am      2 SEC2        0.0000 
     15 N         -15.2620    3.4270  -12.7720 N.am     12 SEL2        0.0000 
     16 NZ        -15.6715    7.5470  -10.5350 N.4       3 LYC4        0.0000 
     17 NZ        -16.9720    7.1000  -10.1450 N.4      13 LYL4        0.0000 
     18 N         -17.7695    7.2820   -8.8415 N.am      2 SEC2        0.0000 
     19 N         -16.9720    7.1000  -10.1450 N.am     12 SEL2        0.0000 
     20 N         -18.5670    7.4640   -7.5380 N.am      7 SEP2        0.0000 
     21 N         -17.8810    8.1820   -9.9120 N.am      2 SEC2        0.0000 
     22 N         -18.7900    9.2640   -9.6790 N.am      7 SEP2        0.0000 
     23 N         -15.6715    7.5470  -10.5350 N.am      2 SEC2        0.0000 
     24 Zn        -18.1055    6.5510  -13.2705 Zn        4 ZIC7        0.0000 
     25 Zn        -18.1890    6.6550  -12.2810 Zn       14 ZIL7        0.0000 
     26 N         -19.1010    7.9470  -12.2905 N.am      2 SEC2        0.0000 
     27 N         -18.1890    6.6550  -12.2810 N.am     12 SEL2        0.0000 
     28 N         -20.0130    9.2390  -12.3000 N.am      7 SEP2        0.0000 
     29 N         -18.7145    6.5555   -8.8430 N.am      2 SEC2        0.0000 
     30 N         -18.8620    5.6470  -10.1480 N.am     12 SEL2        0.0000 
     31 N         -21.9125    7.6960  -11.2660 N.am      2 SEC2        0.0000 
     32 N         -21.1390    6.5810  -10.8430 N.am     12 SEL2        0.0000 
     33 N         -22.6860    8.8110  -11.6890 N.am      7 SEP2        0.0000 
     34 CA        -18.4560    3.6785   -8.2835 C.3       5 GLC5        0.0000 
     35 CA        -20.3790    3.6330   -8.5880 C.3      15 GLL5        0.0000 
     36 CA        -16.5330    3.7240   -7.9790 C.3      10 GLP5        0.0000 
     37 CA        -20.1315    5.7965   -8.2645 C.3       5 GLC5        0.0000 
     38 CA        -19.8840    7.9600   -7.9410 C.3      10 GLP5        0.0000 
     39 CA        -24.0055    4.9470   -9.1385 C.3       5 GLC5        0.0000 
     40 CA        -23.5810    3.5330   -7.9240 C.3      15 GLL5        0.0000 
     41 CA        -24.4300    6.3610  -10.3530 C.3      10 GLP5        0.0000 
     42 CA        -25.3565    4.6465   -7.7390 C.3       5 GLC5        0.0000 
     43 CA        -27.1320    5.7600   -7.5540 C.3      10 GLP5        0.0000 
     44 CA        -21.7175    4.6865   -5.2675 C.3       5 GLC5        0.0000 
     45 CA        -23.1120    3.9050   -6.5270 C.3      15 GLL5        0.0000 
     46 CA        -20.3230    5.4680   -4.0080 C.3      10 GLP5        0.0000 
     47 CA        -22.7510    7.1390   -3.8045 C.3       5 GLC5        0.0000 
     48 CA        -24.1840    7.0510   -5.0520 C.3      15 GLL5        0.0000 
     49 CA        -21.3180    7.2270   -2.5570 C.3      10 GLP5        0.0000 
     50 N         -26.4055    9.4060   -4.4835 N.am      2 SEC2        0.0000 
     51 N         -24.9760    8.9810   -3.9100 N.am     12 SEL2        0.0000 
     52 N         -27.8350    9.8310   -5.0570 N.am      7 SEP2        0.0000 
     53 O         -25.7160    7.6610   -1.9200 O.2       1 ALC1        0.0000 
     54 O         -25.2970    6.9260   -2.9980 O.2      11 ALL1        0.0000 
     55 O         -26.1350    8.3960   -0.8420 O.2       6 ALP1        0.0000 
     56 O         -26.2025    6.7305   -1.5700 O.2       1 ALC1        0.0000 
     57 O         -27.1080    6.5350   -0.1420 O.2       6 ALP1        0.0000 
     58 O         -26.4150    5.7125   -1.0480 O.2       1 ALC1        0.0000 
     59 O         -25.7220    4.8900   -1.9540 O.2      11 ALL1        0.0000 
     60 CA        -22.5435    5.7085   -3.8175 C.3       5 GLC5        0.0000 
     61 CA        -24.1190    5.6740   -4.9800 C.3      15 GLL5        0.0000 
     62 CA        -20.9680    5.7430   -2.6550 C.3      10 GLP5        0.0000 
     63 CA        -23.6263    2.9363   -9.8960 C.3       5 GLC5        0.0000 
     64 CA        -24.1520    2.9050  -11.6980 C.3      10 GLP5        0.0000 
@<TRIPOS>BOND
@<TRIPOS>SUBSTRUCTURE
     1 ALC1       53 GROUP        1 X    ALC  0     ROOT ALC X 1
     2 SEC2        7 GROUP        1 X    SEC  0     **** SEC X 2
     3 LYC4        4 GROUP        1 X    LYC  0     **** LYC X 4
     4 ZIC7        1 GROUP        1 X    ZIC  0     **** ZIC X 5
     5 GLC5       34 GROUP        1 X    GLC  0     **** GLC X 6
     6 ALP1       55 GROUP        1 Y    ALP  0     ROOT ALP Y 8
     7 SEP2        9 GROUP        1 Y    SEP  0     **** SEP Y 9
     8 LYP4        6 GROUP        1 Y    LYP  0     **** LYP Y 11
     9 ZIP7        3 GROUP        1 Y    ZIP  0     **** ZIP Y 12
    10 GLP5       36 GROUP        1 Y    GLP  0     **** GLP Y 13
    11 ALL1       54 GROUP        1 Z    ALL  0     ROOT ALL Z 15
    12 SEL2        8 GROUP        1 Z    SEL  0     **** SEL Z 16
    13 LYL4        5 GROUP        1 Z    LYL  0     **** LYL Z 18
    14 ZIL7        2 GROUP        1 Z    ZIL  0     **** ZIL Z 19
    15 GLL5       35 GROUP        1 Z    GLL  0     **** GLL Z 20
@<TRIPOS>SET

