#    Name: 2ic5_GNP_1_ligand
#    Modification time : Tue Mar 25 17:36:46 2014

@<TRIPOS>MOLECULE
2ic5_GNP_1_ligand
   44    46     1     0     0
SMALL
NO_CHARGES


@<TRIPOS>ATOM
      1 PG        -15.6510    4.8890  -12.6910 P.3       1 GNP501      0.0000 
      2 O1G       -16.3640    5.1450  -14.0100 O.co2     1 GNP501      0.0000 
      3 O2G       -14.2880    5.6260  -12.5880 O.co2     1 GNP501      0.0000 
      4 O3G       -15.2620    3.4270  -12.7720 O.co2     1 GNP501      0.0000 
      5 N3B       -16.7110    4.8940  -11.4100 N.4       1 GNP501      0.0000 
      6 PB        -17.6890    6.1410  -11.0160 P.3       1 GNP501      0.0000 
      7 O1B       -16.9720    7.1000  -10.1450 O.co2     1 GNP501      0.0000 
      8 O2B       -18.1890    6.6550  -12.2810 O.co2     1 GNP501      0.0000 
      9 O3A       -18.8620    5.6470  -10.1480 O.3       1 GNP501      0.0000 
     10 PA        -20.3520    5.3530  -10.5340 P.3       1 GNP501      0.0000 
     11 O1A       -21.1390    6.5810  -10.8430 O.co2     1 GNP501      0.0000 
     12 O2A       -20.4200    4.3220  -11.5940 O.co2     1 GNP501      0.0000 
     13 O5'       -21.0100    4.7610   -9.2250 O.3       1 GNP501      0.0000 
     14 C5'       -20.3790    3.6330   -8.5880 C.3       1 GNP501      0.0000 
     15 C4'       -21.3160    2.9050   -7.6620 C.3       1 GNP501      0.0000 
     16 O4'       -21.7180    3.7960   -6.5900 O.3       1 GNP501      0.0000 
     17 C3'       -22.6200    2.4020   -8.2640 C.3       1 GNP501      0.0000 
     18 O3'       -23.0180    1.2070   -7.6150 O.3       1 GNP501      0.0000 
     19 C2'       -23.5810    3.5330   -7.9240 C.3       1 GNP501      0.0000 
     20 O2'       -24.9100    3.0990   -7.8530 O.3       1 GNP501      0.0000 
     21 C1'       -23.1120    3.9050   -6.5270 C.3       1 GNP501      0.0000 
     22 N9        -23.4430    5.2760   -6.1220 N.pl3     1 GNP501      0.0000 
     23 C8        -23.1750    6.4150   -6.8180 C.2       1 GNP501      0.0000 
     24 N7        -23.5830    7.5120   -6.2210 N.2       1 GNP501      0.0000 
     25 C5        -24.1840    7.0510   -5.0520 C.2       1 GNP501      0.0000 
     26 C6        -24.8180    7.7620   -4.0030 C.2       1 GNP501      0.0000 
     27 O6        -24.9760    8.9810   -3.9100 O.2       1 GNP501      0.0000 
     28 N1        -25.2970    6.9260   -2.9980 N.am      1 GNP501      0.0000 
     29 C2        -25.1810    5.5520   -3.0090 C.2       1 GNP501      0.0000 
     30 N2        -25.7220    4.8900   -1.9540 N.pl3     1 GNP501      0.0000 
     31 N3        -24.5910    4.8740   -3.9940 N.2       1 GNP501      0.0000 
     32 C4        -24.1190    5.6740   -4.9800 C.2       1 GNP501      0.0000 
     33 H         -19.4953    3.9549   -8.0040 H         1 GNP501      0.0000 
     34 H         -20.0078    2.9125   -9.3421 H         1 GNP501      0.0000 
     35 H         -20.8015    2.0522   -7.2178 H         1 GNP501      0.0000 
     36 H         -22.5169    2.3376   -9.2974 H         1 GNP501      0.0000 
     37 H         -23.3966    4.3420   -8.5589 H         1 GNP501      0.0000 
     38 H         -23.5137    3.1911   -5.8355 H         1 GNP501      0.0000 
     39 H         -22.7057    6.3925   -7.7072 H         1 GNP501      0.0000 
     40 H         -25.7821    7.3809   -2.1721 H         1 GNP501      0.0000 
     41 H         -26.1862    5.4545   -1.2715 H         1 GNP501      0.0000 
     42 H         -25.6084    3.8965   -1.9528 H         1 GNP501      0.0000 
     43 H         -23.9288    1.4014   -7.2508 H         1 GNP501      0.0000 
     44 H         -25.2400    3.4204   -6.9655 H         1 GNP501      0.0000 
@<TRIPOS>BOND
     1    2    1 ar   
     2    3    1 ar   
     3    4    1 ar   
     4    5    1 1    
     5    6    5 1    
     6    7    6 ar   
     7    8    6 ar   
     8    9    6 1    
     9   10    9 1    
    10   11   10 ar   
    11   12   10 ar   
    12   13   10 1    
    13   14   13 1    
    14   15   14 1    
    15   33   14 1    
    16   34   14 1    
    17   16   15 1    
    18   17   15 1    
    19   35   15 1    
    20   21   16 1    
    21   18   17 1    
    22   19   17 1    
    23   36   17 1    
    24   43   18 1    
    25   20   19 1    
    26   21   19 1    
    27   37   19 1    
    28   44   20 1    
    29   22   21 1    
    30   38   21 1    
    31   23   22 1    
    32   32   22 1    
    33   24   23 2    
    34   39   23 1    
    35   25   24 1    
    36   26   25 1    
    37   32   25 2    
    38   27   26 2    
    39   28   26 am   
    40   29   28 1    
    41   40   28 1    
    42   30   29 1    
    43   31   29 2    
    44   41   30 1    
    45   42   30 1    
    46   32   31 1    
@<TRIPOS>SUBSTRUCTURE
     1 GNP501      1 GROUP   
@<TRIPOS>SET

