#    Name: 3cxi_VIT_2_INTS_M
#    Modification time : Mon Mar 24 22:29:32 2014

@<TRIPOS>MOLECULE
3cxi_VIT_2_INTS_M
   89     0     3     0     0
SMALL
NO_CHARGES


@<TRIPOS>ATOM
      1 CA         23.2525   49.0000   21.1810 C.3       1 GLC5        0.0000 
      2 CA         21.3740   49.2160   20.7770 C.3       3 GLL5        0.0000 
      3 CA         25.1310   48.7840   21.5850 C.3       2 GLP5        0.0000 
      4 CA         21.6510   50.0295   18.7525 C.3       1 GLC5        0.0000 
      5 CA         21.9280   50.8430   16.7280 C.3       2 GLP5        0.0000 
      6 CA         23.3070   37.7560   17.9980 C.3       1 GLC5        0.0000 
      7 CA         24.9100   39.1150   18.1680 C.3       3 GLL5        0.0000 
      8 CA         21.7040   36.3970   17.8280 C.3       2 GLP5        0.0000 
      9 CA         26.3670   40.2435   19.8620 C.3       1 GLC5        0.0000 
     10 CA         26.8070   38.0780   19.6610 C.3       3 GLL5        0.0000 
     11 CA         25.9270   42.4090   20.0630 C.3       2 GLP5        0.0000 
     12 CA         27.1900   36.5740   17.2105 C.3       1 GLC5        0.0000 
     13 CA         27.7260   38.0610   18.4190 C.3       3 GLL5        0.0000 
     14 CA         26.6540   35.0870   16.0020 C.3       2 GLP5        0.0000 
     15 CA         28.2115   39.5620   14.1445 C.3       1 GLC5        0.0000 
     16 CA         28.1660   38.5410   15.8740 C.3       3 GLL5        0.0000 
     17 CA         28.2570   40.5830   12.4150 C.3       2 GLP5        0.0000 
     18 CA         28.3960   37.0430   15.2565 C.3       1 GLC5        0.0000 
     19 CA         28.6260   35.5450   14.6390 C.3       2 GLP5        0.0000 
     20 CA         29.2600   39.6750   16.4380 C.3       1 GLC5        0.0000 
     21 CA         30.3540   40.8090   17.0020 C.3       2 GLP5        0.0000 
     22 CA         22.8120   42.2375   14.8295 C.3       1 GLC5        0.0000 
     23 CA         23.5650   40.3470   15.4870 C.3       3 GLL5        0.0000 
     24 CA         22.0590   44.1280   14.1720 C.3       2 GLP5        0.0000 
     25 CA         23.6680   39.5430   22.0810 C.3       1 GLC5        0.0000 
     26 CA         24.3710   38.6770   20.6550 C.3       3 GLL5        0.0000 
     27 CA         22.9650   40.4090   23.5070 C.3       2 GLP5        0.0000 
     28 CA         20.1840   39.8805   15.1375 C.3       1 GLC5        0.0000 
     29 CA         21.7110   39.2100   16.3820 C.3       3 GLL5        0.0000 
     30 CA         18.6570   40.5510   13.8930 C.3       2 GLP5        0.0000 
     31 CA         19.8690   38.9295   17.2805 C.3       1 GLC5        0.0000 
     32 CA         18.0270   38.6490   18.1790 C.3       2 GLP5        0.0000 
     33 CA         21.6915   37.5690   15.2305 C.3       1 GLC5        0.0000 
     34 CA         21.6720   35.9280   14.0790 C.3       2 GLP5        0.0000 
     35 CA         21.7505   43.3110   21.5645 C.3       1 GLC5        0.0000 
     36 CA         21.5920   44.0060   19.5390 C.3       3 GLL5        0.0000 
     37 CA         21.9090   42.6160   23.5900 C.3       2 GLP5        0.0000 
     38 CA         24.3755   44.3180   20.5375 C.3       1 GLC5        0.0000 
     39 CA         23.0370   44.3190   19.4240 C.3       3 GLL5        0.0000 
     40 CA         25.7140   44.3170   21.6510 C.3       2 GLP5        0.0000 
     41 CA         24.2210   44.4520   17.6635 C.3       1 GLC5        0.0000 
     42 CA         25.4050   44.5850   15.9030 C.3       2 GLP5        0.0000 
     43 CA         19.1030   47.0065   18.4405 C.3       1 GLC5        0.0000 
     44 CA         19.9220   47.3200   20.1550 C.3       3 GLL5        0.0000 
     45 CA         18.2840   46.6930   16.7260 C.3       2 GLP5        0.0000 
     46 CA         20.7280   48.4845   18.4980 C.3       1 GLC5        0.0000 
     47 CA         19.2950   49.7560   19.4230 C.3       3 GLL5        0.0000 
     48 CA         22.1610   47.2130   17.5730 C.3       2 GLP5        0.0000 
     49 CA         20.6115   50.2995   18.0755 C.3       1 GLC5        0.0000 
     50 CA         18.7895   48.2245   18.0745 C.3       1 GLC5        0.0000 
     51 CA         21.1740   55.2905   18.7370 C.3       1 GLC5        0.0000 
     52 CA         20.1770   54.8890   19.9440 C.3       3 GLL5        0.0000 
     53 CA         22.1710   55.6920   17.5300 C.3       2 GLP5        0.0000 
     54 CA         18.0985   53.3655   16.5340 C.3       1 GLC5        0.0000 
     55 CA         19.0370   54.1300   18.0210 C.3       3 GLL5        0.0000 
     56 CA         17.1600   52.6010   15.0470 C.3       2 GLP5        0.0000 
     57 CA         21.3655   47.9450   22.3137 C.3       1 GLC5        0.0000 
     58 CA         19.9120   48.8160   20.5720 C.3       3 GLL5        0.0000 
     59 CA         22.0880   46.8740   23.9530 C.3       2 GLP5        0.0000 
     60 CA         26.5707   36.9715   16.5038 C.3       1 GLC5        0.0000 
     61 CA         25.7610   39.1310   16.9440 C.3       3 GLL5        0.0000 
     62 CA         25.6260   41.3023   16.2897 C.3       1 GLC5        0.0000 
     63 CA         25.8090   43.1780   16.3260 C.3       2 GLP5        0.0000 
     64 CA         21.9768   38.0362   17.1755 C.3       1 GLC5        0.0000 
     65 CA         22.7880   40.1410   16.6640 C.3       3 GLL5        0.0000 
     66 CA         25.3395   40.5916   19.9040 C.3       1 GLC5        0.0000 
     67 CA         24.2441   42.0482   16.3569 C.3       1 GLC5        0.0000 
     68 CA         19.8325   43.9582   17.4825 C.3       1 GLC5        0.0000 
     69 CA         21.1870   41.9010   17.8800 C.3       3 GLL5        0.0000 
     70 CA         18.5520   45.2600   16.9430 C.3       2 GLP5        0.0000 
     71 CA         21.7104   43.3537   15.9495 C.3       1 GLC5        0.0000 
     72 CA         21.0390   43.4120   18.1640 C.3       3 GLL5        0.0000 
     73 CA         19.8702   44.9347   18.3075 C.3       1 GLC5        0.0000 
     74 CA         22.1686   45.6135   18.3554 C.3       1 GLC5        0.0000 
     75 CA         21.4662   46.4643   18.9670 C.3       1 GLC5        0.0000 
     76 CA         20.7850   45.2130   19.8050 C.3       3 GLL5        0.0000 
     77 CA         21.2140   46.8215   22.2445 C.3       1 GLC5        0.0000 
     78 CA         20.7580   46.2180   20.9170 C.3       3 GLL5        0.0000 
     79 CA         21.2218   47.6905   18.9939 C.3       1 GLC5        0.0000 
     80 CA         19.2000   50.2725   21.7729 C.3       1 GLC5        0.0000 
     81 CA         18.4310   51.1590   23.4970 C.3       2 GLP5        0.0000 
     82 CA         19.0660   52.0862   21.4267 C.3       1 GLC5        0.0000 
     83 CA         18.5770   51.1430   19.7480 C.3       3 GLL5        0.0000 
     84 CA         19.1020   52.3990   22.9860 C.3       2 GLP5        0.0000 
     85 CA         19.3690   53.3995   21.3570 C.3       1 GLC5        0.0000 
     86 CA         19.0950   53.9110   19.5120 C.3       3 GLL5        0.0000 
     87 CA         20.6465   53.4709   17.9581 C.3       1 GLC5        0.0000 
     88 CA         19.4830   52.4040   19.9870 C.3       3 GLL5        0.0000 
     89 CA         22.1300   53.2980   17.0310 C.3       2 GLP5        0.0000 
@<TRIPOS>BOND
@<TRIPOS>SUBSTRUCTURE
     1 GLC5        1 GROUP        1 X    GLC  0     ROOT GLC X 6
     2 GLP5        3 GROUP        1 Y    GLP  0     ROOT GLP Y 13
     3 GLL5        2 GROUP        1 Z    GLL  0     ROOT GLL Z 20
@<TRIPOS>SET

