#    Name: 3cxi_VIT_2_ligand
#    Modification time : Mon Mar 24 22:29:32 2014

@<TRIPOS>MOLECULE
3cxi_VIT_2_ligand
   81    82     1     0     0
SMALL
NO_CHARGES


@<TRIPOS>ATOM
      1 C1         21.3740   49.2160   20.7770 C.3       1 VIT311      0.0000 
      2 C2         27.2140   38.5810   17.0670 C.ar      1 VIT311      0.0000 
      3 C3         25.7610   39.1310   16.9440 C.ar      1 VIT311      0.0000 
      4 C4         24.9100   39.1150   18.1680 C.ar      1 VIT311      0.0000 
      5 C5         25.3560   38.6280   19.5020 C.ar      1 VIT311      0.0000 
      6 C6         26.8070   38.0780   19.6610 C.ar      1 VIT311      0.0000 
      7 C7         27.7260   38.0610   18.4190 C.ar      1 VIT311      0.0000 
      8 C8         28.1660   38.5410   15.8740 C.3       1 VIT311      0.0000 
      9 O1         23.4730   39.6420   17.9610 O.3       1 VIT311      0.0000 
     10 C9         22.7880   40.1410   16.6640 C.3       1 VIT311      0.0000 
     11 C10        25.1250   39.7220   15.5630 C.3       1 VIT311      0.0000 
     12 C11        23.5650   40.3470   15.4870 C.3       1 VIT311      0.0000 
     13 C12        24.3710   38.6770   20.6550 C.3       1 VIT311      0.0000 
     14 C13        27.3540   37.5540   20.9860 C.3       1 VIT311      0.0000 
     15 O2         29.0170   37.5760   18.5230 O.3       1 VIT311      0.0000 
     16 C14        21.7110   39.2100   16.3820 C.3       1 VIT311      0.0000 
     17 C15        22.1820   41.5930   16.7000 C.3       1 VIT311      0.0000 
     18 C16        21.1870   41.9010   17.8800 C.3       1 VIT311      0.0000 
     19 C17        21.0390   43.4120   18.1640 C.3       1 VIT311      0.0000 
     20 C18        21.5920   44.0060   19.5390 C.3       1 VIT311      0.0000 
     21 C19        23.0370   44.3190   19.4240 C.3       1 VIT311      0.0000 
     22 C20        20.7850   45.2130   19.8050 C.3       1 VIT311      0.0000 
     23 C21        20.7580   46.2180   20.9170 C.3       1 VIT311      0.0000 
     24 C22        19.9220   47.3200   20.1550 C.3       1 VIT311      0.0000 
     25 C23        19.9120   48.8160   20.5720 C.3       1 VIT311      0.0000 
     26 C24        19.2950   49.7560   19.4230 C.3       1 VIT311      0.0000 
     27 C25        18.5770   51.1430   19.7480 C.3       1 VIT311      0.0000 
     28 C26        19.4830   52.4040   19.9870 C.3       1 VIT311      0.0000 
     29 C27        19.0950   53.9110   19.5120 C.3       1 VIT311      0.0000 
     30 C28        20.1770   54.8890   19.9440 C.3       1 VIT311      0.0000 
     31 C29        19.0370   54.1300   18.0210 C.3       1 VIT311      0.0000 
     32 H          25.1747   38.9196   14.7892 H         1 VIT311      0.0000 
     33 H          25.7998   40.5285   15.1899 H         1 VIT311      0.0000 
     34 H          23.7233   41.4117   15.2410 H         1 VIT311      0.0000 
     35 H          23.1386   39.8727   14.5856 H         1 VIT311      0.0000 
     36 H          21.6569   41.7735   15.7475 H         1 VIT311      0.0000 
     37 H          23.0138   42.3150   16.7503 H         1 VIT311      0.0000 
     38 H          21.5543   41.3984   18.7761 H         1 VIT311      0.0000 
     39 H          20.2123   41.4838   17.6222 H         1 VIT311      0.0000 
     40 H          19.9576   43.6891   18.1006 H         1 VIT311      0.0000 
     41 H          21.5302   43.9862   17.3399 H         1 VIT311      0.0000 
     42 H          21.4074   43.2629   20.2818 H         1 VIT311      0.0000 
     43 H          19.6332   44.8807   19.6535 H         1 VIT311      0.0000 
     44 H          20.8251   45.8678   18.7903 H         1 VIT311      0.0000 
     45 H          21.6991   46.5996   21.1069 H         1 VIT311      0.0000 
     46 H          20.1979   45.8832   21.7179 H         1 VIT311      0.0000 
     47 H          18.8440   46.9577   20.1285 H         1 VIT311      0.0000 
     48 H          20.2234   47.2649   19.0594 H         1 VIT311      0.0000 
     49 H          19.3733   48.9493   21.4550 H         1 VIT311      0.0000 
     50 H          18.5684   49.1267   18.8348 H         1 VIT311      0.0000 
     51 H          20.1221   49.9657   18.6869 H         1 VIT311      0.0000 
     52 H          17.9426   50.9899   20.6449 H         1 VIT311      0.0000 
     53 H          17.8799   51.3630   18.9138 H         1 VIT311      0.0000 
     54 H          20.5086   52.1906   19.5459 H         1 VIT311      0.0000 
     55 H          19.7051   52.4734   21.0996 H         1 VIT311      0.0000 
     56 H          18.1826   54.1925   19.9675 H         1 VIT311      0.0000 
     57 H          21.8122   48.6689   21.4902 H         1 VIT311      0.0000 
     58 H          21.9124   49.0957   19.9429 H         1 VIT311      0.0000 
     59 H          21.4623   50.1747   21.0472 H         1 VIT311      0.0000 
     60 H          29.0576   38.1627   16.1229 H         1 VIT311      0.0000 
     61 H          27.8059   37.9778   15.1303 H         1 VIT311      0.0000 
     62 H          28.3292   39.4533   15.4983 H         1 VIT311      0.0000 
     63 H          24.7716   38.3249   21.5009 H         1 VIT311      0.0000 
     64 H          24.0644   39.6103   20.8422 H         1 VIT311      0.0000 
     65 H          23.5536   38.1318   20.4686 H         1 VIT311      0.0000 
     66 H          28.3011   37.2447   20.9005 H         1 VIT311      0.0000 
     67 H          27.3381   38.2560   21.6980 H         1 VIT311      0.0000 
     68 H          26.8221   36.7788   21.3268 H         1 VIT311      0.0000 
     69 H          22.0499   38.2780   16.2535 H         1 VIT311      0.0000 
     70 H          21.0427   39.1790   17.1253 H         1 VIT311      0.0000 
     71 H          21.2136   39.4583   15.5508 H         1 VIT311      0.0000 
     72 H          23.4051   44.6920   20.2757 H         1 VIT311      0.0000 
     73 H          23.5765   43.5067   19.2024 H         1 VIT311      0.0000 
     74 H          23.2150   44.9935   18.7075 H         1 VIT311      0.0000 
     75 H          21.0648   54.6611   19.5441 H         1 VIT311      0.0000 
     76 H          19.9628   55.8258   19.6674 H         1 VIT311      0.0000 
     77 H          20.2960   54.8965   20.9369 H         1 VIT311      0.0000 
     78 H          19.9146   53.9358   17.5827 H         1 VIT311      0.0000 
     79 H          18.3554   53.5420   17.5855 H         1 VIT311      0.0000 
     80 H          18.7982   55.0740   17.7933 H         1 VIT311      0.0000 
     81 H          29.5944   38.1534   19.1004 H         1 VIT311      0.0000 
@<TRIPOS>BOND
     1   25    1 1    
     2   57    1 1    
     3   58    1 1    
     4   59    1 1    
     5    3    2 ar   
     6    7    2 ar   
     7    8    2 1    
     8    4    3 ar   
     9   11    3 1    
    10    5    4 ar   
    11    9    4 1    
    12    6    5 ar   
    13   13    5 1    
    14    7    6 ar   
    15   14    6 1    
    16   15    7 1    
    17   60    8 1    
    18   61    8 1    
    19   62    8 1    
    20   10    9 1    
    21   12   10 1    
    22   16   10 1    
    23   17   10 1    
    24   12   11 1    
    25   32   11 1    
    26   33   11 1    
    27   34   12 1    
    28   35   12 1    
    29   63   13 1    
    30   64   13 1    
    31   65   13 1    
    32   66   14 1    
    33   67   14 1    
    34   68   14 1    
    35   81   15 1    
    36   69   16 1    
    37   70   16 1    
    38   71   16 1    
    39   18   17 1    
    40   36   17 1    
    41   37   17 1    
    42   19   18 1    
    43   38   18 1    
    44   39   18 1    
    45   20   19 1    
    46   40   19 1    
    47   41   19 1    
    48   21   20 1    
    49   22   20 1    
    50   42   20 1    
    51   72   21 1    
    52   73   21 1    
    53   74   21 1    
    54   23   22 1    
    55   43   22 1    
    56   44   22 1    
    57   24   23 1    
    58   45   23 1    
    59   46   23 1    
    60   25   24 1    
    61   47   24 1    
    62   48   24 1    
    63   26   25 1    
    64   49   25 1    
    65   27   26 1    
    66   50   26 1    
    67   51   26 1    
    68   28   27 1    
    69   52   27 1    
    70   53   27 1    
    71   29   28 1    
    72   54   28 1    
    73   55   28 1    
    74   30   29 1    
    75   31   29 1    
    76   56   29 1    
    77   75   30 1    
    78   76   30 1    
    79   77   30 1    
    80   78   31 1    
    81   79   31 1    
    82   80   31 1    
@<TRIPOS>SUBSTRUCTURE
     1 VIT311      1 GROUP   
@<TRIPOS>SET

