#    Name: 3kqj_UD1_1_INTS_M
#    Modification time : Mon Mar 24 20:07:41 2014

@<TRIPOS>MOLECULE
3kqj_UD1_1_INTS_M
   82     0    12     0     0
SMALL
NO_CHARGES


@<TRIPOS>ATOM
      1 CA         64.9220  -42.6985  116.9055 C.3       4 GLC5        0.0000 
      2 CA         63.1480  -41.9520  117.6370 C.3      12 GLL5        0.0000 
      3 CA         66.6960  -43.4450  116.1740 C.3       8 GLP5        0.0000 
      4 CA         64.0990  -41.4920  114.1595 C.3       4 GLC5        0.0000 
      5 CA         62.2780  -40.3030  114.3860 C.3      12 GLL5        0.0000 
      6 CA         65.9200  -42.6810  113.9330 C.3       8 GLP5        0.0000 
      7 CA         61.3590  -38.8660  113.6510 C.3       4 GLC5        0.0000 
      8 CA         60.4400  -37.4290  112.9160 C.3       8 GLP5        0.0000 
      9 CA         64.2955  -41.6805  124.0320 C.3       4 GLC5        0.0000 
     10 CA         63.4760  -42.1730  122.0720 C.3      12 GLL5        0.0000 
     11 CA         65.1150  -41.1880  125.9920 C.3       8 GLP5        0.0000 
     12 CA         61.6020  -43.2090  122.3850 C.3       4 GLC5        0.0000 
     13 CA         59.7280  -44.2450  122.6980 C.3       8 GLP5        0.0000 
     14 CA         64.8035  -43.5050  121.7655 C.3       4 GLC5        0.0000 
     15 CA         66.1310  -44.8370  121.4590 C.3       8 GLP5        0.0000 
     16 N          60.4185  -42.7500  118.5730 N.am      2 SEC2        0.0000 
     17 N          61.9840  -42.7640  117.8690 N.am     10 SEL2        0.0000 
     18 N          58.8530  -42.7360  119.2770 N.am      6 SEP2        0.0000 
     19 N          63.3685  -38.4525  119.7170 N.am      2 SEC2        0.0000 
     20 N          61.8320  -38.7540  119.0920 N.am     10 SEL2        0.0000 
     21 N          64.9050  -38.1510  120.3420 N.am      6 SEP2        0.0000 
     22 O          61.3735  -37.4740  118.0715 O.2       1 ALC1        0.0000 
     23 O          61.8320  -38.7540  119.0920 O.2       9 ALL1        0.0000 
     24 O          60.9150  -36.1940  117.0510 O.2       5 ALP1        0.0000 
     25 O          62.3965  -37.5560  118.4820 O.2       1 ALC1        0.0000 
     26 O          62.9610  -36.3580  117.8720 O.2       5 ALP1        0.0000 
     27 N          59.6285  -37.5325  115.8700 N.am      2 SEC2        0.0000 
     28 N          60.8920  -38.6830  116.2070 N.am     10 SEL2        0.0000 
     29 N          58.3650  -36.3820  115.5330 N.am      6 SEP2        0.0000 
     30 O          60.9035  -37.4385  116.6290 O.2       1 ALC1        0.0000 
     31 O          60.8920  -38.6830  116.2070 O.2       9 ALL1        0.0000 
     32 O          57.6340  -51.5740  112.9300 O.2       1 ALC1        0.0000 
     33 O          58.3790  -50.3860  112.9870 O.2       9 ALL1        0.0000 
     34 O          56.8890  -52.7620  112.8730 O.2       5 ALP1        0.0000 
     35 CA         60.8460  -50.3290  115.7915 C.3       4 GLC5        0.0000 
     36 CA         59.8620  -49.1030  114.3340 C.3      12 GLL5        0.0000 
     37 CA         61.8300  -51.5550  117.2490 C.3       8 GLP5        0.0000 
     38 N          59.8740  -52.7490  114.0160 N.am      2 SEC2        0.0000 
     39 N          59.6510  -51.4340  114.4830 N.am     10 SEL2        0.0000 
     40 N          60.0970  -54.0640  113.5490 N.am      6 SEP2        0.0000 
     41 CA         58.0295  -47.7335  110.3110 C.3       4 GLC5        0.0000 
     42 CA         57.9530  -46.7990  112.0400 C.3      12 GLL5        0.0000 
     43 CA         58.1060  -48.6680  108.5820 C.3       8 GLP5        0.0000 
     44 O          56.4525  -43.2310  110.9095 O.2       1 ALC1        0.0000 
     45 O          56.2500  -44.4510  111.3360 O.2       9 ALL1        0.0000 
     46 O          56.6550  -42.0110  110.4830 O.2       5 ALP1        0.0000 
     47 CA         59.7400  -42.4135  111.6410 C.3       4 GLC5        0.0000 
     48 CA         60.0540  -44.1070  112.3710 C.3      12 GLL5        0.0000 
     49 CA         59.4260  -40.7200  110.9110 C.3       8 GLP5        0.0000 
     50 CA         59.0965  -42.7475  113.8120 C.3       4 GLC5        0.0000 
     51 CA         58.1390  -41.3880  115.2530 C.3       8 GLP5        0.0000 
     52 N          63.8125  -44.8840  113.4695 N.am      2 SEC2        0.0000 
     53 N          62.5440  -44.2610  113.5260 N.am     10 SEL2        0.0000 
     54 N          65.0810  -45.5070  113.4130 N.am      6 SEP2        0.0000 
     55 N          62.4675  -47.1710  114.2750 N.am      2 SEC2        0.0000 
     56 N          61.7810  -46.1770  114.7730 N.am     10 SEL2        0.0000 
     57 N          63.1540  -48.1650  113.7770 N.am      6 SEP2        0.0000 
     58 N          63.9880  -45.6490  116.7535 N.am      2 SEC2        0.0000 
     59 N          62.9020  -44.8770  117.3750 N.am     10 SEL2        0.0000 
     60 N          65.0740  -46.4210  116.1320 N.am      6 SEP2        0.0000 
     61 NZ         59.8710  -45.5975  118.6565 N.4       3 LYC4        0.0000 
     62 NZ         60.5050  -44.6970  117.6920 N.4      11 LYL4        0.0000 
     63 NZ         58.4470  -47.3890  119.0300 N.4       7 LYP4        0.0000 
     64 NZ         59.6790  -43.7165  118.4845 N.4       3 LYC4        0.0000 
     65 NZ         57.5290  -42.7700  119.3840 N.4       7 LYP4        0.0000 
     66 N          59.8710  -45.5975  118.6565 N.am      2 SEC2        0.0000 
     67 N          60.5050  -44.6970  117.6920 N.am     10 SEL2        0.0000 
     68 N          59.2370  -46.4980  119.6210 N.am      6 SEP2        0.0000 
     69 N          59.6790  -43.7165  118.4845 N.am      2 SEC2        0.0000 
     70 CA         60.2197  -40.1749  114.9850 C.3       4 GLC5        0.0000 
     71 CA         62.0960  -40.6940  115.8580 C.3      12 GLL5        0.0000 
     72 CA         58.2750  -40.1600  114.6170 C.3       8 GLP5        0.0000 
     73 CA         60.4050  -49.6800  112.4902 C.3       4 GLC5        0.0000 
     74 CA         59.4200  -47.9610  113.7070 C.3      12 GLL5        0.0000 
     75 CA         61.1690  -50.8280  110.9600 C.3       8 GLP5        0.0000 
     76 CA         61.4455  -48.3710  113.1897 C.3       4 GLC5        0.0000 
     77 CA         63.2500  -48.2100  112.3590 C.3       8 GLP5        0.0000 
     78 CA         57.1568  -43.6180  113.8828 C.3       4 GLC5        0.0000 
     79 CA         57.3250  -45.8030  112.9960 C.3      12 GLL5        0.0000 
     80 CA         56.9290  -42.0950  115.1600 C.3       8 GLP5        0.0000 
     81 CA         58.7890  -42.6535  111.4010 C.3       4 GLC5        0.0000 
     82 CA         57.4440  -44.4790  112.2150 C.3      12 GLL5        0.0000 
@<TRIPOS>BOND
@<TRIPOS>SUBSTRUCTURE
     1 ALC1       22 GROUP        1 X    ALC  0     ROOT ALC X 1
     2 SEC2       16 GROUP        1 X    SEC  0     **** SEC X 2
     3 LYC4       61 GROUP        1 X    LYC  0     **** LYC X 4
     4 GLC5        1 GROUP        1 X    GLC  0     **** GLC X 6
     5 ALP1       24 GROUP        1 Y    ALP  0     ROOT ALP Y 8
     6 SEP2       18 GROUP        1 Y    SEP  0     **** SEP Y 9
     7 LYP4       63 GROUP        1 Y    LYP  0     **** LYP Y 11
     8 GLP5        3 GROUP        1 Y    GLP  0     **** GLP Y 13
     9 ALL1       23 GROUP        1 Z    ALL  0     ROOT ALL Z 15
    10 SEL2       17 GROUP        1 Z    SEL  0     **** SEL Z 16
    11 LYL4       62 GROUP        1 Z    LYL  0     **** LYL Z 18
    12 GLL5        2 GROUP        1 Z    GLL  0     **** GLL Z 20
@<TRIPOS>SET

