#    Name: 3kqj_UD1_1_ligand
#    Modification time : Mon Mar 24 20:07:41 2014

@<TRIPOS>MOLECULE
3kqj_UD1_1_ligand
   64    66     1     0     0
SMALL
NO_CHARGES


@<TRIPOS>ATOM
      1 C1'        63.1480  -41.9520  117.6370 C.3       1 UD1450      0.0000 
      2 C2'        63.0760  -40.7350  118.5800 C.3       1 UD1450      0.0000 
      3 C3'        61.8640  -39.9140  118.2370 C.3       1 UD1450      0.0000 
      4 C4'        62.0060  -39.4590  116.7820 C.3       1 UD1450      0.0000 
      5 C5'        62.0960  -40.6940  115.8580 C.3       1 UD1450      0.0000 
      6 C6'        62.2780  -40.3030  114.3860 C.3       1 UD1450      0.0000 
      7 C7'        63.8780  -41.7790  120.6540 C.2       1 UD1450      0.0000 
      8 C8'        63.4760  -42.1730  122.0720 C.3       1 UD1450      0.0000 
      9 N2'        62.9250  -41.1810  119.9640 N.am      1 UD1450      0.0000 
     10 O1'        61.9840  -42.7640  117.8690 O.3       1 UD1450      0.0000 
     11 O3'        61.8320  -38.7540  119.0920 O.3       1 UD1450      0.0000 
     12 O4'        60.8920  -38.6830  116.2070 O.3       1 UD1450      0.0000 
     13 O5'        63.2400  -41.4900  116.2850 O.3       1 UD1450      0.0000 
     14 O6'        63.4990  -39.4640  114.1000 O.3       1 UD1450      0.0000 
     15 O7'        64.9660  -41.9800  120.1430 O.2       1 UD1450      0.0000 
     16 N1         58.4550  -48.0400  112.7060 N.am      1 UD1450      0.0000 
     17 C2         57.9380  -49.2980  112.3580 C.2       1 UD1450      0.0000 
     18 N3         58.3790  -50.3860  112.9870 N.am      1 UD1450      0.0000 
     19 C4         59.3160  -50.4050  113.9660 C.2       1 UD1450      0.0000 
     20 C5         59.8620  -49.1030  114.3340 C.2       1 UD1450      0.0000 
     21 C6         59.4200  -47.9610  113.7070 C.2       1 UD1450      0.0000 
     22 O2         57.0580  -49.4280  111.4760 O.2       1 UD1450      0.0000 
     23 O4         59.6510  -51.4340  114.4830 O.2       1 UD1450      0.0000 
     24 C1B        57.9530  -46.7990  112.0400 C.3       1 UD1450      0.0000 
     25 C2B        57.3250  -45.8030  112.9960 C.3       1 UD1450      0.0000 
     26 O2'        56.0550  -46.2290  113.6990 O.3       1 UD1450      0.0000 
     27 C3B        57.4440  -44.4790  112.2150 C.3       1 UD1450      0.0000 
     28 C4B        58.8600  -44.6950  111.5670 C.3       1 UD1450      0.0000 
     29 O4B        59.0740  -46.1220  111.5050 O.3       1 UD1450      0.0000 
     30 O3B        56.2500  -44.4510  111.3360 O.3       1 UD1450      0.0000 
     31 C5B        60.0540  -44.1070  112.3710 C.3       1 UD1450      0.0000 
     32 O5B        60.1450  -44.6310  113.6980 O.3       1 UD1450      0.0000 
     33 PA         61.5230  -44.7670  114.4100 P.3       1 UD1450      0.0000 
     34 O1A        62.5440  -44.2610  113.5260 O.co2     1 UD1450      0.0000 
     35 O2A        61.7810  -46.1770  114.7730 O.co2     1 UD1450      0.0000 
     36 O3A        61.6430  -43.7950  115.5910 O.3       1 UD1450      0.0000 
     37 PB         61.7420  -44.1140  117.1260 P.3       1 UD1450      0.0000 
     38 O1B        62.9020  -44.8770  117.3750 O.co2     1 UD1450      0.0000 
     39 O2B        60.5050  -44.6970  117.6920 O.co2     1 UD1450      0.0000 
     40 H          64.0476  -42.4972  117.9183 H         1 UD1450      0.0000 
     41 H          63.9509  -40.1479  118.4579 H         1 UD1450      0.0000 
     42 H          60.9928  -40.5052  118.3291 H         1 UD1450      0.0000 
     43 H          62.9366  -38.9231  116.6513 H         1 UD1450      0.0000 
     44 H          61.1899  -41.2598  115.9607 H         1 UD1450      0.0000 
     45 H          61.3724  -39.7578  114.0552 H         1 UD1450      0.0000 
     46 H          62.3198  -41.2300  113.7813 H         1 UD1450      0.0000 
     47 H          61.9745  -40.9866  120.3861 H         1 UD1450      0.0000 
     48 H          57.9591  -51.3407  112.6984 H         1 UD1450      0.0000 
     49 H          60.5755  -49.0778  115.0661 H         1 UD1450      0.0000 
     50 H          59.8000  -47.0395  113.9738 H         1 UD1450      0.0000 
     51 H          57.2549  -47.0384  111.2750 H         1 UD1450      0.0000 
     52 H          58.1535  -45.6945  113.8119 H         1 UD1450      0.0000 
     53 H          57.4895  -43.7155  112.9166 H         1 UD1450      0.0000 
     54 H          58.8563  -44.2777  110.5865 H         1 UD1450      0.0000 
     55 H          59.9285  -43.0071  112.3716 H         1 UD1450      0.0000 
     56 H          60.9688  -44.3156  111.7836 H         1 UD1450      0.0000 
     57 H          64.2252  -42.6214  122.5594 H         1 UD1450      0.0000 
     58 H          63.2065  -41.3784  122.6160 H         1 UD1450      0.0000 
     59 H          62.7027  -42.8070  122.0762 H         1 UD1450      0.0000 
     60 H          62.2390  -38.0203  118.5479 H         1 UD1450      0.0000 
     61 H          60.6816  -37.9857  116.8923 H         1 UD1450      0.0000 
     62 H          63.7319  -39.6623  113.1479 H         1 UD1450      0.0000 
     63 H          55.4406  -45.4438  113.6216 H         1 UD1450      0.0000 
     64 H          56.2648  -43.5472  110.9083 H         1 UD1450      0.0000 
@<TRIPOS>BOND
     1    2    1 1    
     2   10    1 1    
     3   13    1 1    
     4   40    1 1    
     5    3    2 1    
     6    9    2 1    
     7   41    2 1    
     8    4    3 1    
     9   11    3 1    
    10   42    3 1    
    11    5    4 1    
    12   12    4 1    
    13   43    4 1    
    14    6    5 1    
    15   13    5 1    
    16   44    5 1    
    17   14    6 1    
    18   45    6 1    
    19   46    6 1    
    20    8    7 1    
    21    9    7 am   
    22   15    7 2    
    23   57    8 1    
    24   58    8 1    
    25   59    8 1    
    26   47    9 1    
    27   37   10 1    
    28   60   11 1    
    29   61   12 1    
    30   62   14 1    
    31   17   16 1    
    32   21   16 1    
    33   24   16 1    
    34   18   17 1    
    35   22   17 2    
    36   19   18 1    
    37   48   18 1    
    38   20   19 1    
    39   23   19 2    
    40   21   20 2    
    41   49   20 1    
    42   50   21 1    
    43   25   24 1    
    44   29   24 1    
    45   51   24 1    
    46   26   25 1    
    47   27   25 1    
    48   52   25 1    
    49   63   26 1    
    50   28   27 1    
    51   30   27 1    
    52   53   27 1    
    53   29   28 1    
    54   31   28 1    
    55   54   28 1    
    56   64   30 1    
    57   32   31 1    
    58   55   31 1    
    59   56   31 1    
    60   33   32 1    
    61   34   33 ar   
    62   35   33 ar   
    63   36   33 1    
    64   37   36 1    
    65   38   37 ar   
    66   39   37 ar   
@<TRIPOS>SUBSTRUCTURE
     1 UD1450      1 GROUP   
@<TRIPOS>SET

