#    Name: 3CB0_2_CAVITY_N1_6.mol2
#    Modification time : Tue Mar 11 13:08:43 2014

@<TRIPOS>MOLECULE
3CB0_2_CAVITY_N1_6.mol2
  142     0     5     0     0
SMALL
NO_CHARGES


@<TRIPOS>ATOM
      1 CA          6.3429   79.4916   51.3544 C.3       4 GLY6        0.0000 
      2 CA          5.4263   80.6768   51.2825 C.3       4 GLY6        0.0000 
      3 OG          4.6722   80.0257   50.1612 O.2       1 SER1        0.0000 
      4 OG          3.0015   80.5599   48.9681 O.2       1 SER1        0.0000 
      5 O          14.1102   90.8422   45.5594 O.2       2 ALA2        0.0000 
      6 N          14.2726   89.0059   44.5099 N.2       2 ALA2        0.0000 
      7 N          13.3561   90.1911   44.4380 N.2       2 ALA2        0.0000 
      8 O          12.4395   91.3763   44.3662 O.2       2 ALA2        0.0000 
      9 N          12.6020   89.5400   43.3167 N.2       2 ALA2        0.0000 
     10 CA         15.0274   91.4913   44.5656 C.3       4 GLY6        0.0000 
     11 O          14.1096   89.0079   46.6249 O.2       2 ALA2        0.0000 
     12 O          13.1930   90.1932   46.5531 O.2       2 ALA2        0.0000 
     13 N          13.3555   88.3568   45.5036 N.2       2 ALA2        0.0000 
     14 DU         12.4389   89.5420   45.4318 H         5 CUB7        0.0000 
     15 N          11.5224   90.7273   45.3600 N.2       2 ALA2        0.0000 
     16 N          12.6013   87.7057   44.3823 N.2       2 ALA2        0.0000 
     17 N          11.6848   88.8909   44.3105 N.2       2 ALA2        0.0000 
     18 N          10.4408   86.4117   50.5998 N.2       2 ALA2        0.0000 
     19 CA          9.5243   87.5969   50.5280 C.3       4 GLY6        0.0000 
     20 N          11.5198   83.3901   49.6221 N.2       2 ALA2        0.0000 
     21 O          10.6033   84.5753   49.5503 O.2       2 ALA2        0.0000 
     22 DU          9.6867   85.7606   49.4785 H         5 CUB7        0.0000 
     23 N           8.7702   86.9458   49.4067 N.2       2 ALA2        0.0000 
     24 N          11.6823   81.5538   48.5726 N.2       2 ALA2        0.0000 
     25 O          10.7657   82.7390   48.5008 O.2       2 ALA2        0.0000 
     26 O           9.8492   83.9242   48.4290 O.2       2 ALA2        0.0000 
     27 DU          8.9326   85.1094   48.3572 H         5 CUB7        0.0000 
     28 N           8.0161   86.2947   48.2854 N.2       2 ALA2        0.0000 
     29 DU         10.9282   80.9026   47.4513 H         5 CUB7        0.0000 
     30 DU         10.0116   82.0879   47.3795 H         5 CUB7        0.0000 
     31 DU          9.0950   83.2731   47.3077 H         5 CUB7        0.0000 
     32 DU          8.1785   84.4583   47.2358 H         5 CUB7        0.0000 
     33 N           7.2619   85.6436   47.1640 N.2       2 ALA2        0.0000 
     34 DU          7.4244   83.8072   46.1145 H         5 CUB7        0.0000 
     35 DU          6.5078   84.9925   46.0427 H         5 CUB7        0.0000 
     36 CA          5.5913   86.1777   45.9709 C.3       4 GLY6        0.0000 
     37 DU          6.6702   83.1561   44.9932 H         5 CUB7        0.0000 
     38 DU          5.7537   84.3413   44.9214 H         5 CUB7        0.0000 
     39 CA          4.8371   85.5266   44.8496 C.3       4 GLY6        0.0000 
     40 CA          3.9206   86.7118   44.7778 C.3       4 GLY6        0.0000 
     41 CZ          5.9161   82.5050   43.8719 C.ar      3 PHE5        0.0000 
     42 CZ          4.9996   83.6902   43.8001 C.ar      3 PHE5        0.0000 
     43 CZ          4.0830   84.8755   43.7283 C.ar      3 PHE5        0.0000 
     44 N           9.6861   83.9263   50.5440 N.2       2 ALA2        0.0000 
     45 N           8.7695   85.1115   50.4722 N.2       2 ALA2        0.0000 
     46 CA          7.8530   86.2967   50.4004 C.3       4 GLY6        0.0000 
     47 N          10.7651   80.9047   49.5663 N.2       2 ALA2        0.0000 
     48 N           9.8485   82.0899   49.4945 N.2       2 ALA2        0.0000 
     49 DU          8.9320   83.2752   49.4227 H         5 CUB7        0.0000 
     50 O           8.0154   84.4604   49.3509 O.2       2 ALA2        0.0000 
     51 CA          7.0989   85.6456   49.2791 C.3       4 GLY6        0.0000 
     52 DU         10.0110   80.2536   48.4450 H         5 CUB7        0.0000 
     53 DU          9.0944   81.4388   48.3732 H         5 CUB7        0.0000 
     54 DU          8.1779   82.6240   48.3014 H         5 CUB7        0.0000 
     55 OG          7.2613   83.8093   48.2296 O.2       1 SER1        0.0000 
     56 O           6.3447   84.9945   48.1578 O.2       2 ALA2        0.0000 
     57 OG          7.4237   81.9729   47.1801 O.2       1 SER1        0.0000 
     58 OG          6.5072   83.1582   47.1082 O.2       1 SER1        0.0000 
     59 OG          5.5906   84.3434   47.0364 O.2       1 SER1        0.0000 
     60 CA          4.6741   85.5286   46.9646 C.3       4 GLY6        0.0000 
     61 DU          6.6696   81.3218   46.0587 H         5 CUB7        0.0000 
     62 OG          5.7531   82.5070   45.9869 O.2       1 SER1        0.0000 
     63 OG          4.8365   83.6923   45.9151 O.2       1 SER1        0.0000 
     64 CA          3.9199   84.8775   45.8433 C.3       4 GLY6        0.0000 
     65 DU          6.8320   79.4855   45.0092 H         5 CUB7        0.0000 
     66 CZ          5.9155   80.6707   44.9374 C.ar      3 PHE5        0.0000 
     67 CZ          4.9989   81.8559   44.8656 C.ar      3 PHE5        0.0000 
     68 CZ          4.0824   83.0412   44.7938 C.ar      3 PHE5        0.0000 
     69 CZ          3.1658   84.2264   44.7220 C.ar      3 PHE5        0.0000 
     70 CZ          5.1614   80.0196   43.8161 C.ar      3 PHE5        0.0000 
     71 N           9.6855   82.0920   51.6095 N.2       2 ALA2        0.0000 
     72 CA          8.7689   83.2772   51.5377 C.3       4 GLY6        0.0000 
     73 CA          7.8524   84.4624   51.4659 C.3       4 GLY6        0.0000 
     74 N           9.8479   80.2556   50.5600 N.2       2 ALA2        0.0000 
     75 CA          8.9313   81.4409   50.4882 C.3       4 GLY6        0.0000 
     76 CA          8.0148   82.6261   50.4164 C.3       4 GLY6        0.0000 
     77 O           7.0982   83.8113   50.3446 O.2       2 ALA2        0.0000 
     78 DU          9.0938   79.6045   49.4387 H         5 CUB7        0.0000 
     79 DU          8.1772   80.7897   49.3669 H         5 CUB7        0.0000 
     80 OG          7.2607   81.9750   49.2951 O.2       1 SER1        0.0000 
     81 DU          7.4231   80.1386   48.2456 H         5 CUB7        0.0000 
     82 OG          6.5066   81.3239   48.1738 O.2       1 SER1        0.0000 
     83 DU          6.6690   79.4875   47.1243 H         5 CUB7        0.0000 
     84 OG          5.7524   80.6728   47.0525 O.2       1 SER1        0.0000 
     85 OG          4.8359   81.8580   46.9807 O.2       1 SER1        0.0000 
     86 DU          4.9983   80.0216   45.9311 H         5 CUB7        0.0000 
     87 CZ          4.0818   81.2069   45.8593 C.ar      3 PHE5        0.0000 
     88 CZ          4.2442   79.3705   44.8098 C.ar      3 PHE5        0.0000 
     89 OG          8.9307   79.6066   51.5538 O.2       1 SER1        0.0000 
     90 CA          8.0142   80.7918   51.4820 C.3       4 GLY6        0.0000 
     91 OG          8.1766   78.9555   50.4324 O.2       1 SER1        0.0000 
     92 CA          7.2600   80.1407   50.3606 C.3       4 GLY6        0.0000 
     93 OG          6.3435   81.3259   50.2888 O.2       1 SER1        0.0000 
     94 DU          6.5059   79.4896   49.2393 H         5 CUB7        0.0000 
     95 OG          5.5894   80.6748   49.1675 O.2       1 SER1        0.0000 
     96 OG          4.8352   80.0237   48.0462 O.2       1 SER1        0.0000 
     97 DU          4.0811   79.3726   46.9249 H         5 CUB7        0.0000 
     98 OG          3.1646   80.5578   46.8531 O.2       1 SER1        0.0000 
     99 CZ          2.4104   79.9067   45.7317 C.ar      3 PHE5        0.0000 
    100 N          15.1898   89.6549   43.5161 N.2       2 ALA2        0.0000 
    101 O          13.3567   92.0254   43.3725 O.2       2 ALA2        0.0000 
    102 CA         12.2758   89.5441   47.5468 C.3       4 GLY6        0.0000 
    103 O          12.4383   87.7078   46.4973 O.2       2 ALA2        0.0000 
    104 CA         11.5217   88.8930   46.4255 C.3       4 GLY6        0.0000 
    105 CA         10.6052   90.0782   46.3537 C.3       4 GLY6        0.0000 
    106 O          11.6842   87.0566   45.3760 O.2       2 ALA2        0.0000 
    107 N          10.7676   88.2419   45.3042 N.2       2 ALA2        0.0000 
    108 CA          9.8510   89.4271   45.2324 C.3       4 GLY6        0.0000 
    109 N          10.9300   86.4055   44.2547 N.2       2 ALA2        0.0000 
    110 N          10.0135   87.5908   44.1829 N.2       2 ALA2        0.0000 
    111 N           9.2594   86.9397   43.0615 N.2       2 ALA2        0.0000 
    112 CA         12.2752   87.7098   48.6124 C.3       4 GLY6        0.0000 
    113 O          11.5211   87.0587   47.4910 O.2       2 ALA2        0.0000 
    114 CA         10.6045   88.2439   47.4192 C.3       4 GLY6        0.0000 
    115 O          10.7670   86.4076   46.3697 O.2       2 ALA2        0.0000 
    116 N           9.8504   87.5928   46.2979 N.2       2 ALA2        0.0000 
    117 O          10.9294   84.5712   45.3202 O.2       2 ALA2        0.0000 
    118 O          10.0129   85.7565   45.2484 O.2       2 ALA2        0.0000 
    119 N           9.0963   86.9417   45.1766 N.2       2 ALA2        0.0000 
    120 N           8.1797   88.1269   45.1048 N.2       2 ALA2        0.0000 
    121 CA          8.3422   86.2906   44.0553 C.3       4 GLY6        0.0000 
    122 CA          7.4256   87.4758   43.9835 C.3       4 GLY6        0.0000 
    123 CA          7.5881   85.6395   42.9339 C.3       4 GLY6        0.0000 
    124 CA          6.6715   86.8247   42.8621 C.3       4 GLY6        0.0000 
    125 DU          6.8339   84.9884   41.8126 H         5 CUB7        0.0000 
    126 OG          5.9174   86.1736   41.7408 O.2       1 SER1        0.0000 
    127 CA         11.3580   87.0607   49.6061 C.3       4 GLY6        0.0000 
    128 O          10.6039   86.4096   48.4848 O.2       2 ALA2        0.0000 
    129 N           9.6874   87.5949   48.4129 N.2       2 ALA2        0.0000 
    130 O          12.5995   82.2028   47.5789 O.2       2 ALA2        0.0000 
    131 O           9.8498   85.7585   47.3634 O.2       2 ALA2        0.0000 
    132 O          10.9288   82.7369   46.3857 O.2       2 ALA2        0.0000 
    133 O          10.0122   83.9222   46.3139 O.2       2 ALA2        0.0000 
    134 DU          9.0957   85.1074   46.2421 H         5 CUB7        0.0000 
    135 N           8.1791   86.2926   46.1703 N.2       2 ALA2        0.0000 
    136 DU          9.2581   83.2711   45.1926 H         5 CUB7        0.0000 
    137 DU          7.4250   85.6415   45.0490 H         5 CUB7        0.0000 
    138 CA          6.5084   86.8267   44.9772 C.3       4 GLY6        0.0000 
    139 DU          6.6709   84.9904   43.9277 H         5 CUB7        0.0000 
    140 OG          5.7543   86.1756   43.8559 O.2       1 SER1        0.0000 
    141 CZ          5.9167   84.3393   42.8064 C.ar      3 PHE5        0.0000 
    142 OG          5.0002   85.5245   42.7345 O.2       1 SER1        0.0000 
@<TRIPOS>BOND
@<TRIPOS>SUBSTRUCTURE
     1 SER1        3 GROUP   
     2 ALA2        5 GROUP   
     3 PHE5       41 GROUP   
     4 GLY6        1 GROUP   
     5 CUB7       14 GROUP   
@<TRIPOS>SET

