#    Name: 3cb0_FMN_2_INTS_M
#    Modification time : Mon Mar 24 20:36:32 2014

@<TRIPOS>MOLECULE
3cb0_FMN_2_INTS_M
   57     0    12     0     0
SMALL
NO_CHARGES


@<TRIPOS>ATOM
      1 N          11.7940   85.6745   48.0455 N.am      2 SEC2        0.0000 
      2 N          10.4960   86.5290   48.7340 N.am     10 SEL2        0.0000 
      3 N          13.0920   84.8200   47.3570 N.am      6 SEP2        0.0000 
      4 N          12.9440   86.2400   51.3655 N.am      2 SEC2        0.0000 
      5 N          11.8010   86.6030   50.5760 N.am     10 SEL2        0.0000 
      6 N          14.0870   85.8770   52.1550 N.am      6 SEP2        0.0000 
      7 O           9.9420   85.6345   52.2860 O.2       1 ALC1        0.0000 
      8 O           9.7550   85.6470   50.8310 O.2       9 ALL1        0.0000 
      9 O          10.1290   85.6220   53.7410 O.2       5 ALP1        0.0000 
     10 N           6.1260   85.2135   50.5825 N.am      2 SEC2        0.0000 
     11 N           7.7000   84.7060   50.9380 N.am     10 SEL2        0.0000 
     12 N           4.5520   85.7210   50.2270 N.am      6 SEP2        0.0000 
     13 N           6.3900   84.3415   51.6015 N.am      2 SEC2        0.0000 
     14 N           5.0800   83.9770   52.2650 N.am      6 SEP2        0.0000 
     15 N           5.8335   85.4430   49.2745 N.am      2 SEC2        0.0000 
     16 N           7.1150   85.1650   48.3220 N.am     10 SEL2        0.0000 
     17 CA          4.0405   84.8385   47.3890 C.3       4 GLC5        0.0000 
     18 CA          5.6790   85.0570   46.4220 C.3      12 GLL5        0.0000 
     19 CA          2.4020   84.6200   48.3560 C.3       8 GLP5        0.0000 
     20 CA          3.2000   84.9040   46.4850 C.3       4 GLC5        0.0000 
     21 CA          3.9980   85.1880   44.6140 C.3      12 GLL5        0.0000 
     22 CA          2.7100   84.0405   44.0620 C.3       4 GLC5        0.0000 
     23 CA          1.4220   82.8930   43.5100 C.3       8 GLP5        0.0000 
     24 CA          2.9395   86.3320   43.1630 C.3       4 GLC5        0.0000 
     25 CA          1.8810   87.4760   41.7120 C.3       8 GLP5        0.0000 
     26 CA         10.6610   89.2635   48.1115 C.3       4 GLC5        0.0000 
     27 CA         10.4120   88.4700   46.2220 C.3      12 GLL5        0.0000 
     28 CA         10.9100   90.0570   50.0010 C.3       8 GLP5        0.0000 
     29 O           8.3330   88.9685   46.8585 O.2       1 ALC1        0.0000 
     30 O           9.2320   89.1450   45.8370 O.2       9 ALL1        0.0000 
     31 O           7.4340   88.7920   47.8800 O.2       5 ALP1        0.0000 
     32 CA         10.9510   91.2600   47.2690 C.3       4 GLC5        0.0000 
     33 CA         11.9500   90.4800   45.8020 C.3      12 GLL5        0.0000 
     34 CA          9.9520   92.0400   48.7360 C.3       8 GLP5        0.0000 
     35 CA         15.2245   89.9705   45.5125 C.3       4 GLC5        0.0000 
     36 CA         13.3060   90.9310   45.2660 C.3      12 GLL5        0.0000 
     37 CA         17.1430   89.0100   45.7590 C.3       8 GLP5        0.0000 
     38 NZ         13.4710   93.9470   41.9090 N.4       3 LYC4        0.0000 
     39 NZ         13.9760   92.8280   42.7440 N.4      11 LYL4        0.0000 
     40 NZ         12.1020   95.4740   41.9980 N.4       7 LYP4        0.0000 
     41 N          12.9425   93.7825   42.9165 N.am      2 SEC2        0.0000 
     42 N          13.9760   92.8280   42.7440 N.am     10 SEL2        0.0000 
     43 N          11.9090   94.7370   43.0890 N.am      6 SEP2        0.0000 
     44 N          13.4710   93.9470   41.9090 N.am      2 SEC2        0.0000 
     45 N          12.9660   95.0660   41.0740 N.am      6 SEP2        0.0000 
     46 CA          5.9692   86.5490   48.2680 C.3       4 GLC5        0.0000 
     47 CA          6.8940   85.4350   46.9840 C.3      12 GLL5        0.0000 
     48 CA          5.6520   87.8520   49.8330 C.3       8 GLP5        0.0000 
     49 CA          4.5945   87.2963   45.2527 C.3       4 GLC5        0.0000 
     50 CA          5.4200   85.3050   45.0790 C.3      12 GLL5        0.0000 
     51 CA          4.4800   89.3460   45.6590 C.3       8 GLP5        0.0000 
     52 CA          5.7405   87.7362   45.1157 C.3       4 GLC5        0.0000 
     53 CA          6.3900   85.9350   44.2900 C.3      12 GLL5        0.0000 
     54 CA          7.1539   87.8819   43.3049 C.3       4 GLC5        0.0000 
     55 CA          7.3740   89.5620   42.4000 C.3       8 GLP5        0.0000 
     56 CA          9.7095   89.6593   44.3877 C.3       4 GLC5        0.0000 
     57 CA          8.3850   90.5810   42.9140 C.3       8 GLP5        0.0000 
@<TRIPOS>BOND
@<TRIPOS>SUBSTRUCTURE
     1 ALC1        7 GROUP        1 X    ALC  0     ROOT ALC X 1
     2 SEC2        1 GROUP        1 X    SEC  0     **** SEC X 2
     3 LYC4       38 GROUP        1 X    LYC  0     **** LYC X 4
     4 GLC5       17 GROUP        1 X    GLC  0     **** GLC X 6
     5 ALP1        9 GROUP        1 Y    ALP  0     ROOT ALP Y 8
     6 SEP2        3 GROUP        1 Y    SEP  0     **** SEP Y 9
     7 LYP4       40 GROUP        1 Y    LYP  0     **** LYP Y 11
     8 GLP5       19 GROUP        1 Y    GLP  0     **** GLP Y 13
     9 ALL1        8 GROUP        1 Z    ALL  0     ROOT ALL Z 15
    10 SEL2        2 GROUP        1 Z    SEL  0     **** SEL Z 16
    11 LYL4       39 GROUP        1 Z    LYL  0     **** LYL Z 18
    12 GLL5       18 GROUP        1 Z    GLL  0     **** GLL Z 20
@<TRIPOS>SET

