#    Name: 3cb0_FMN_2_ligand
#    Modification time : Mon Mar 24 20:36:32 2014

@<TRIPOS>MOLECULE
3cb0_FMN_2_ligand
   50    52     1     0     0
SMALL
NO_CHARGES


@<TRIPOS>ATOM
      1 N1         10.4960   86.5290   48.7340 N.2       1 FMN300      0.0000 
      2 C2         10.7280   86.2710   50.0710 C.2       1 FMN300      0.0000 
      3 O2         11.8010   86.6030   50.5760 O.2       1 FMN300      0.0000 
      4 N3          9.7550   85.6470   50.8310 N.am      1 FMN300      0.0000 
      5 C4          8.5510   85.2790   50.2570 C.2       1 FMN300      0.0000 
      6 O4          7.7000   84.7060   50.9380 O.2       1 FMN300      0.0000 
      7 C4A         8.3150   85.5370   48.9050 C.2       1 FMN300      0.0000 
      8 N5          7.1150   85.1650   48.3220 N.2       1 FMN300      0.0000 
      9 C5A         6.8940   85.4350   46.9840 C.ar      1 FMN300      0.0000 
     10 C6          5.6790   85.0570   46.4220 C.ar      1 FMN300      0.0000 
     11 C7          5.4200   85.3050   45.0790 C.ar      1 FMN300      0.0000 
     12 C7M         3.9980   85.1880   44.6140 C.3       1 FMN300      0.0000 
     13 C8          6.3900   85.9350   44.2900 C.ar      1 FMN300      0.0000 
     14 C8M         6.1210   86.2360   42.8390 C.3       1 FMN300      0.0000 
     15 C9          7.6120   86.3180   44.8550 C.ar      1 FMN300      0.0000 
     16 C9A         7.8730   86.0670   46.2080 C.ar      1 FMN300      0.0000 
     17 N10         9.0830   86.4340   46.7920 N.pl3     1 FMN300      0.0000 
     18 C10         9.3000   86.1680   48.1400 C.2       1 FMN300      0.0000 
     19 C1'        10.2120   86.9790   45.9510 C.3       1 FMN300      0.0000 
     20 C2'        10.4120   88.4700   46.2220 C.3       1 FMN300      0.0000 
     21 O2'         9.2320   89.1450   45.8370 O.3       1 FMN300      0.0000 
     22 C3'        11.6560   89.0050   45.5010 C.3       1 FMN300      0.0000 
     23 O3'        12.7730   88.2300   45.8960 O.3       1 FMN300      0.0000 
     24 C4'        11.9500   90.4800   45.8020 C.3       1 FMN300      0.0000 
     25 O4'        10.9770   91.3010   45.2040 O.3       1 FMN300      0.0000 
     26 C5'        13.3060   90.9310   45.2660 C.3       1 FMN300      0.0000 
     27 O5'        13.3580   90.6640   43.8830 O.3       1 FMN300      0.0000 
     28 P          14.4230   91.3970   42.9250 P.3       1 FMN300      0.0000 
     29 O1P        13.9760   92.8280   42.7440 O.co2     1 FMN300      0.0000 
     30 O2P        14.4580   90.6860   41.5900 O.co2     1 FMN300      0.0000 
     31 O3P        15.7990   91.3810   43.5570 O.co2     1 FMN300      0.0000 
     32 H           9.9278   85.4550   51.8307 H         1 FMN300      0.0000 
     33 H           4.9679   84.5910   47.0043 H         1 FMN300      0.0000 
     34 H           8.3199   86.7846   44.2759 H         1 FMN300      0.0000 
     35 H           9.9851   86.8382   44.8947 H         1 FMN300      0.0000 
     36 H          11.1347   86.4493   46.1859 H         1 FMN300      0.0000 
     37 H          10.5813   88.5743   47.2991 H         1 FMN300      0.0000 
     38 H          11.4894   88.9081   44.4306 H         1 FMN300      0.0000 
     39 H          11.9589   90.6133   46.8778 H         1 FMN300      0.0000 
     40 H          14.0781   90.3908   45.8229 H         1 FMN300      0.0000 
     41 H          13.4111   91.9978   45.4876 H         1 FMN300      0.0000 
     42 H           3.9091   85.3851   43.6377 H         1 FMN300      0.0000 
     43 H           3.6334   84.2686   44.7618 H         1 FMN300      0.0000 
     44 H           3.3957   85.8234   45.0973 H         1 FMN300      0.0000 
     45 H           6.8993   86.6877   42.4029 H         1 FMN300      0.0000 
     46 H           5.9337   85.4046   42.3158 H         1 FMN300      0.0000 
     47 H           5.3310   86.8383   42.7249 H         1 FMN300      0.0000 
     48 H           8.6054   89.0308   46.6079 H         1 FMN300      0.0000 
     49 H          12.8254   88.3390   46.8887 H         1 FMN300      0.0000 
     50 H          10.1691   90.7190   45.1111 H         1 FMN300      0.0000 
@<TRIPOS>BOND
     1    2    1 1    
     2   18    1 2    
     3    3    2 2    
     4    4    2 am   
     5    5    4 am   
     6   32    4 1    
     7    6    5 2    
     8    7    5 1    
     9    8    7 2    
    10   18    7 1    
    11    9    8 1    
    12   10    9 ar   
    13   16    9 ar   
    14   11   10 ar   
    15   33   10 1    
    16   12   11 1    
    17   13   11 ar   
    18   42   12 1    
    19   43   12 1    
    20   44   12 1    
    21   14   13 1    
    22   15   13 ar   
    23   45   14 1    
    24   46   14 1    
    25   47   14 1    
    26   16   15 ar   
    27   34   15 1    
    28   17   16 1    
    29   18   17 1    
    30   19   17 1    
    31   20   19 1    
    32   35   19 1    
    33   36   19 1    
    34   21   20 1    
    35   22   20 1    
    36   37   20 1    
    37   48   21 1    
    38   23   22 1    
    39   24   22 1    
    40   38   22 1    
    41   49   23 1    
    42   25   24 1    
    43   26   24 1    
    44   39   24 1    
    45   50   25 1    
    46   27   26 1    
    47   40   26 1    
    48   41   26 1    
    49   28   27 1    
    50   29   28 ar   
    51   30   28 ar   
    52   31   28 ar   
@<TRIPOS>SUBSTRUCTURE
     1 FMN300      1 GROUP   
@<TRIPOS>SET

