#    Name: 4hdh_ATP_1_INTS_M
#    Modification time : Tue Mar 25 00:52:45 2014

@<TRIPOS>MOLECULE
4hdh_ATP_1_INTS_M
   60     0    12     0     0
SMALL
NO_CHARGES


@<TRIPOS>ATOM
      1 N         -29.5220   -4.7065  -34.4430 N.am      2 SEC2        0.0000 
      2 N         -30.8620   -5.2820  -34.9750 N.am     10 SEL2        0.0000 
      3 N         -28.1820   -4.1310  -33.9110 N.am      6 SEP2        0.0000 
      4 N         -32.1625   -8.8575  -33.7460 N.am      2 SEC2        0.0000 
      5 N         -31.2730   -7.4380  -33.8100 N.am     10 SEL2        0.0000 
      6 N         -33.0520  -10.2770  -33.6820 N.am      6 SEP2        0.0000 
      7 NZ        -29.0110   -4.8730  -33.2670 N.4       3 LYC4        0.0000 
      8 NZ        -29.8400   -5.6150  -32.6230 N.4      11 LYL4        0.0000 
      9 NZ        -28.0230   -3.0930  -33.0930 N.4       7 LYP4        0.0000 
     10 NZ        -30.8715   -6.2355  -31.2475 N.4       3 LYC4        0.0000 
     11 NZ        -31.9030   -6.8560  -29.8720 N.4       7 LYP4        0.0000 
     12 N         -29.0110   -4.8730  -33.2670 N.am      2 SEC2        0.0000 
     13 N         -29.8400   -5.6150  -32.6230 N.am     10 SEL2        0.0000 
     14 NZ        -33.0045   -7.7805  -31.6240 N.4       3 LYC4        0.0000 
     15 NZ        -33.5740   -7.5990  -32.8760 N.4      11 LYL4        0.0000 
     16 N         -33.3130   -8.9380  -33.2790 N.am      2 SEC2        0.0000 
     17 N         -33.5740   -7.5990  -32.8760 N.am     10 SEL2        0.0000 
     18 N         -32.7480   -6.6540  -31.7155 N.am      2 SEC2        0.0000 
     19 N         -31.9220   -5.7090  -30.5550 N.am      6 SEP2        0.0000 
     20 N         -33.0045   -7.7805  -31.6240 N.am      2 SEC2        0.0000 
     21 N         -32.4350   -7.9620  -30.3720 N.am      6 SEP2        0.0000 
     22 N         -32.1280   -5.5930  -31.7485 N.am      2 SEC2        0.0000 
     23 N         -32.3340   -5.4770  -32.9420 N.am     10 SEL2        0.0000 
     24 NZ        -38.1220   -3.7395  -33.8635 N.4       3 LYC4        0.0000 
     25 NZ        -37.1740   -5.0690  -33.9550 N.4      11 LYL4        0.0000 
     26 NZ        -39.0700   -2.4100  -33.7720 N.4       7 LYP4        0.0000 
     27 N         -35.1245   -5.1925  -31.8305 N.am      2 SEC2        0.0000 
     28 N         -34.8030   -5.3040  -33.4480 N.am     10 SEL2        0.0000 
     29 N         -35.4460   -5.0810  -30.2130 N.am      6 SEP2        0.0000 
     30 N         -37.1880   -3.2020  -35.2845 N.am      2 SEC2        0.0000 
     31 N         -35.6130   -3.8720  -35.4970 N.am     10 SEL2        0.0000 
     32 N         -38.7630   -2.5320  -35.0720 N.am      6 SEP2        0.0000 
     33 CA        -34.0430   -3.0785  -34.0515 C.3       4 GLC5        0.0000 
     34 CA        -34.2190   -3.5460  -35.8080 C.3      12 GLL5        0.0000 
     35 CA        -33.8670   -2.6110  -32.2950 C.3       8 GLP5        0.0000 
     36 CA        -32.6215   -6.3365  -37.2005 C.3       4 GLC5        0.0000 
     37 CA        -33.5430   -4.5650  -36.7520 C.3      12 GLL5        0.0000 
     38 CA        -31.7000   -8.1080  -37.6490 C.3       8 GLP5        0.0000 
     39 CA        -31.7100   -2.6405  -38.9835 C.3       4 GLC5        0.0000 
     40 CA        -32.8340   -3.6600  -37.7360 C.3      12 GLL5        0.0000 
     41 CA        -30.5860   -1.6210  -40.2310 C.3       8 GLP5        0.0000 
     42 CA        -31.2900   -2.5875  -36.8835 C.3       4 GLC5        0.0000 
     43 CA        -29.7460   -1.5150  -36.0310 C.3       8 GLP5        0.0000 
     44 N         -31.2975   -2.6020  -36.6595 N.am      2 SEC2        0.0000 
     45 N         -31.4680   -3.6600  -37.3390 N.am     10 SEL2        0.0000 
     46 N         -31.1270   -1.5440  -35.9800 N.am      6 SEP2        0.0000 
     47 CA        -31.5400   -3.6105  -40.0850 C.3       4 GLC5        0.0000 
     48 CA        -32.8830   -4.3950  -39.0620 C.3      12 GLL5        0.0000 
     49 CA        -30.1970   -2.8260  -41.1080 C.3       8 GLP5        0.0000 
     50 N         -31.6210   -6.5105  -39.1015 N.am      2 SEC2        0.0000 
     51 N         -31.7240   -5.2270  -39.2000 N.am     10 SEL2        0.0000 
     52 N         -31.5180   -7.7940  -39.0030 N.am      6 SEP2        0.0000 
     53 O         -39.1160   -2.2055  -41.2605 O.2       1 ALC1        0.0000 
     54 O         -39.4440   -3.5820  -41.6490 O.2       9 ALL1        0.0000 
     55 O         -38.7880   -0.8290  -40.8720 O.2       5 ALP1        0.0000 
     56 CA        -32.5992   -6.4763  -38.3427 C.3       4 GLC5        0.0000 
     57 CA        -34.1140   -5.2940  -39.0110 C.3      12 GLL5        0.0000 
     58 CA        -38.2405   -3.7327  -42.7272 C.3       4 GLC5        0.0000 
     59 CA        -37.2350   -4.1750  -40.7660 C.3      12 GLL5        0.0000 
     60 CA        -38.5390   -3.2940  -44.7170 C.3       8 GLP5        0.0000 
@<TRIPOS>BOND
@<TRIPOS>SUBSTRUCTURE
     1 ALC1       53 GROUP        1 X    ALC  0     ROOT ALC X 1
     2 SEC2        1 GROUP        1 X    SEC  0     **** SEC X 2
     3 LYC4        7 GROUP        1 X    LYC  0     **** LYC X 4
     4 GLC5       33 GROUP        1 X    GLC  0     **** GLC X 6
     5 ALP1       55 GROUP        1 Y    ALP  0     ROOT ALP Y 8
     6 SEP2        3 GROUP        1 Y    SEP  0     **** SEP Y 9
     7 LYP4        9 GROUP        1 Y    LYP  0     **** LYP Y 11
     8 GLP5       35 GROUP        1 Y    GLP  0     **** GLP Y 13
     9 ALL1       54 GROUP        1 Z    ALL  0     ROOT ALL Z 15
    10 SEL2        2 GROUP        1 Z    SEL  0     **** SEL Z 16
    11 LYL4        8 GROUP        1 Z    LYL  0     **** LYL Z 18
    12 GLL5       34 GROUP        1 Z    GLL  0     **** GLL Z 20
@<TRIPOS>SET

