#    Name: 4hdh_ATP_1_ligand
#    Modification time : Tue Mar 25 00:52:45 2014

@<TRIPOS>MOLECULE
4hdh_ATP_1_ligand
   43    45     1     0     0
SMALL
NO_CHARGES


@<TRIPOS>ATOM
      1 PG        -31.1110   -5.8970  -33.6530 P.3       1 ATP1001     0.0000 
      2 O1G       -30.8620   -5.2820  -34.9750 O.co2     1 ATP1001     0.0000 
      3 O2G       -31.2730   -7.4380  -33.8100 O.co2     1 ATP1001     0.0000 
      4 O3G       -29.8400   -5.6150  -32.6230 O.co2     1 ATP1001     0.0000 
      5 PB        -33.4710   -6.2880  -33.6430 P.3       1 ATP1001     0.0000 
      6 O1B       -33.2470   -6.2440  -35.1590 O.co2     1 ATP1001     0.0000 
      7 O2B       -33.5740   -7.5990  -32.8760 O.co2     1 ATP1001     0.0000 
      8 O3B       -32.3340   -5.4770  -32.9420 O.3       1 ATP1001     0.0000 
      9 PA        -35.8790   -5.2500  -34.6620 P.3       1 ATP1001     0.0000 
     10 O1A       -37.1740   -5.0690  -33.9550 O.co2     1 ATP1001     0.0000 
     11 O2A       -35.6600   -6.4100  -35.5900 O.co2     1 ATP1001     0.0000 
     12 O3A       -34.8030   -5.3040  -33.4480 O.3       1 ATP1001     0.0000 
     13 O5'       -35.6130   -3.8720  -35.4970 O.3       1 ATP1001     0.0000 
     14 C5'       -34.2190   -3.5460  -35.8080 C.3       1 ATP1001     0.0000 
     15 C4'       -33.5430   -4.5650  -36.7520 C.3       1 ATP1001     0.0000 
     16 O4'       -34.4640   -5.3780  -37.5570 O.3       1 ATP1001     0.0000 
     17 C3'       -32.8340   -3.6600  -37.7360 C.3       1 ATP1001     0.0000 
     18 O3'       -31.4680   -3.6600  -37.3390 O.3       1 ATP1001     0.0000 
     19 C2'       -32.8830   -4.3950  -39.0620 C.3       1 ATP1001     0.0000 
     20 O2'       -31.7240   -5.2270  -39.2000 O.3       1 ATP1001     0.0000 
     21 C1'       -34.1140   -5.2940  -39.0110 C.3       1 ATP1001     0.0000 
     22 N9        -35.2090   -4.7210  -39.9550 N.pl3     1 ATP1001     0.0000 
     23 C8        -35.0490   -4.0370  -41.1180 C.2       1 ATP1001     0.0000 
     24 N7        -36.2840   -3.7060  -41.5880 N.2       1 ATP1001     0.0000 
     25 C5        -37.2350   -4.1750  -40.7660 C.ar      1 ATP1001     0.0000 
     26 C6        -38.6490   -4.1680  -40.7090 C.ar      1 ATP1001     0.0000 
     27 N6        -39.4440   -3.5820  -41.6490 N.pl3     1 ATP1001     0.0000 
     28 N1        -39.2710   -4.7860  -39.6400 N.ar      1 ATP1001     0.0000 
     29 C2        -38.5880   -5.3970  -38.6630 C.ar      1 ATP1001     0.0000 
     30 N3        -37.2430   -5.4270  -38.6980 N.ar      1 ATP1001     0.0000 
     31 C4        -36.5450   -4.8250  -39.7160 C.ar      1 ATP1001     0.0000 
     32 H         -33.6137   -3.4951  -34.8838 H         1 ATP1001     0.0000 
     33 H         -34.1472   -2.5508  -36.2851 H         1 ATP1001     0.0000 
     34 H         -32.8304   -5.1167  -36.2348 H         1 ATP1001     0.0000 
     35 H         -33.2710   -2.7509  -37.7936 H         1 ATP1001     0.0000 
     36 H         -32.9939   -3.7048  -39.8472 H         1 ATP1001     0.0000 
     37 H         -33.8090   -6.2660  -39.3694 H         1 ATP1001     0.0000 
     38 H         -34.2128   -3.8233  -41.5370 H         1 ATP1001     0.0000 
     39 H         -40.0889   -4.1854  -42.1181 H         1 ATP1001     0.0000 
     40 H         -39.3123   -2.6003  -41.7866 H         1 ATP1001     0.0000 
     41 H         -39.0971   -5.8514  -37.8721 H         1 ATP1001     0.0000 
     42 H         -31.4279   -4.2731  -36.5500 H         1 ATP1001     0.0000 
     43 H         -31.0311   -4.8044  -38.6158 H         1 ATP1001     0.0000 
@<TRIPOS>BOND
     1    2    1 ar   
     2    3    1 ar   
     3    4    1 ar   
     4    8    1 1    
     5    6    5 ar   
     6    7    5 ar   
     7    8    5 1    
     8   12    5 1    
     9   10    9 ar   
    10   11    9 ar   
    11   12    9 1    
    12   13    9 1    
    13   14   13 1    
    14   15   14 1    
    15   32   14 1    
    16   33   14 1    
    17   16   15 1    
    18   17   15 1    
    19   34   15 1    
    20   21   16 1    
    21   18   17 1    
    22   19   17 1    
    23   35   17 1    
    24   42   18 1    
    25   20   19 1    
    26   21   19 1    
    27   36   19 1    
    28   43   20 1    
    29   22   21 1    
    30   37   21 1    
    31   23   22 1    
    32   31   22 1    
    33   24   23 2    
    34   38   23 1    
    35   25   24 1    
    36   26   25 ar   
    37   31   25 ar   
    38   27   26 1    
    39   28   26 ar   
    40   39   27 1    
    41   40   27 1    
    42   29   28 ar   
    43   30   29 ar   
    44   41   29 1    
    45   31   30 ar   
@<TRIPOS>SUBSTRUCTURE
     1 ATP1001     1 GROUP   
@<TRIPOS>SET

