#    Name: 3g6h_G6H_1_INTS_M
#    Modification time : Tue Mar 25 07:14:07 2014

@<TRIPOS>MOLECULE
3g6h_G6H_1_INTS_M
  120     0     9     0     0
SMALL
NO_CHARGES


@<TRIPOS>ATOM
      1 CA         -4.8445  -37.2045  -27.1360 C.3       3 GLC5        0.0000 
      2 CA         -5.1300  -39.2600  -27.4970 C.3       9 GLL5        0.0000 
      3 CA         -4.5590  -35.1490  -26.7750 C.3       6 GLP5        0.0000 
      4 CA         -6.6810  -37.6910  -27.2160 C.3       3 GLC5        0.0000 
      5 CA         -8.2320  -36.1220  -26.9350 C.3       6 GLP5        0.0000 
      6 CA         -3.6575  -36.7660  -27.6120 C.3       3 GLC5        0.0000 
      7 CA         -2.7560  -38.3830  -28.4490 C.3       9 GLL5        0.0000 
      8 CA         -1.7305  -39.0060  -25.0930 C.3       3 GLC5        0.0000 
      9 CA         -2.1110  -40.8130  -24.9710 C.3       9 GLL5        0.0000 
     10 CA         -1.3500  -37.1990  -25.2150 C.3       6 GLP5        0.0000 
     11 CA         -0.0960  -38.9290  -25.5595 C.3       3 GLC5        0.0000 
     12 CA          1.1580  -40.6590  -25.9040 C.3       9 GLL5        0.0000 
     13 O          -0.4790  -36.0535  -29.1985 O.2       1 ALC1        0.0000 
     14 O          -1.4840  -36.7870  -29.7370 O.2       7 ALL1        0.0000 
     15 O           0.5260  -35.3200  -28.6600 O.2       4 ALP1        0.0000 
     16 CA         -2.1630  -38.2390  -31.0085 C.3       3 GLC5        0.0000 
     17 CA         -2.5120  -36.2160  -30.4050 C.3       9 GLL5        0.0000 
     18 CA         -1.8140  -40.2620  -31.6120 C.3       6 GLP5        0.0000 
     19 CA         -2.7195  -36.0945  -32.4725 C.3       3 GLC5        0.0000 
     20 CA         -2.9270  -35.9730  -34.5400 C.3       6 GLP5        0.0000 
     21 CA         -1.7715  -34.4985  -29.5110 C.3       3 GLC5        0.0000 
     22 CA         -1.0310  -32.7810  -28.6170 C.3       6 GLP5        0.0000 
     23 CA         -3.8330  -34.9615  -29.5685 C.3       3 GLC5        0.0000 
     24 CA         -5.1540  -33.7070  -28.7320 C.3       6 GLP5        0.0000 
     25 N          -1.1565  -34.2265  -30.8720 N.am      2 SEC2        0.0000 
     26 N          -2.3320  -35.0230  -30.9900 N.am      8 SEL2        0.0000 
     27 N           0.0190  -33.4300  -30.7540 N.am      5 SEP2        0.0000 
     28 CA         -3.1280  -35.1965  -33.0875 C.3       3 GLC5        0.0000 
     29 CA         -3.3290  -34.4200  -31.6350 C.3       9 GLL5        0.0000 
     30 CA         -4.2585  -34.2585  -33.2655 C.3       3 GLC5        0.0000 
     31 CA         -5.1880  -34.0970  -34.8960 C.3       6 GLP5        0.0000 
     32 CA         -1.5730  -33.8140  -32.3970 C.3       3 GLC5        0.0000 
     33 CA          0.1830  -33.2080  -33.1590 C.3       6 GLP5        0.0000 
     34 CA         -2.5820  -33.0350  -30.4255 C.3       3 GLC5        0.0000 
     35 CA         -1.8350  -31.6500  -29.2160 C.3       6 GLP5        0.0000 
     36 CA         -4.2415  -34.0635  -30.1835 C.3       3 GLC5        0.0000 
     37 CA         -3.8445  -36.0870  -32.8595 C.3       3 GLC5        0.0000 
     38 CA         -4.7620  -36.2010  -31.1790 C.3       9 GLL5        0.0000 
     39 CA         -4.9750  -35.1490  -33.0375 C.3       3 GLC5        0.0000 
     40 CA         -8.3340  -39.7375  -32.2205 C.3       3 GLC5        0.0000 
     41 CA         -8.4580  -38.2390  -31.1750 C.3       9 GLL5        0.0000 
     42 CA         -8.2100  -41.2360  -33.2660 C.3       6 GLP5        0.0000 
     43 CA        -10.1380  -37.9540  -29.9450 C.3       3 GLC5        0.0000 
     44 CA        -11.8180  -37.6690  -28.7150 C.3       6 GLP5        0.0000 
     45 CA         -6.6400  -38.1620  -32.7580 C.3       3 GLC5        0.0000 
     46 CA         -7.1920  -36.3630  -31.8650 C.3       9 GLL5        0.0000 
     47 CA         -6.0880  -39.9610  -33.6510 C.3       6 GLP5        0.0000 
     48 CA         -6.1900  -35.2300  -33.3805 C.3       3 GLC5        0.0000 
     49 CA         -6.7985  -38.1185  -34.4625 C.3       3 GLC5        0.0000 
     50 CA         -7.5090  -36.2760  -35.2740 C.3       9 GLL5        0.0000 
     51 CA         -6.1000  -37.3130  -36.6825 C.3       3 GLC5        0.0000 
     52 CA         -4.6910  -38.3500  -38.0910 C.3       6 GLP5        0.0000 
     53 CA         -8.4300  -37.4505  -36.0675 C.3       3 GLC5        0.0000 
     54 CA         -9.3510  -38.6250  -36.8610 C.3       6 GLP5        0.0000 
     55 CA         -6.3485  -35.1865  -35.0850 C.3       3 GLC5        0.0000 
     56 N         -11.4360  -32.2125  -29.9435 N.am      2 SEC2        0.0000 
     57 N         -10.8300  -32.2120  -31.0110 N.am      8 SEL2        0.0000 
     58 N         -12.0420  -32.2130  -28.8760 N.am      5 SEP2        0.0000 
     59 CA        -11.9955  -30.7490  -33.7940 C.3       3 GLC5        0.0000 
     60 CA        -12.6630  -30.9910  -31.9410 C.3       9 GLL5        0.0000 
     61 CA        -11.3280  -30.5070  -35.6470 C.3       6 GLP5        0.0000 
     62 CA        -11.2910  -29.7480  -32.9515 C.3       3 GLC5        0.0000 
     63 CA        -12.5520  -29.8780  -31.1070 C.3       9 GLL5        0.0000 
     64 CA        -10.0300  -29.6180  -34.7960 C.3       6 GLP5        0.0000 
     65 CA        -11.3310  -30.3930  -29.6515 C.3       3 GLC5        0.0000 
     66 CA        -10.1100  -30.9080  -28.1960 C.3       6 GLP5        0.0000 
     67 CA        -12.4415  -27.8565  -27.3750 C.3       3 GLC5        0.0000 
     68 CA        -13.4520  -28.1260  -28.7880 C.3       9 GLL5        0.0000 
     69 CA        -11.4310  -27.5870  -25.9620 C.3       6 GLP5        0.0000 
     70 CA        -11.7810  -29.5170  -28.4920 C.3       3 GLC5        0.0000 
     71 CA        -13.9765  -30.1490  -28.9515 C.3       3 GLC5        0.0000 
     72 CA        -14.5010  -32.1720  -29.1150 C.3       6 GLP5        0.0000 
     73 CA        -11.2220  -25.7960  -29.9455 C.3       3 GLC5        0.0000 
     74 CA        -12.2680  -27.1190  -30.3070 C.3       9 GLL5        0.0000 
     75 CA        -10.1760  -24.4730  -29.5840 C.3       6 GLP5        0.0000 
     76 CA        -11.8495  -27.3530  -28.1345 C.3       3 GLC5        0.0000 
     77 CA         -2.2898  -39.6025  -29.8175 C.3       3 GLC5        0.0000 
     78 CA         -2.0577  -38.0710  -26.6190 C.3       3 GLC5        0.0000 
     79 CA         -0.5895  -40.9185  -29.0460 C.3       3 GLC5        0.0000 
     80 CA         -1.5710  -40.1080  -27.1790 C.3       9 GLL5        0.0000 
     81 CA         -0.2230  -41.9900  -30.6990 C.3       6 GLP5        0.0000 
     82 CA         -1.1530  -38.5230  -26.3040 C.3       3 GLC5        0.0000 
     83 CA         -0.3410  -39.5860  -27.6070 C.3       9 GLL5        0.0000 
     84 CA         -1.3832  -39.2105  -30.1467 C.3       3 GLC5        0.0000 
     85 CA         -0.3600  -38.4700  -28.4680 C.3       9 GLL5        0.0000 
     86 CA         -1.1513  -37.6790  -26.9483 C.3       3 GLC5        0.0000 
     87 CA         -1.5450  -37.8480  -28.8950 C.3       9 GLL5        0.0000 
     88 CA         -5.2732  -35.1167  -29.9663 C.3       3 GLC5        0.0000 
     89 CA         -6.4010  -39.0379  -32.1746 C.3       3 GLC5        0.0000 
     90 CA         -6.0230  -36.8520  -31.2220 C.3       9 GLL5        0.0000 
     91 CA         -6.7910  -34.5727  -34.4185 C.3       3 GLC5        0.0000 
     92 CA         -8.3060  -34.8060  -33.2840 C.3       9 GLL5        0.0000 
     93 CA        -10.3967  -36.2900  -34.9672 C.3       3 GLC5        0.0000 
     94 CA         -8.4820  -35.2910  -34.5980 C.3       9 GLL5        0.0000 
     95 CA        -11.7660  -37.4970  -34.9610 C.3       6 GLP5        0.0000 
     96 CA         -9.9667  -34.2097  -37.0650 C.3       3 GLC5        0.0000 
     97 CA         -9.5730  -34.8750  -35.3490 C.3       9 GLL5        0.0000 
     98 CA         -9.8910  -33.9840  -39.0420 C.3       6 GLP5        0.0000 
     99 CA         -8.5062  -33.3687  -35.7440 C.3       3 GLC5        0.0000 
    100 CA         -6.9700  -32.3020  -36.4000 C.3       6 GLP5        0.0000 
    101 CA        -11.1073  -35.6220  -34.5720 C.3       3 GLC5        0.0000 
    102 CA        -10.5120  -33.9960  -34.8270 C.3       9 GLL5        0.0000 
    103 CA        -10.8882  -32.1270  -34.9150 C.3       3 GLC5        0.0000 
    104 CA        -13.5542  -31.3032  -30.3195 C.3       3 GLC5        0.0000 
    105 CA        -14.7658  -31.8628  -33.9975 C.3       3 GLC5        0.0000 
    106 CA        -13.8260  -31.1640  -32.6870 C.3       9 GLL5        0.0000 
    107 CA        -15.1860  -33.0280  -35.3530 C.3       6 GLP5        0.0000 
    108 CA        -14.4232  -31.4348  -30.8785 C.3       3 GLC5        0.0000 
    109 CA        -13.5809  -29.5881  -33.9348 C.3       3 GLC5        0.0000 
    110 CA        -12.6180  -29.2630  -35.6730 C.3       6 GLP5        0.0000 
    111 CA        -14.3320  -30.6050  -30.2450 C.3       3 GLC5        0.0000 
    112 CA        -14.7420  -29.1290  -31.7510 C.3       9 GLL5        0.0000 
    113 CA        -15.7660  -26.7538  -30.0565 C.3       3 GLC5        0.0000 
    114 CA        -14.4160  -26.8710  -30.1790 C.3       9 GLL5        0.0000 
    115 CA        -17.6120  -26.2060  -29.9970 C.3       6 GLP5        0.0000 
    116 CA        -14.1505  -28.2420  -27.6973 C.3       3 GLC5        0.0000 
    117 CA        -13.4240  -27.7320  -30.0530 C.3       9 GLL5        0.0000 
    118 CA        -14.8630  -28.5550  -25.9740 C.3       6 GLP5        0.0000 
    119 CA        -13.7685  -25.9631  -31.5692 C.3       3 GLC5        0.0000 
    120 CA        -14.4430  -24.7160  -32.9270 C.3       6 GLP5        0.0000 
@<TRIPOS>BOND
@<TRIPOS>SUBSTRUCTURE
     1 ALC1       13 GROUP        1 X    ALC  0     ROOT ALC X 1
     2 SEC2       25 GROUP        1 X    SEC  0     **** SEC X 2
     3 GLC5        1 GROUP        1 X    GLC  0     **** GLC X 6
     4 ALP1       15 GROUP        1 Y    ALP  0     ROOT ALP Y 8
     5 SEP2       27 GROUP        1 Y    SEP  0     **** SEP Y 9
     6 GLP5        3 GROUP        1 Y    GLP  0     **** GLP Y 13
     7 ALL1       14 GROUP        1 Z    ALL  0     ROOT ALL Z 15
     8 SEL2       26 GROUP        1 Z    SEL  0     **** SEL Z 16
     9 GLL5        2 GROUP        1 Z    GLL  0     **** GLL Z 20
@<TRIPOS>SET

