#    Name: 3g6h_G6H_1_ligand
#    Modification time : Tue Mar 25 07:14:07 2014

@<TRIPOS>MOLECULE
3g6h_G6H_1_ligand
   74    78     1     0     0
SMALL
NO_CHARGES


@<TRIPOS>ATOM
      1 CBQ        -5.1300  -39.2600  -27.4970 C.3       1 G6H1        0.0000 
      2 OBP        -3.9640  -40.0300  -27.1470 O.3       1 G6H1        0.0000 
      3 CAB        -2.7750  -39.5030  -27.5970 C.ar      1 G6H1        0.0000 
      4 CAC        -2.7560  -38.3830  -28.4490 C.ar      1 G6H1        0.0000 
      5 CAA        -1.5710  -40.1080  -27.1790 C.ar      1 G6H1        0.0000 
      6 OBO        -1.6250  -41.1880  -26.3340 O.3       1 G6H1        0.0000 
      7 CBR        -2.1110  -40.8130  -24.9710 C.3       1 G6H1        0.0000 
      8 CAF        -0.3410  -39.5860  -27.6070 C.ar      1 G6H1        0.0000 
      9 OBS         0.8930  -40.1230  -27.2520 O.3       1 G6H1        0.0000 
     10 CBT         1.1580  -40.6590  -25.9040 C.3       1 G6H1        0.0000 
     11 CAE        -0.3600  -38.4700  -28.4680 C.ar      1 G6H1        0.0000 
     12 CAD        -1.5450  -37.8480  -28.8950 C.ar      1 G6H1        0.0000 
     13 NAG        -1.4840  -36.7870  -29.7370 N.pl3     1 G6H1        0.0000 
     14 CAH        -2.5120  -36.2160  -30.4050 C.ar      1 G6H1        0.0000 
     15 NAI        -3.7360  -36.7930  -30.5080 N.ar      1 G6H1        0.0000 
     16 NAM        -2.3320  -35.0230  -30.9900 N.ar      1 G6H1        0.0000 
     17 CAL        -3.3290  -34.4200  -31.6350 C.ar      1 G6H1        0.0000 
     18 NAK        -4.5330  -34.9850  -31.7420 N.ar      1 G6H1        0.0000 
     19 CAJ        -4.7620  -36.2010  -31.1790 C.ar      1 G6H1        0.0000 
     20 CAN        -6.0230  -36.8520  -31.2220 C.ar      1 G6H1        0.0000 
     21 CAO        -6.1370  -38.0650  -30.5390 C.ar      1 G6H1        0.0000 
     22 CAP        -7.3480  -38.7710  -30.5160 C.ar      1 G6H1        0.0000 
     23 CAQ        -8.4580  -38.2390  -31.1750 C.ar      1 G6H1        0.0000 
     24 NAR        -8.3440  -37.0790  -31.8150 N.ar      1 G6H1        0.0000 
     25 CAS        -7.1920  -36.3630  -31.8650 C.ar      1 G6H1        0.0000 
     26 NAT        -7.2260  -35.1950  -32.5410 N.pl3     1 G6H1        0.0000 
     27 CAU        -8.3060  -34.8060  -33.2840 C.ar      1 G6H1        0.0000 
     28 CAV        -9.2640  -33.8950  -32.7680 C.ar      1 G6H1        0.0000 
     29 CAZ        -8.4820  -35.2910  -34.5980 C.ar      1 G6H1        0.0000 
     30 CBA        -7.5090  -36.2760  -35.2740 C.3       1 G6H1        0.0000 
     31 CAY        -9.5730  -34.8750  -35.3490 C.ar      1 G6H1        0.0000 
     32 CAX       -10.5120  -33.9960  -34.8270 C.ar      1 G6H1        0.0000 
     33 CAW       -10.3850  -33.4980  -33.5390 C.ar      1 G6H1        0.0000 
     34 NBB       -11.3450  -32.6300  -33.1780 N.am      1 G6H1        0.0000 
     35 CBC       -11.4990  -31.9970  -32.0140 C.2       1 G6H1        0.0000 
     36 OBD       -10.8300  -32.2120  -31.0110 O.2       1 G6H1        0.0000 
     37 CBE       -12.6630  -30.9910  -31.9410 C.ar      1 G6H1        0.0000 
     38 CBJ       -12.5520  -29.8780  -31.1070 C.ar      1 G6H1        0.0000 
     39 CBF       -13.8260  -31.1640  -32.6870 C.ar      1 G6H1        0.0000 
     40 CBG       -14.8650  -30.2310  -32.5970 C.ar      1 G6H1        0.0000 
     41 CBH       -14.7420  -29.1290  -31.7510 C.ar      1 G6H1        0.0000 
     42 CBI       -13.5840  -28.9470  -30.9990 C.ar      1 G6H1        0.0000 
     43 CBK       -13.4240  -27.7320  -30.0530 C.3       1 G6H1        0.0000 
     44 FBL       -13.4520  -28.1260  -28.7880 F         1 G6H1        0.0000 
     45 FBM       -14.4160  -26.8710  -30.1790 F         1 G6H1        0.0000 
     46 FBN       -12.2680  -27.1190  -30.3070 F         1 G6H1        0.0000 
     47 H          -3.6452  -37.9573  -28.7438 H         1 G6H1        0.0000 
     48 H           0.5535  -38.0880  -28.8041 H         1 G6H1        0.0000 
     49 H          -0.4991  -36.3475  -29.8914 H         1 G6H1        0.0000 
     50 H          -3.1637  -33.4715  -32.0728 H         1 G6H1        0.0000 
     51 H          -5.3174  -38.4499  -30.0422 H         1 G6H1        0.0000 
     52 H          -7.4146  -39.6612  -30.0237 H         1 G6H1        0.0000 
     53 H          -9.3474  -38.7657  -31.1478 H         1 G6H1        0.0000 
     54 H          -6.3892  -34.5513  -32.4991 H         1 G6H1        0.0000 
     55 H          -9.1424  -33.5179  -31.8209 H         1 G6H1        0.0000 
     56 H          -9.6885  -35.2275  -36.3179 H         1 G6H1        0.0000 
     57 H         -11.3196  -33.7080  -35.4088 H         1 G6H1        0.0000 
     58 H         -12.1055  -32.4144  -33.9495 H         1 G6H1        0.0000 
     59 H         -11.6845  -29.7410  -30.5568 H         1 G6H1        0.0000 
     60 H         -13.9245  -31.9783  -33.3064 H         1 G6H1        0.0000 
     61 H         -15.7170  -30.3595  -33.1545 H         1 G6H1        0.0000 
     62 H         -15.5106  -28.4480  -31.6828 H         1 G6H1        0.0000 
     63 H          -5.0878  -38.3325  -27.1255 H         1 G6H1        0.0000 
     64 H          -5.2349  -39.1744  -28.4878 H         1 G6H1        0.0000 
     65 H          -5.9692  -39.6775  -27.1484 H         1 G6H1        0.0000 
     66 H          -2.1441  -41.6026  -24.3582 H         1 G6H1        0.0000 
     67 H          -1.5190  -40.1321  -24.5399 H         1 G6H1        0.0000 
     68 H          -3.0322  -40.4249  -24.9989 H         1 G6H1        0.0000 
     69 H           2.0915  -41.0075  -25.8198 H         1 G6H1        0.0000 
     70 H           1.0408  -39.9613  -25.1973 H         1 G6H1        0.0000 
     71 H           0.5419  -41.4131  -25.6765 H         1 G6H1        0.0000 
     72 H          -6.5848  -35.8996  -35.3386 H         1 G6H1        0.0000 
     73 H          -7.4406  -37.1362  -34.7686 H         1 G6H1        0.0000 
     74 H          -7.7981  -36.5045  -36.2036 H         1 G6H1        0.0000 
@<TRIPOS>BOND
     1    2    1 1    
     2   63    1 1    
     3   64    1 1    
     4   65    1 1    
     5    3    2 1    
     6    4    3 ar   
     7    5    3 ar   
     8   12    4 ar   
     9   47    4 1    
    10    6    5 1    
    11    8    5 ar   
    12    7    6 1    
    13   66    7 1    
    14   67    7 1    
    15   68    7 1    
    16    9    8 1    
    17   11    8 ar   
    18   10    9 1    
    19   69   10 1    
    20   70   10 1    
    21   71   10 1    
    22   12   11 ar   
    23   48   11 1    
    24   13   12 1    
    25   14   13 1    
    26   49   13 1    
    27   15   14 ar   
    28   16   14 ar   
    29   19   15 ar   
    30   17   16 ar   
    31   18   17 ar   
    32   50   17 1    
    33   19   18 ar   
    34   20   19 1    
    35   21   20 ar   
    36   25   20 ar   
    37   22   21 ar   
    38   51   21 1    
    39   23   22 ar   
    40   52   22 1    
    41   24   23 ar   
    42   53   23 1    
    43   25   24 ar   
    44   26   25 1    
    45   27   26 1    
    46   54   26 1    
    47   28   27 ar   
    48   29   27 ar   
    49   33   28 ar   
    50   55   28 1    
    51   30   29 1    
    52   31   29 ar   
    53   72   30 1    
    54   73   30 1    
    55   74   30 1    
    56   32   31 ar   
    57   56   31 1    
    58   33   32 ar   
    59   57   32 1    
    60   34   33 1    
    61   35   34 am   
    62   58   34 1    
    63   36   35 2    
    64   37   35 1    
    65   38   37 ar   
    66   39   37 ar   
    67   42   38 ar   
    68   59   38 1    
    69   40   39 ar   
    70   60   39 1    
    71   41   40 ar   
    72   61   40 1    
    73   42   41 ar   
    74   62   41 1    
    75   43   42 1    
    76   44   43 1    
    77   45   43 1    
    78   46   43 1    
@<TRIPOS>SUBSTRUCTURE
     1 G6H1        1 GROUP   
@<TRIPOS>SET

