#    Name: 3s0o_50Z_1_INTS_M
#    Modification time : Tue Mar 25 12:06:21 2014

@<TRIPOS>MOLECULE
3s0o_50Z_1_INTS_M
   52     0     9     0     0
SMALL
NO_CHARGES


@<TRIPOS>ATOM
      1 N          63.8960   82.7390  -87.6830 N.am      2 SEC2        0.0000 
      2 N          64.7940   82.1740  -86.5730 N.am      8 SEL2        0.0000 
      3 N          62.9980   83.3040  -88.7930 N.am      5 SEP2        0.0000 
      4 CA         65.3115   82.9725  -88.0680 C.3       3 GLC5        0.0000 
      5 CA         65.7490   81.2390  -86.7490 C.3       9 GLL5        0.0000 
      6 CA         64.8740   84.7060  -89.3870 C.3       6 GLP5        0.0000 
      7 O          66.3020   81.7970  -89.1555 O.2       1 ALC1        0.0000 
      8 O          66.2670   81.0190  -87.9780 O.2       7 ALL1        0.0000 
      9 O          66.3370   82.5750  -90.3330 O.2       4 ALP1        0.0000 
     10 CA         68.3945   80.5295  -83.3380 C.3       3 GLC5        0.0000 
     11 CA         67.3180   78.8690  -84.1220 C.3       9 GLL5        0.0000 
     12 CA         69.4710   82.1900  -82.5540 C.3       6 GLP5        0.0000 
     13 CA         65.7190   78.6260  -85.6850 C.3       3 GLC5        0.0000 
     14 CA         64.1200   78.3830  -87.2480 C.3       6 GLP5        0.0000 
     15 CA         66.4855   80.7745  -81.2730 C.3       3 GLC5        0.0000 
     16 CA         67.2980   78.8590  -81.6430 C.3       9 GLL5        0.0000 
     17 CA         65.6730   82.6900  -80.9030 C.3       6 GLP5        0.0000 
     18 CA         69.5965   76.9815  -80.4790 C.3       3 GLC5        0.0000 
     19 CA         67.8400   77.5910  -81.6420 C.3       9 GLL5        0.0000 
     20 CA         71.3530   76.3720  -79.3160 C.3       6 GLP5        0.0000 
     21 CA         67.3080   76.8425  -86.1165 C.3       3 GLC5        0.0000 
     22 CA         67.8780   77.5560  -84.0810 C.3       9 GLL5        0.0000 
     23 CA         66.7380   76.1290  -88.1520 C.3       6 GLP5        0.0000 
     24 CA         65.4390   81.9180  -82.5675 C.3       3 GLC5        0.0000 
     25 CA         65.2050   81.1460  -84.2320 C.3       9 GLL5        0.0000 
     26 CA         63.9130   79.5600  -84.7495 C.3       3 GLC5        0.0000 
     27 CA         62.6210   77.9740  -85.2670 C.3       6 GLP5        0.0000 
     28 O          62.4730   83.4220  -85.7625 O.2       1 ALC1        0.0000 
     29 O          63.4270   83.1240  -84.8800 O.2       7 ALL1        0.0000 
     30 O          61.5190   83.7200  -86.6450 O.2       4 ALP1        0.0000 
     31 CA         63.2885   84.8595  -84.3790 C.3       3 GLC5        0.0000 
     32 CA         62.9760   83.1960  -83.4950 C.3       9 GLL5        0.0000 
     33 CA         63.6010   86.5230  -85.2630 C.3       6 GLP5        0.0000 
     34 CA         60.1500   81.6680  -83.6160 C.3       3 GLC5        0.0000 
     35 CA         62.0210   82.0700  -83.1600 C.3       9 GLL5        0.0000 
     36 CA         58.2790   81.2660  -84.0720 C.3       6 GLP5        0.0000 
     37 CA         61.5090   79.3355  -82.1780 C.3       3 GLC5        0.0000 
     38 CA         62.3170   81.1180  -82.0710 C.3       9 GLL5        0.0000 
     39 CA         60.7010   77.5530  -82.2850 C.3       6 GLP5        0.0000 
     40 CA         62.4690   79.5460  -83.6690 C.3       3 GLC5        0.0000 
     41 CA         67.0865   82.3073  -86.3678 C.3       3 GLC5        0.0000 
     42 CA         66.1090   80.5560  -85.5720 C.3       9 GLL5        0.0000 
     43 CA         68.2440   83.7170  -86.5750 C.3       6 GLP5        0.0000 
     44 CA         65.0245   79.6403  -86.7043 C.3       3 GLC5        0.0000 
     45 CA         69.1570   79.2995  -81.5087 C.3       3 GLC5        0.0000 
     46 CA         70.7450   80.3740  -81.3750 C.3       6 GLP5        0.0000 
     47 CA         67.1160   75.3233  -83.8805 C.3       3 GLC5        0.0000 
     48 CA         68.1300   76.9390  -82.8210 C.3       9 GLL5        0.0000 
     49 CA         66.2280   73.3990  -84.3100 C.3       6 GLP5        0.0000 
     50 CA         68.7770   76.0037  -84.1895 C.3       3 GLC5        0.0000 
     51 CA         69.5500   74.7600  -84.9280 C.3       6 GLP5        0.0000 
     52 CA         64.0404   82.2827  -81.8011 C.3       3 GLC5        0.0000 
@<TRIPOS>BOND
@<TRIPOS>SUBSTRUCTURE
     1 ALC1        7 GROUP        1 X    ALC  0     ROOT ALC X 1
     2 SEC2        1 GROUP        1 X    SEC  0     **** SEC X 2
     3 GLC5        4 GROUP        1 X    GLC  0     **** GLC X 6
     4 ALP1        9 GROUP        1 Y    ALP  0     ROOT ALP Y 8
     5 SEP2        3 GROUP        1 Y    SEP  0     **** SEP Y 9
     6 GLP5        6 GROUP        1 Y    GLP  0     **** GLP Y 13
     7 ALL1        8 GROUP        1 Z    ALL  0     ROOT ALL Z 15
     8 SEL2        2 GROUP        1 Z    SEL  0     **** SEL Z 16
     9 GLL5        5 GROUP        1 Z    GLL  0     **** GLL Z 20
@<TRIPOS>SET

