#    Name: 3s0o_50Z_1_ligand
#    Modification time : Tue Mar 25 12:06:21 2014

@<TRIPOS>MOLECULE
3s0o_50Z_1_ligand
   28    29     1     0     0
SMALL
NO_CHARGES


@<TRIPOS>ATOM
      1 N1         64.7940   82.1740  -86.5730 N.2       1 50Z446      0.0000 
      2 C2         65.7490   81.2390  -86.7490 C.2       1 50Z446      0.0000 
      3 N3         66.2670   81.0190  -87.9780 N.pl3     1 50Z446      0.0000 
      4 C4         66.1090   80.5560  -85.5720 C.2       1 50Z446      0.0000 
      5 C5         67.0340   79.5400  -85.4400 C.2       1 50Z446      0.0000 
      6 C6         67.3180   78.8690  -84.1220 C.ar      1 50Z446      0.0000 
      7 C8         67.2980   78.8590  -81.6430 C.ar      1 50Z446      0.0000 
      8 N8         67.0320   79.5100  -82.8810 N.ar      1 50Z446      0.0000 
      9 C9         67.8400   77.5910  -81.6420 C.ar      1 50Z446      0.0000 
     10 C10        68.1300   76.9390  -82.8210 C.ar      1 50Z446      0.0000 
     11 C11        67.8780   77.5560  -84.0810 C.ar      1 50Z446      0.0000 
     12 O12        67.7150   79.0830  -86.5260 O.2       1 50Z446      0.0000 
     13 S13        65.2050   81.1460  -84.2320 S.3       1 50Z446      0.0000 
     14 C14        64.4020   82.2390  -85.2830 C.2       1 50Z446      0.0000 
     15 N15        63.4270   83.1240  -84.8800 N.pl3     1 50Z446      0.0000 
     16 C16        62.9760   83.1960  -83.4950 C.3       1 50Z446      0.0000 
     17 C17        62.0210   82.0700  -83.1600 C.2       1 50Z446      0.0000 
     18 C18        62.3170   81.1180  -82.0710 C.2       1 50Z446      0.0000 
     19 H          65.9393   81.6193  -88.7076 H         1 50Z446      0.0000 
     20 H          66.9321   80.2755  -88.0486 H         1 50Z446      0.0000 
     21 H          67.0813   79.3458  -80.7706 H         1 50Z446      0.0000 
     22 H          68.0332   77.1188  -80.7355 H         1 50Z446      0.0000 
     23 H          68.5356   75.9906  -82.8134 H         1 50Z446      0.0000 
     24 H          68.0941   77.0677  -84.9416 H         1 50Z446      0.0000 
     25 H          62.9808   83.7701  -85.5521 H         1 50Z446      0.0000 
     26 H          62.4657   84.1531  -83.3026 H         1 50Z446      0.0000 
     27 H          63.8329   83.1417  -82.8049 H         1 50Z446      0.0000 
     28 H          61.1787   81.9829  -83.6952 H         1 50Z446      0.0000 
@<TRIPOS>BOND
     1    2    1 1    
     2   14    1 2    
     3    3    2 1    
     4    4    2 2    
     5   19    3 1    
     6   20    3 1    
     7    5    4 1    
     8   13    4 1    
     9    6    5 1    
    10   12    5 2    
    11    8    6 ar   
    12   11    6 ar   
    13    8    7 ar   
    14    9    7 ar   
    15   21    7 1    
    16   10    9 ar   
    17   22    9 1    
    18   11   10 ar   
    19   23   10 1    
    20   24   11 1    
    21   14   13 1    
    22   15   14 1    
    23   16   15 1    
    24   25   15 1    
    25   17   16 1    
    26   26   16 1    
    27   27   16 1    
    28   18   17 2    
    29   28   17 1    
@<TRIPOS>SUBSTRUCTURE
     1 50Z446      1 GROUP   
@<TRIPOS>SET

