#    Name: 3cso_XNI_2_INTS_M
#    Modification time : Mon Mar 24 22:18:28 2014

@<TRIPOS>MOLECULE
3cso_XNI_2_INTS_M
   64     0     6     0     0
SMALL
NO_CHARGES


@<TRIPOS>ATOM
      1 CA         29.6285   52.8800   53.9510 C.3       2 GLC5        0.0000 
      2 CA         28.2310   54.1520   52.7790 C.3       6 GLL5        0.0000 
      3 CA         31.0260   51.6080   55.1230 C.3       4 GLP5        0.0000 
      4 CA         27.5100   56.0990   57.1310 C.3       2 GLC5        0.0000 
      5 CA         25.9470   55.5050   55.7240 C.3       6 GLL5        0.0000 
      6 CA         29.0730   56.6930   58.5380 C.3       4 GLP5        0.0000 
      7 CA         23.8515   60.5045   54.9155 C.3       2 GLC5        0.0000 
      8 CA         23.4040   58.3100   54.7350 C.3       6 GLL5        0.0000 
      9 CA         24.2990   62.6990   55.0960 C.3       4 GLP5        0.0000 
     10 CA         31.0605   49.2530   59.8190 C.3       2 GLC5        0.0000 
     11 CA         29.4210   49.6650   59.0780 C.3       6 GLL5        0.0000 
     12 CA         32.7000   48.8410   60.5600 C.3       4 GLP5        0.0000 
     13 CA         30.9070   50.1655   60.9125 C.3       2 GLC5        0.0000 
     14 CA         29.3600   50.7290   59.9610 C.3       6 GLL5        0.0000 
     15 CA         32.4540   49.6020   61.8640 C.3       4 GLP5        0.0000 
     16 CA         27.3380   52.6635   48.7200 C.3       2 GLC5        0.0000 
     17 CA         27.7020   52.6100   50.8840 C.3       6 GLL5        0.0000 
     18 CA         26.9740   52.7170   46.5560 C.3       4 GLP5        0.0000 
     19 CA         29.6295   52.3095   50.4745 C.3       2 GLC5        0.0000 
     20 CA         31.5570   52.0090   50.0650 C.3       4 GLP5        0.0000 
     21 CA         28.7480   50.6540   50.8075 C.3       2 GLC5        0.0000 
     22 CA         29.7940   48.6980   50.7310 C.3       4 GLP5        0.0000 
     23 CA         29.2740   51.6930   54.1865 C.3       2 GLC5        0.0000 
     24 CA         27.5220   51.7780   53.2500 C.3       6 GLL5        0.0000 
     25 CA         27.1260   50.0360   54.0015 C.3       2 GLC5        0.0000 
     26 CA         26.7300   48.2940   54.7530 C.3       4 GLP5        0.0000 
     27 CA         26.1650   57.2520   60.6065 C.3       2 GLC5        0.0000 
     28 CA         25.9210   55.2510   60.8870 C.3       6 GLL5        0.0000 
     29 CA         26.4090   59.2530   60.3260 C.3       4 GLP5        0.0000 
     30 CA         24.6910   56.4055   61.9695 C.3       2 GLC5        0.0000 
     31 CA         23.4610   57.5600   63.0520 C.3       4 GLP5        0.0000 
     32 CA         27.5240   55.4190   60.1325 C.3       2 GLC5        0.0000 
     33 CA         29.1270   55.5870   59.3780 C.3       4 GLP5        0.0000 
     34 CA         23.9665   51.8760   60.1110 C.3       2 GLC5        0.0000 
     35 CA         25.6370   51.0040   60.6260 C.3       6 GLL5        0.0000 
     36 CA         22.2960   52.7480   59.5960 C.3       4 GLP5        0.0000 
     37 CA         29.4210   49.5885   56.9830 C.3       2 GLC5        0.0000 
     38 CA         28.2630   49.0270   58.6870 C.3       6 GLL5        0.0000 
     39 CA         30.5790   50.1500   55.2790 C.3       4 GLP5        0.0000 
     40 N          29.1440   56.5840   55.2650 N.am      1 SEC2        0.0000 
     41 N          28.5290   55.2890   54.8500 N.am      5 SEL2        0.0000 
     42 N          29.7590   57.8790   55.6800 N.am      3 SEP2        0.0000 
     43 CA         21.0100   53.2180   57.7130 C.3       2 GLC5        0.0000 
     44 CA         21.1560   54.1460   56.0850 C.3       6 GLL5        0.0000 
     45 CA         20.8640   52.2900   59.3410 C.3       4 GLP5        0.0000 
     46 CA         22.1883   54.1305   58.2347 C.3       2 GLC5        0.0000 
     47 CA         21.4920   55.1640   56.9630 C.3       6 GLL5        0.0000 
     48 CA         27.9945   49.3695   61.3257 C.3       2 GLC5        0.0000 
     49 CA         26.9750   50.5250   60.0710 C.3       6 GLL5        0.0000 
     50 CA         28.4300   47.8960   62.3880 C.3       4 GLP5        0.0000 
     51 CA         28.9102   49.0465   60.9537 C.3       2 GLC5        0.0000 
     52 CA         29.6359   51.6980   58.7819 C.3       2 GLC5        0.0000 
     53 CA         30.5050   52.7170   57.5760 C.3       4 GLP5        0.0000 
     54 CA         24.1410   54.5621   59.9609 C.3       2 GLC5        0.0000 
     55 CA         25.7770   54.4600   59.3640 C.3       6 GLL5        0.0000 
     56 CA         22.4100   54.0990   60.7590 C.3       4 GLP5        0.0000 
     57 CA         23.9030   52.8585   58.9969 C.3       2 GLC5        0.0000 
     58 CA         25.5380   53.0920   59.3130 C.3       6 GLL5        0.0000 
     59 CA         26.9450   50.9022   62.2084 C.3       2 GLC5        0.0000 
     60 CA         27.2920   50.8810   63.9720 C.3       4 GLP5        0.0000 
     61 CA         28.0415   48.5692   60.6612 C.3       2 GLC5        0.0000 
     62 CA         27.0430   49.4580   59.1820 C.3       6 GLL5        0.0000 
     63 CA         25.1547   49.0601   59.7331 C.3       2 GLC5        0.0000 
     64 CA         23.6350   48.0090   59.7010 C.3       4 GLP5        0.0000 
@<TRIPOS>BOND
@<TRIPOS>SUBSTRUCTURE
     1 SEC2       40 GROUP        1 X    SEC  0     ROOT SEC X 2
     2 GLC5        1 GROUP        1 X    GLC  0     **** GLC X 6
     3 SEP2       42 GROUP        1 Y    SEP  0     ROOT SEP Y 9
     4 GLP5        3 GROUP        1 Y    GLP  0     **** GLP Y 13
     5 SEL2       41 GROUP        1 Z    SEL  0     ROOT SEL Z 16
     6 GLL5        2 GROUP        1 Z    GLL  0     **** GLL Z 20
@<TRIPOS>SET

