#    Name: 3cso_XNI_2_ligand
#    Modification time : Mon Mar 24 22:18:28 2014

@<TRIPOS>MOLECULE
3cso_XNI_2_ligand
   65    69     1     0     0
SMALL
NO_CHARGES


@<TRIPOS>ATOM
      1 C1         28.2310   54.1520   52.7790 C.3       1 XNI579      0.0000 
      2 C2         27.3440   52.9900   52.3260 C.3       1 XNI579      0.0000 
      3 C3         25.8830   53.4060   52.4040 C.3       1 XNI579      0.0000 
      4 C4         25.4220   54.1600   53.6470 C.2       1 XNI579      0.0000 
      5 C5         26.3190   54.8190   54.4230 C.2       1 XNI579      0.0000 
      6 C6         27.7480   54.7970   54.0680 C.2       1 XNI579      0.0000 
      7 C8         23.1770   54.5380   54.8370 C.ar      1 XNI579      0.0000 
      8 N10        24.7170   56.2580   55.4900 N.am      1 XNI579      0.0000 
      9 C11        25.9470   55.5050   55.7240 C.3       1 XNI579      0.0000 
     10 C12        21.9970   53.8300   55.0340 C.ar      1 XNI579      0.0000 
     11 C15        22.6690   55.8620   56.7840 C.ar      1 XNI579      0.0000 
     12 C16        25.7900   54.5850   56.9610 C.ar      1 XNI579      0.0000 
     13 C17        24.7040   57.5780   54.9870 C.2       1 XNI579      0.0000 
     14 C19        23.4040   58.3100   54.7350 C.3       1 XNI579      0.0000 
     15 C21        25.7770   54.4600   59.3640 C.ar      1 XNI579      0.0000 
     16 C23        25.4170   52.4760   58.0660 C.ar      1 XNI579      0.0000 
     17 C24        25.5470   53.2160   56.8990 C.ar      1 XNI579      0.0000 
     18 O25        25.4140   52.4040   60.5040 O.3       1 XNI579      0.0000 
     19 C27        26.9750   50.5250   60.0710 C.ar      1 XNI579      0.0000 
     20 C30        29.4210   49.6650   59.0780 C.ar      1 XNI579      0.0000 
     21 C31        29.3600   50.7290   59.9610 C.ar      1 XNI579      0.0000 
     22 C32        28.1430   51.1610   60.4560 C.ar      1 XNI579      0.0000 
     23 C34        27.7020   52.6100   50.8840 C.3       1 XNI579      0.0000 
     24 C35        27.5220   51.7780   53.2500 C.3       1 XNI579      0.0000 
     25 CL36       25.9210   55.2510   60.8870 Cl        1 XNI579      0.0000 
     26 C20        25.8950   55.1950   58.2000 C.ar      1 XNI579      0.0000 
     27 C22        25.5380   53.0920   59.3130 C.ar      1 XNI579      0.0000 
     28 C26        25.6370   51.0040   60.6260 C.3       1 XNI579      0.0000 
     29 C29        28.2630   49.0270   58.6870 C.ar      1 XNI579      0.0000 
     30 C28        27.0430   49.4580   59.1820 C.ar      1 XNI579      0.0000 
     31 O33        28.5290   55.2890   54.8500 O.2       1 XNI579      0.0000 
     32 O18        25.7340   58.1870   54.7590 O.2       1 XNI579      0.0000 
     33 C9         23.5170   55.5470   55.7240 C.ar      1 XNI579      0.0000 
     34 C14        21.4920   55.1640   56.9630 C.ar      1 XNI579      0.0000 
     35 C13        21.1560   54.1460   56.0850 C.ar      1 XNI579      0.0000 
     36 N7         24.0360   54.1050   53.8020 N.pl3     1 XNI579      0.0000 
     37 H          28.2586   54.9086   51.9835 H         1 XNI579      0.0000 
     38 H          29.2554   53.7824   52.9205 H         1 XNI579      0.0000 
     39 H          25.2457   52.4908   52.2897 H         1 XNI579      0.0000 
     40 H          25.6416   54.0288   51.5036 H         1 XNI579      0.0000 
     41 H          26.7468   56.2341   55.9563 H         1 XNI579      0.0000 
     42 H          21.7495   53.0623   54.3883 H         1 XNI579      0.0000 
     43 H          22.9271   56.6201   57.4335 H         1 XNI579      0.0000 
     44 H          25.2296   51.4631   58.0154 H         1 XNI579      0.0000 
     45 H          25.4636   52.7520   55.9831 H         1 XNI579      0.0000 
     46 H          30.3334   49.3513   58.7140 H         1 XNI579      0.0000 
     47 H          30.2309   51.2041   60.2525 H         1 XNI579      0.0000 
     48 H          28.1049   51.9555   61.1108 H         1 XNI579      0.0000 
     49 H          26.0643   56.2164   58.2532 H         1 XNI579      0.0000 
     50 H          24.8371   50.4202   60.1086 H         1 XNI579      0.0000 
     51 H          25.5867   50.6777   61.6934 H         1 XNI579      0.0000 
     52 H          28.3015   48.2352   58.0316 H         1 XNI579      0.0000 
     53 H          26.1728   48.9829   58.8887 H         1 XNI579      0.0000 
     54 H          20.8645   55.3967   57.7448 H         1 XNI579      0.0000 
     55 H          20.2765   53.6238   56.2169 H         1 XNI579      0.0000 
     56 H          23.4994   53.6301   52.9500 H         1 XNI579      0.0000 
     57 H          23.5596   59.2315   54.3793 H         1 XNI579      0.0000 
     58 H          22.8314   57.8316   54.0692 H         1 XNI579      0.0000 
     59 H          22.8637   58.4059   55.5710 H         1 XNI579      0.0000 
     60 H          28.6566   52.3236   50.8015 H         1 XNI579      0.0000 
     61 H          27.1393   51.8545   50.5484 H         1 XNI579      0.0000 
     62 H          27.5702   53.3758   50.2545 H         1 XNI579      0.0000 
     63 H          28.4669   51.4506   53.2553 H         1 XNI579      0.0000 
     64 H          27.2813   51.9939   54.1963 H         1 XNI579      0.0000 
     65 H          26.9471   51.0094   52.9694 H         1 XNI579      0.0000 
@<TRIPOS>BOND
     1    2    1 1    
     2    6    1 1    
     3   37    1 1    
     4   38    1 1    
     5    3    2 1    
     6   23    2 1    
     7   24    2 1    
     8    4    3 1    
     9   39    3 1    
    10   40    3 1    
    11    5    4 2    
    12   36    4 1    
    13    6    5 1    
    14    9    5 1    
    15   31    6 2    
    16   10    7 ar   
    17   33    7 ar   
    18   36    7 1    
    19    9    8 1    
    20   13    8 am   
    21   33    8 1    
    22   12    9 1    
    23   41    9 1    
    24   35   10 ar   
    25   42   10 1    
    26   33   11 ar   
    27   34   11 ar   
    28   43   11 1    
    29   17   12 ar   
    30   26   12 ar   
    31   14   13 1    
    32   32   13 2    
    33   57   14 1    
    34   58   14 1    
    35   59   14 1    
    36   25   15 1    
    37   26   15 ar   
    38   27   15 ar   
    39   17   16 ar   
    40   27   16 ar   
    41   44   16 1    
    42   45   17 1    
    43   27   18 1    
    44   28   18 1    
    45   22   19 ar   
    46   28   19 1    
    47   30   19 ar   
    48   21   20 ar   
    49   29   20 ar   
    50   46   20 1    
    51   22   21 ar   
    52   47   21 1    
    53   48   22 1    
    54   60   23 1    
    55   61   23 1    
    56   62   23 1    
    57   63   24 1    
    58   64   24 1    
    59   65   24 1    
    60   49   26 1    
    61   50   28 1    
    62   51   28 1    
    63   30   29 ar   
    64   52   29 1    
    65   53   30 1    
    66   35   34 ar   
    67   54   34 1    
    68   55   35 1    
    69   56   36 1    
@<TRIPOS>SUBSTRUCTURE
     1 XNI579      1 GROUP   
@<TRIPOS>SET

