#    Name: 4jwj_SAH_2_INTS_M
#    Modification time : Tue Mar 25 06:39:08 2014

@<TRIPOS>MOLECULE
4jwj_SAH_2_INTS_M
   80     0    12     0     0
SMALL
NO_CHARGES


@<TRIPOS>ATOM
      1 OD1        40.9410   24.4090  -22.7490 O.co2     3 ASC3        0.0000 
      2 OD1        40.2560   25.9090  -23.4380 O.co2    11 ASL3        0.0000 
      3 OD1        41.6260   22.9090  -22.0600 O.co2     7 ASP3        0.0000 
      4 OD1        39.8835   24.6495  -22.9595 O.co2     3 ASC3        0.0000 
      5 OD1        39.5110   23.3900  -22.4810 O.co2     7 ASP3        0.0000 
      6 O          39.8835   24.6495  -22.9595 O.2       1 ALC1        0.0000 
      7 O          40.2560   25.9090  -23.4380 O.2       9 ALL1        0.0000 
      8 O          39.5110   23.3900  -22.4810 O.2       5 ALP1        0.0000 
      9 O          40.8115   25.7465  -24.8585 O.2       1 ALC1        0.0000 
     10 O          41.3670   25.5840  -26.2790 O.2       5 ALP1        0.0000 
     11 O          39.0440   25.8545  -24.0735 O.2       1 ALC1        0.0000 
     12 O          37.8320   25.8000  -24.7090 O.2       5 ALP1        0.0000 
     13 CA         40.7915   28.3655  -21.1600 C.3       4 GLC5        0.0000 
     14 CA         41.1760   26.6530  -22.5350 C.3      12 GLL5        0.0000 
     15 CA         40.4070   30.0780  -19.7850 C.3       8 GLP5        0.0000 
     16 CA         42.0305   24.5400  -24.1400 C.3       4 GLC5        0.0000 
     17 CA         42.6170   26.2260  -22.8130 C.3      12 GLL5        0.0000 
     18 CA         41.4440   22.8540  -25.4670 C.3       8 GLP5        0.0000 
     19 CA         45.2145   25.9395  -23.5630 C.3       4 GLC5        0.0000 
     20 CA         45.0690   26.0080  -21.6770 C.3      12 GLL5        0.0000 
     21 CA         45.3600   25.8710  -25.4490 C.3       8 GLP5        0.0000 
     22 N          39.0555   29.6305  -22.5990 N.am      2 SEC2        0.0000 
     23 N          39.9600   28.5830  -23.2650 N.am     10 SEL2        0.0000 
     24 N          38.1510   30.6780  -21.9330 N.am      6 SEP2        0.0000 
     25 CA         47.3275   26.3440  -18.8280 C.3       4 GLC5        0.0000 
     26 CA         45.6650   26.6570  -20.1310 C.3      12 GLL5        0.0000 
     27 CA         48.9900   26.0310  -17.5250 C.3       8 GLP5        0.0000 
     28 CA         46.8045   29.1945  -18.7265 C.3       4 GLC5        0.0000 
     29 CA         45.7470   28.1850  -20.0630 C.3      12 GLL5        0.0000 
     30 CA         47.8620   30.2040  -17.3900 C.3       8 GLP5        0.0000 
     31 CA         44.8745   31.7910  -22.6045 C.3       4 GLC5        0.0000 
     32 CA         45.4670   30.2700  -21.2250 C.3      12 GLL5        0.0000 
     33 CA         44.2820   33.3120  -23.9840 C.3       8 GLP5        0.0000 
     34 N          44.9105   30.8895  -18.7520 N.am      2 SEC2        0.0000 
     35 N          45.3720   31.2240  -20.1410 N.am     10 SEL2        0.0000 
     36 N          44.4490   30.5550  -17.3630 N.am      6 SEP2        0.0000 
     37 O          44.9950   32.3555  -20.6970 O.2       1 ALC1        0.0000 
     38 O          45.3720   31.2240  -20.1410 O.2       9 ALL1        0.0000 
     39 O          44.6180   33.4870  -21.2530 O.2       5 ALP1        0.0000 
     40 CA         47.3870   30.0235  -19.3185 C.3       4 GLC5        0.0000 
     41 CA         46.9120   29.8430  -21.2470 C.3      12 GLL5        0.0000 
     42 CA         48.6985   29.4010  -21.0735 C.3       4 GLC5        0.0000 
     43 CA         50.4850   28.9590  -20.9000 C.3       8 GLP5        0.0000 
     44 N          48.7050   27.3900  -24.7370 N.am      2 SEC2        0.0000 
     45 N          48.2330   28.8360  -24.5170 N.am     10 SEL2        0.0000 
     46 N          49.1770   25.9440  -24.9570 N.am      6 SEP2        0.0000 
     47 O          49.2655   29.1495  -27.3975 O.2       1 ALC1        0.0000 
     48 O          49.1420   30.6320  -26.8730 O.2       9 ALL1        0.0000 
     49 O          49.3890   27.6670  -27.9220 O.2       5 ALP1        0.0000 
     50 O          49.4880   31.5085  -27.9465 O.2       1 ALC1        0.0000 
     51 O          49.8340   32.3850  -29.0200 O.2       5 ALP1        0.0000 
     52 N          49.2625   33.6670  -25.7870 N.am      2 SEC2        0.0000 
     53 N          48.5020   32.4340  -25.4830 N.am     10 SEL2        0.0000 
     54 N          50.0230   34.9000  -26.0910 N.am      6 SEP2        0.0000 
     55 CA         47.7095   33.8530  -22.6070 C.3       4 GLC5        0.0000 
     56 CA         48.0070   32.9100  -24.3050 C.3      12 GLL5        0.0000 
     57 CA         47.4120   34.7960  -20.9090 C.3       8 GLP5        0.0000 
     58 CA         46.1445   33.1110  -24.1445 C.3       4 GLC5        0.0000 
     59 CA         46.6975   32.2950  -25.7750 C.3       4 GLC5        0.0000 
     60 CA         45.3880   31.6800  -27.2450 C.3       8 GLP5        0.0000 
     61 CA         47.9450   34.4345  -25.4330 C.3       4 GLC5        0.0000 
     62 CA         47.8830   35.9590  -26.5610 C.3       8 GLP5        0.0000 
     63 CA         49.8110   33.1075  -24.1320 C.3       4 GLC5        0.0000 
     64 CA         51.6150   33.3050  -23.9590 C.3       8 GLP5        0.0000 
     65 CA         45.9940   32.0320  -23.7045 C.3       4 GLC5        0.0000 
     66 CA         47.7060   30.7520  -23.4250 C.3      12 GLL5        0.0000 
     67 CA         49.0955   29.8555  -22.1625 C.3       4 GLC5        0.0000 
     68 CA         44.1638   26.0095  -23.7930 C.3       4 GLC5        0.0000 
     69 CA         43.3180   26.0700  -21.4610 C.3      12 GLL5        0.0000 
     70 CA         41.9811   25.7749  -20.3442 C.3       4 GLC5        0.0000 
     71 CA         41.3550   25.2950  -18.6210 C.3       8 GLP5        0.0000 
     72 CA         44.3255   29.0732  -18.7653 C.3       4 GLC5        0.0000 
     73 CA         44.7370   28.9740  -20.9200 C.3      12 GLL5        0.0000 
     74 CA         43.4090   29.5670  -17.0390 C.3       8 GLP5        0.0000 
     75 CA         47.0395   30.4165  -26.2855 C.3       4 GLC5        0.0000 
     76 CA         48.2340   30.1680  -24.6570 C.3      12 GLL5        0.0000 
     77 CA         45.6390   30.1950  -27.3880 C.3       8 GLP5        0.0000 
     78 CA         50.0240   31.2970  -23.9335 C.3       4 GLC5        0.0000 
     79 CA         48.6460   31.1080  -25.7090 C.3      12 GLL5        0.0000 
     80 CA         51.9750   31.8990  -23.5630 C.3       8 GLP5        0.0000 
@<TRIPOS>BOND
@<TRIPOS>SUBSTRUCTURE
     1 ALC1        6 GROUP        1 X    ALC  0     ROOT ALC X 1
     2 SEC2       22 GROUP        1 X    SEC  0     **** SEC X 2
     3 ASC3        1 GROUP        1 X    ASC  0     **** ASC X 3
     4 GLC5       13 GROUP        1 X    GLC  0     **** GLC X 6
     5 ALP1        8 GROUP        1 Y    ALP  0     ROOT ALP Y 8
     6 SEP2       24 GROUP        1 Y    SEP  0     **** SEP Y 9
     7 ASP3        3 GROUP        1 Y    ASP  0     **** ASP Y 10
     8 GLP5       15 GROUP        1 Y    GLP  0     **** GLP Y 13
     9 ALL1        7 GROUP        1 Z    ALL  0     ROOT ALL Z 15
    10 SEL2       23 GROUP        1 Z    SEL  0     **** SEL Z 16
    11 ASL3        2 GROUP        1 Z    ASL  0     **** ASL Z 17
    12 GLL5       14 GROUP        1 Z    GLL  0     **** GLL Z 20
@<TRIPOS>SET

