#    Name: 4jwj_SAH_2_ligand
#    Modification time : Tue Mar 25 06:39:08 2014

@<TRIPOS>MOLECULE
4jwj_SAH_2_ligand
   46    48     1     0     0
SMALL
NO_CHARGES


@<TRIPOS>ATOM
      1 N          40.2560   25.9090  -23.4380 N.4       1 SAH301      0.0000 
      2 CA         41.1760   26.6530  -22.5350 C.3       1 SAH301      0.0000 
      3 CB         42.6170   26.2260  -22.8130 C.3       1 SAH301      0.0000 
      4 CG         43.3180   26.0700  -21.4610 C.3       1 SAH301      0.0000 
      5 SD         45.0690   26.0080  -21.6770 S.3       1 SAH301      0.0000 
      6 C          41.0000   28.1380  -22.7560 C.2       1 SAH301      0.0000 
      7 O          41.8900   28.9570  -22.4450 O.co2     1 SAH301      0.0000 
      8 OXT        39.9600   28.5830  -23.2650 O.co2     1 SAH301      0.0000 
      9 C5'        45.6650   26.6570  -20.1310 C.3       1 SAH301      0.0000 
     10 C4'        45.7470   28.1850  -20.0630 C.3       1 SAH301      0.0000 
     11 O4'        47.0270   28.6140  -20.5340 O.3       1 SAH301      0.0000 
     12 C3'        44.7370   28.9740  -20.9200 C.3       1 SAH301      0.0000 
     13 O3'        43.5580   29.2740  -20.1920 O.3       1 SAH301      0.0000 
     14 C2'        45.4670   30.2700  -21.2250 C.3       1 SAH301      0.0000 
     15 O2'        45.3720   31.2240  -20.1410 O.3       1 SAH301      0.0000 
     16 C1'        46.9120   29.8430  -21.2470 C.3       1 SAH301      0.0000 
     17 N9         47.4460   29.7250  -22.6320 N.pl3     1 SAH301      0.0000 
     18 C8         47.7540   28.5760  -23.2790 C.2       1 SAH301      0.0000 
     19 N7         48.2330   28.8360  -24.5170 N.2       1 SAH301      0.0000 
     20 C5         48.2340   30.1680  -24.6570 C.ar      1 SAH301      0.0000 
     21 C6         48.6460   31.1080  -25.7090 C.ar      1 SAH301      0.0000 
     22 N6         49.1420   30.6320  -26.8730 N.pl3     1 SAH301      0.0000 
     23 N1         48.5020   32.4340  -25.4830 N.ar      1 SAH301      0.0000 
     24 C2         48.0070   32.9100  -24.3050 C.ar      1 SAH301      0.0000 
     25 N3         47.6060   32.1050  -23.2990 N.ar      1 SAH301      0.0000 
     26 C4         47.7060   30.7520  -23.4250 C.ar      1 SAH301      0.0000 
     27 H          40.9395   26.4186  -21.5107 H         1 SAH301      0.0000 
     28 H          43.1131   26.9852  -23.3887 H         1 SAH301      0.0000 
     29 H          42.6205   25.2841  -23.3295 H         1 SAH301      0.0000 
     30 H          43.0913   25.1461  -20.9805 H         1 SAH301      0.0000 
     31 H          43.1736   26.9089  -20.8198 H         1 SAH301      0.0000 
     32 H          46.6328   26.1808  -20.0220 H         1 SAH301      0.0000 
     33 H          44.9719   26.2426  -19.4076 H         1 SAH301      0.0000 
     34 H          45.6235   28.5049  -19.0318 H         1 SAH301      0.0000 
     35 H          44.5788   28.4555  -21.8183 H         1 SAH301      0.0000 
     36 H          45.2012   30.6404  -22.1475 H         1 SAH301      0.0000 
     37 H          47.4854   30.6230  -20.7201 H         1 SAH301      0.0000 
     38 H          47.6445   27.6791  -22.9013 H         1 SAH301      0.0000 
     39 H          49.3938   31.3168  -27.5568 H         1 SAH301      0.0000 
     40 H          49.2131   29.6372  -26.9469 H         1 SAH301      0.0000 
     41 H          47.9364   33.9601  -24.1797 H         1 SAH301      0.0000 
     42 H          40.6937   25.6801  -24.3075 H         1 SAH301      0.0000 
     43 H          39.9490   25.0496  -23.0292 H         1 SAH301      0.0000 
     44 H          39.4367   26.4404  -23.6533 H         1 SAH301      0.0000 
     45 H          42.8185   29.2178  -20.8628 H         1 SAH301      0.0000 
     46 H          44.6757   31.8795  -20.4336 H         1 SAH301      0.0000 
@<TRIPOS>BOND
     1    2    1 1    
     2   42    1 1    
     3   43    1 1    
     4   44    1 1    
     5    3    2 1    
     6    6    2 1    
     7   27    2 1    
     8    4    3 1    
     9   28    3 1    
    10   29    3 1    
    11    5    4 1    
    12   30    4 1    
    13   31    4 1    
    14    9    5 1    
    15    7    6 ar   
    16    8    6 ar   
    17   10    9 1    
    18   32    9 1    
    19   33    9 1    
    20   11   10 1    
    21   12   10 1    
    22   34   10 1    
    23   16   11 1    
    24   13   12 1    
    25   14   12 1    
    26   35   12 1    
    27   45   13 1    
    28   15   14 1    
    29   16   14 1    
    30   36   14 1    
    31   46   15 1    
    32   17   16 1    
    33   37   16 1    
    34   18   17 1    
    35   26   17 1    
    36   19   18 2    
    37   38   18 1    
    38   20   19 1    
    39   21   20 ar   
    40   26   20 ar   
    41   22   21 1    
    42   23   21 ar   
    43   39   22 1    
    44   40   22 1    
    45   24   23 ar   
    46   25   24 ar   
    47   41   24 1    
    48   26   25 ar   
@<TRIPOS>SUBSTRUCTURE
     1 SAH301      1 GROUP   
@<TRIPOS>SET

