#    Name: 1dhr_NAD_1_INTS_M
#    Modification time : Mon Mar 24 21:58:06 2014

@<TRIPOS>MOLECULE
1dhr_NAD_1_INTS_M
   96     0     9     0     0
SMALL
NO_CHARGES


@<TRIPOS>ATOM
      1 N          28.8420   45.2480   36.9475 N.am      2 SEC2        0.0000 
      2 N          29.8050   45.3930   35.7300 N.am      8 SEL2        0.0000 
      3 N          27.8790   45.1030   38.1650 N.am      5 SEP2        0.0000 
      4 N          26.5910   45.3560   34.9420 N.am      2 SEC2        0.0000 
      5 N          27.6860   44.6540   34.3280 N.am      8 SEL2        0.0000 
      6 N          25.4960   46.0580   35.5560 N.am      5 SEP2        0.0000 
      7 CA         27.0895   45.2300   31.0400 C.3       3 GLC5        0.0000 
      8 CA         27.0360   44.3160   33.0600 C.3       9 GLL5        0.0000 
      9 CA         27.1430   46.1440   29.0200 C.3       6 GLP5        0.0000 
     10 CA         24.1560   43.0355   33.3875 C.3       3 GLC5        0.0000 
     11 CA         26.1830   43.1050   33.1690 C.3       9 GLL5        0.0000 
     12 CA         22.1290   42.9660   33.6060 C.3       6 GLP5        0.0000 
     13 O          25.1650   40.1075   34.1405 O.2       1 ALC1        0.0000 
     14 O          26.1710   41.3010   34.8520 O.2       7 ALL1        0.0000 
     15 O          24.1590   38.9140   33.4290 O.2       4 ALP1        0.0000 
     16 O          24.9110   40.9255   34.8140 O.2       1 ALC1        0.0000 
     17 O          23.6510   40.5500   34.7760 O.2       4 ALP1        0.0000 
     18 O          25.3515   39.2450   33.1200 O.2       1 ALC1        0.0000 
     19 O          26.5440   39.5760   32.8110 O.2       7 ALL1        0.0000 
     20 CA         23.7480   42.2185   32.7980 C.3       3 GLC5        0.0000 
     21 CA         25.3670   41.4710   31.9900 C.3       9 GLL5        0.0000 
     22 CA         24.2235   42.9895   31.0025 C.3       3 GLC5        0.0000 
     23 CA         23.0800   44.5080   30.0150 C.3       6 GLP5        0.0000 
     24 CA         25.2360   41.6045   27.3165 C.3       3 GLC5        0.0000 
     25 CA         24.3140   40.2850   28.8520 C.3       9 GLL5        0.0000 
     26 CA         26.1580   42.9240   25.7810 C.3       6 GLP5        0.0000 
     27 CA         21.8275   37.8610   27.9715 C.3       3 GLC5        0.0000 
     28 CA         23.1000   39.6220   28.1170 C.3       9 GLL5        0.0000 
     29 CA         20.5550   36.1000   27.8260 C.3       6 GLP5        0.0000 
     30 O          23.7125   40.3315   25.6255 O.2       1 ALC1        0.0000 
     31 O          23.1330   39.2810   26.8000 O.2       7 ALL1        0.0000 
     32 O          24.2920   41.3820   24.4510 O.2       4 ALP1        0.0000 
     33 CA         21.6495   39.0350   31.7185 C.3       3 GLC5        0.0000 
     34 CA         22.0380   39.7500   30.1010 C.3       9 GLL5        0.0000 
     35 CA         21.2610   38.3200   33.3360 C.3       6 GLP5        0.0000 
     36 CA         23.2490   38.0935   30.1230 C.3       3 GLC5        0.0000 
     37 CA         24.4600   36.4370   30.1450 C.3       6 GLP5        0.0000 
     38 CA         20.6605   38.4280   29.9180 C.3       3 GLC5        0.0000 
     39 CA         19.2830   37.1060   29.7350 C.3       6 GLP5        0.0000 
     40 CA         22.0260   41.1670   28.6600 C.3       3 GLC5        0.0000 
     41 CA         22.0140   42.5840   27.2190 C.3       6 GLP5        0.0000 
     42 CA         23.5940   42.5285   30.0735 C.3       3 GLC5        0.0000 
     43 CA         24.1080   40.5490   30.1320 C.3       9 GLL5        0.0000 
     44 N          27.2115   47.8270   37.2845 N.am      2 SEC2        0.0000 
     45 N          27.7010   47.8650   35.9730 N.am      8 SEL2        0.0000 
     46 N          26.7220   47.7890   38.5960 N.am      5 SEP2        0.0000 
     47 CA         25.4940   50.4285   34.9850 C.3       3 GLC5        0.0000 
     48 CA         26.5880   49.4230   33.7450 C.3       9 GLL5        0.0000 
     49 CA         24.4000   51.4340   36.2250 C.3       6 GLP5        0.0000 
     50 CA         24.4540   49.0680   33.9910 C.3       3 GLC5        0.0000 
     51 CA         22.3200   48.7130   34.2370 C.3       6 GLP5        0.0000 
     52 CA         27.7310   50.7695   34.6865 C.3       3 GLC5        0.0000 
     53 CA         28.8740   52.1160   35.6280 C.3       6 GLP5        0.0000 
     54 CA         24.3200   49.1375   32.5285 C.3       3 GLC5        0.0000 
     55 CA         26.3200   49.9220   32.3190 C.3       9 GLL5        0.0000 
     56 CA         22.3200   48.3530   32.7380 C.3       6 GLP5        0.0000 
     57 N          26.5985   49.5880   28.4655 N.am      2 SEC2        0.0000 
     58 N          26.3200   49.1900   29.9260 N.am      8 SEL2        0.0000 
     59 N          26.8770   49.9860   27.0050 N.am      5 SEP2        0.0000 
     60 O          25.4535   48.2250   29.6440 O.2       1 ALC1        0.0000 
     61 O          26.3200   49.1900   29.9260 O.2       7 ALL1        0.0000 
     62 O          24.5870   47.2600   29.3620 O.2       4 ALP1        0.0000 
     63 N          29.2325   47.7700   29.6185 N.am      2 SEC2        0.0000 
     64 N          28.9880   49.3640   29.8370 N.am      8 SEL2        0.0000 
     65 N          29.4770   46.1760   29.4000 N.am      5 SEP2        0.0000 
     66 CA         28.5285   51.5745   33.4965 C.3       3 GLC5        0.0000 
     67 CA         28.1830   51.0330   31.3650 C.3       9 GLL5        0.0000 
     68 CA         29.6540   51.8035   34.0535 C.3       3 GLC5        0.0000 
     69 CA         30.4340   51.4910   32.4790 C.3       9 GLL5        0.0000 
     70 N          33.1845   53.2945   34.7970 N.am      2 SEC2        0.0000 
     71 N          33.5780   52.2940   33.8460 N.am      8 SEL2        0.0000 
     72 N          32.7910   54.2950   35.7480 N.am      5 SEP2        0.0000 
     73 N          34.4550   51.7715   34.8110 N.am      2 SEC2        0.0000 
     74 N          35.3320   51.2490   35.7760 N.am      5 SEP2        0.0000 
     75 CA         29.8435   55.0775   31.7160 C.3       3 GLC5        0.0000 
     76 CA         30.8480   53.6240   30.7350 C.3       9 GLL5        0.0000 
     77 CA         28.8390   56.5310   32.6970 C.3       6 GLP5        0.0000 
     78 CA         28.6595   54.3615   31.4550 C.3       3 GLC5        0.0000 
     79 CA         29.7360   52.8990   30.6510 C.3       9 GLL5        0.0000 
     80 CA         27.5830   55.8240   32.2590 C.3       6 GLP5        0.0000 
     81 CA         25.2583   44.5877   31.9977 C.3       3 GLC5        0.0000 
     82 CA         23.9070   45.4650   30.8810 C.3       6 GLP5        0.0000 
     83 CA         26.6774   43.1181   35.1724 C.3       3 GLC5        0.0000 
     84 CA         26.5990   43.4660   36.9360 C.3       6 GLP5        0.0000 
     85 CA         24.1837   38.3441   29.7266 C.3       3 GLC5        0.0000 
     86 CA         22.9608   41.4176   28.2636 C.3       3 GLC5        0.0000 
     87 CA         25.2940   50.3580   30.7388 C.3       3 GLC5        0.0000 
     88 CA         26.9980   48.9880   31.1880 C.3       9 GLL5        0.0000 
     89 CA         23.9290   51.2610   29.7240 C.3       6 GLP5        0.0000 
     90 CA         27.4293   47.7082   30.0953 C.3       3 GLC5        0.0000 
     91 CA         32.8675   54.2090   33.1485 C.3       3 GLC5        0.0000 
     92 CA         31.5890   52.1490   32.6120 C.3       9 GLL5        0.0000 
     93 CA         33.9530   55.6580   34.1310 C.3       6 GLP5        0.0000 
     94 CA         30.8455   52.9965   33.9405 C.3       3 GLC5        0.0000 
     95 CA         31.9750   53.3710   31.7200 C.3       9 GLL5        0.0000 
     96 CA         29.9090   53.2330   35.7150 C.3       6 GLP5        0.0000 
@<TRIPOS>BOND
@<TRIPOS>SUBSTRUCTURE
     1 ALC1       13 GROUP        1 X    ALC  0     ROOT ALC X 1
     2 SEC2        1 GROUP        1 X    SEC  0     **** SEC X 2
     3 GLC5        7 GROUP        1 X    GLC  0     **** GLC X 6
     4 ALP1       15 GROUP        1 Y    ALP  0     ROOT ALP Y 8
     5 SEP2        3 GROUP        1 Y    SEP  0     **** SEP Y 9
     6 GLP5        9 GROUP        1 Y    GLP  0     **** GLP Y 13
     7 ALL1       14 GROUP        1 Z    ALL  0     ROOT ALL Z 15
     8 SEL2        2 GROUP        1 Z    SEL  0     **** SEL Z 16
     9 GLL5        8 GROUP        1 Z    GLL  0     **** GLL Z 20
@<TRIPOS>SET

