#    Name: 1dhr_NAD_1_ligand
#    Modification time : Mon Mar 24 21:58:07 2014

@<TRIPOS>MOLECULE
1dhr_NAD_1_ligand
   70    74     1     0     0
SMALL
NO_CHARGES


@<TRIPOS>ATOM
      1 PA         29.1710   45.3280   34.3540 P.3       1 NAD241      0.0000 
      2 O1A        30.1680   44.7400   33.3920 O.co2     1 NAD241      0.0000 
      3 O2A        29.8050   45.3930   35.7300 O.co2     1 NAD241      0.0000 
      4 O5B        27.6860   44.6540   34.3280 O.3       1 NAD241      0.0000 
      5 C5B        27.0360   44.3160   33.0600 C.3       1 NAD241      0.0000 
      6 C4B        26.1830   43.1050   33.1690 C.3       1 NAD241      0.0000 
      7 O4B        25.6910   42.8890   32.1410 O.3       1 NAD241      0.0000 
      8 C3B        26.9020   41.8300   33.7030 C.3       1 NAD241      0.0000 
      9 O3B        26.1710   41.3010   34.8520 O.3       1 NAD241      0.0000 
     10 C2B        26.6220   40.8780   32.5220 C.3       1 NAD241      0.0000 
     11 O2B        26.5440   39.5760   32.8110 O.3       1 NAD241      0.0000 
     12 C1B        25.3670   41.4710   31.9900 C.3       1 NAD241      0.0000 
     13 N9A        25.1860   41.0820   30.5700 N.pl3     1 NAD241      0.0000 
     14 C8A        26.1330   41.1730   29.6150 C.2       1 NAD241      0.0000 
     15 N7A        25.6550   40.7050   28.4640 N.2       1 NAD241      0.0000 
     16 C5A        24.3140   40.2850   28.8520 C.ar      1 NAD241      0.0000 
     17 C6A        23.1000   39.6220   28.1170 C.ar      1 NAD241      0.0000 
     18 N6A        23.1330   39.2810   26.8000 N.pl3     1 NAD241      0.0000 
     19 N1A        21.9740   39.3810   28.8080 N.ar      1 NAD241      0.0000 
     20 C2A        22.0380   39.7500   30.1010 C.ar      1 NAD241      0.0000 
     21 N3A        22.9920   40.3200   30.8480 N.ar      1 NAD241      0.0000 
     22 C4A        24.1080   40.5490   30.1320 C.ar      1 NAD241      0.0000 
     23 O3         28.8300   46.8180   33.9640 O.3       1 NAD241      0.0000 
     24 PN         28.6720   48.1030   34.9100 P.3       1 NAD241      0.0000 
     25 O1N        29.9130   48.6580   35.3920 O.co2     1 NAD241      0.0000 
     26 O2N        27.7010   47.8650   35.9730 O.co2     1 NAD241      0.0000 
     27 O5D        28.0280   49.1650   33.8380 O.3       1 NAD241      0.0000 
     28 C5D        26.5880   49.4230   33.7450 C.3       1 NAD241      0.0000 
     29 C4D        26.3200   49.9220   32.3190 C.3       1 NAD241      0.0000 
     30 O4D        27.0590   51.1810   32.2120 O.3       1 NAD241      0.0000 
     31 C3D        26.9980   48.9880   31.1880 C.3       1 NAD241      0.0000 
     32 O3D        26.3200   49.1900   29.9260 O.3       1 NAD241      0.0000 
     33 C2D        28.4330   49.5570   31.1530 C.3       1 NAD241      0.0000 
     34 O2D        28.9880   49.3640   29.8370 O.3       1 NAD241      0.0000 
     35 C1D        28.1830   51.0330   31.3650 C.3       1 NAD241      0.0000 
     36 N1N        29.4800   51.8080   31.5130 N.pl3     1 NAD241      0.0000 
     37 C2N        30.4340   51.4910   32.4790 C.ar      1 NAD241      0.0000 
     38 C3N        31.5890   52.1490   32.6120 C.ar      1 NAD241      0.0000 
     39 C7N        32.4620   51.6610   33.6830 C.2       1 NAD241      0.0000 
     40 O7N        33.5780   52.2940   33.8460 O.2       1 NAD241      0.0000 
     41 N7N        32.1380   50.6210   34.4730 N.am      1 NAD241      0.0000 
     42 C4N        31.9750   53.3710   31.7200 C.ar      1 NAD241      0.0000 
     43 C5N        30.8480   53.6240   30.7350 C.ar      1 NAD241      0.0000 
     44 C6N        29.7360   52.8990   30.6510 C.ar      1 NAD241      0.0000 
     45 H          27.8004   44.1509   32.2768 H         1 NAD241      0.0000 
     46 H          26.4158   45.1657   32.7160 H         1 NAD241      0.0000 
     47 H          25.4326   43.3457   33.9951 H         1 NAD241      0.0000 
     48 H          27.8792   41.9858   33.8103 H         1 NAD241      0.0000 
     49 H          27.4038   41.1378   31.7765 H         1 NAD241      0.0000 
     50 H          24.5675   41.2024   32.5990 H         1 NAD241      0.0000 
     51 H          27.0319   41.5301   29.7559 H         1 NAD241      0.0000 
     52 H          23.9956   39.4500   26.3232 H         1 NAD241      0.0000 
     53 H          22.2917   38.8914   26.4251 H         1 NAD241      0.0000 
     54 H          21.0818   39.5312   30.6768 H         1 NAD241      0.0000 
     55 H          26.2825   50.1902   34.4386 H         1 NAD241      0.0000 
     56 H          26.0180   48.5215   33.9044 H         1 NAD241      0.0000 
     57 H          25.3250   50.0356   32.1175 H         1 NAD241      0.0000 
     58 H          27.0087   48.0263   31.5534 H         1 NAD241      0.0000 
     59 H          28.9783   49.1673   31.9269 H         1 NAD241      0.0000 
     60 H          27.7990   51.3405   30.2749 H         1 NAD241      0.0000 
     61 H          30.2091   50.6842   33.1283 H         1 NAD241      0.0000 
     62 H          32.8246   50.3504   35.1478 H         1 NAD241      0.0000 
     63 H          31.2395   50.2114   34.3148 H         1 NAD241      0.0000 
     64 H          32.7373   53.8289   31.7954 H         1 NAD241      0.0000 
     65 H          31.0299   54.4501   30.1043 H         1 NAD241      0.0000 
     66 H          29.0013   53.1159   29.9318 H         1 NAD241      0.0000 
     67 H          25.2396   41.1523   34.5199 H         1 NAD241      0.0000 
     68 H          25.6109   39.3122   32.5666 H         1 NAD241      0.0000 
     69 H          26.0841   48.2713   29.6092 H         1 NAD241      0.0000 
     70 H          28.1977   49.2186   29.2417 H         1 NAD241      0.0000 
@<TRIPOS>BOND
     1    2    1 ar   
     2    3    1 ar   
     3    4    1 1    
     4   23    1 1    
     5    5    4 1    
     6    6    5 1    
     7   45    5 1    
     8   46    5 1    
     9    7    6 1    
    10    8    6 1    
    11   47    6 1    
    12   12    7 1    
    13    9    8 1    
    14   10    8 1    
    15   48    8 1    
    16   67    9 1    
    17   11   10 1    
    18   12   10 1    
    19   49   10 1    
    20   68   11 1    
    21   13   12 1    
    22   50   12 1    
    23   14   13 1    
    24   22   13 1    
    25   15   14 2    
    26   51   14 1    
    27   16   15 1    
    28   17   16 ar   
    29   22   16 ar   
    30   18   17 1    
    31   19   17 ar   
    32   52   18 1    
    33   53   18 1    
    34   20   19 ar   
    35   21   20 ar   
    36   54   20 1    
    37   22   21 ar   
    38   24   23 1    
    39   25   24 ar   
    40   26   24 ar   
    41   27   24 1    
    42   28   27 1    
    43   29   28 1    
    44   55   28 1    
    45   56   28 1    
    46   30   29 1    
    47   31   29 1    
    48   57   29 1    
    49   35   30 1    
    50   32   31 1    
    51   33   31 1    
    52   58   31 1    
    53   69   32 1    
    54   34   33 1    
    55   35   33 1    
    56   59   33 1    
    57   70   34 1    
    58   36   35 1    
    59   60   35 1    
    60   37   36 ar   
    61   44   36 ar   
    62   38   37 ar   
    63   61   37 1    
    64   39   38 1    
    65   42   38 ar   
    66   40   39 2    
    67   41   39 am   
    68   62   41 1    
    69   63   41 1    
    70   43   42 ar   
    71   64   42 1    
    72   44   43 ar   
    73   65   43 1    
    74   66   44 1    
@<TRIPOS>SUBSTRUCTURE
     1 NAD241      1 GROUP   
@<TRIPOS>SET

