#    Name: 4edy_9PQ_1_INTS_M
#    Modification time : Tue Mar 25 10:55:33 2014

@<TRIPOS>MOLECULE
4edy_9PQ_1_INTS_M
   56     0     9     0     0
SMALL
NO_CHARGES


@<TRIPOS>ATOM
      1 CA         27.4685   -1.6490   20.5090 C.3       3 GLC5        0.0000 
      2 CA         27.9410   -0.5070   19.1250 C.3       9 GLL5        0.0000 
      3 CA         26.9960   -2.7910   21.8930 C.3       6 GLP5        0.0000 
      4 CA         18.5230   -0.7685   18.7135 C.3       3 GLC5        0.0000 
      5 CA         19.6930    1.0630   18.3410 C.3       9 GLL5        0.0000 
      6 CA         17.3530   -2.6000   19.0860 C.3       6 GLP5        0.0000 
      7 CA         19.2950    5.4625   19.5330 C.3       3 GLC5        0.0000 
      8 CA         17.7190    4.4130   19.0790 C.3       9 GLL5        0.0000 
      9 CA         20.8710    6.5120   19.9870 C.3       6 GLP5        0.0000 
     10 N          17.4560    3.9245   21.3435 N.am      2 SEC2        0.0000 
     11 N          17.0100    5.0880   20.1170 N.am      8 SEL2        0.0000 
     12 N          17.9020    2.7610   22.5700 N.am      5 SEP2        0.0000 
     13 N          16.3060    6.0000   19.7025 N.am      2 SEC2        0.0000 
     14 N          15.6020    6.9120   19.2880 N.am      5 SEP2        0.0000 
     15 O          17.9200    5.2240   20.9535 O.2       1 ALC1        0.0000 
     16 O          17.0100    5.0880   20.1170 O.2       7 ALL1        0.0000 
     17 O          18.8300    5.3600   21.7900 O.2       4 ALP1        0.0000 
     18 CA         15.3625    5.2815   18.2610 C.3       3 GLC5        0.0000 
     19 CA         15.4890    3.3210   18.5790 C.3       9 GLL5        0.0000 
     20 CA         15.2360    7.2420   17.9430 C.3       6 GLP5        0.0000 
     21 CA         12.5995    2.1870   17.6045 C.3       3 GLC5        0.0000 
     22 CA         14.6860    2.3100   18.0510 C.3       9 GLL5        0.0000 
     23 CA         10.5130    2.0640   17.1580 C.3       6 GLP5        0.0000 
     24 CA         12.4600    1.1450   17.0175 C.3       3 GLC5        0.0000 
     25 CA         14.4070    0.2260   16.8770 C.3       9 GLL5        0.0000 
     26 CA         25.6457   -0.9593   20.0557 C.3       3 GLC5        0.0000 
     27 CA         25.2470    0.1910   17.9610 C.3       9 GLL5        0.0000 
     28 CA         25.7030   -2.4420   21.5550 C.3       6 GLP5        0.0000 
     29 CA         24.3248    1.0353   20.0023 C.3       3 GLC5        0.0000 
     30 CA         25.9300    0.8560   19.1520 C.3       9 GLL5        0.0000 
     31 CA         23.0610    1.5470   21.4480 C.3       6 GLP5        0.0000 
     32 CA         22.2575    1.4932   19.7108 C.3       3 GLC5        0.0000 
     33 CA         21.8330    1.9190   17.6420 C.3       9 GLL5        0.0000 
     34 CA         22.1610    2.1270   15.5287 C.3       3 GLC5        0.0000 
     35 CA         22.8100    1.8040   13.7320 C.3       6 GLP5        0.0000 
     36 CA         18.7140    1.6460   19.7985 C.3       3 GLC5        0.0000 
     37 CA         19.0490    2.1170   17.7010 C.3       9 GLL5        0.0000 
     38 CA         18.0570    1.7020   21.5760 C.3       6 GLP5        0.0000 
     39 CA         21.3970    4.7453   17.4827 C.3       3 GLC5        0.0000 
     40 CA         19.7990    3.0840   17.0420 C.3       9 GLL5        0.0000 
     41 CA         22.2990    6.4580   17.9400 C.3       6 GLP5        0.0000 
     42 CA         17.1573   -1.0345   17.9902 C.3       3 GLC5        0.0000 
     43 CA         16.7070    1.0870   17.2300 C.3       9 GLL5        0.0000 
     44 CA         14.9745    1.1542   15.5888 C.3       3 GLC5        0.0000 
     45 CA         13.9780    1.1580   13.8660 C.3       6 GLP5        0.0000 
     46 CA         16.8777    5.4768   17.9088 C.3       3 GLC5        0.0000 
     47 CA         16.8860    3.2960   18.4860 C.3       9 GLL5        0.0000 
     48 CA         16.4530    7.0990   17.0350 C.3       6 GLP5        0.0000 
     49 CA         17.2688    2.5745   20.0849 C.3       3 GLC5        0.0000 
     50 CA         14.8199    3.5606   16.6839 C.3       3 GLC5        0.0000 
     51 CA         14.2030    4.3120   15.0760 C.3       6 GLP5        0.0000 
     52 CA         14.3317    0.4197   15.2063 C.3       3 GLC5        0.0000 
     53 CA         16.5023   -1.7620   17.6118 C.3       3 GLC5        0.0000 
     54 CA         14.9640   -0.8630   16.2160 C.3       9 GLL5        0.0000 
     55 CA         15.3778    0.3265   15.0875 C.3       3 GLC5        0.0000 
     56 CA         16.3390   -0.9850   16.0590 C.3       9 GLL5        0.0000 
@<TRIPOS>BOND
@<TRIPOS>SUBSTRUCTURE
     1 ALC1       15 GROUP        1 X    ALC  0     ROOT ALC X 1
     2 SEC2       10 GROUP        1 X    SEC  0     **** SEC X 2
     3 GLC5        1 GROUP        1 X    GLC  0     **** GLC X 6
     4 ALP1       17 GROUP        1 Y    ALP  0     ROOT ALP Y 8
     5 SEP2       12 GROUP        1 Y    SEP  0     **** SEP Y 9
     6 GLP5        3 GROUP        1 Y    GLP  0     **** GLP Y 13
     7 ALL1       16 GROUP        1 Z    ALL  0     ROOT ALL Z 15
     8 SEL2       11 GROUP        1 Z    SEL  0     **** SEL Z 16
     9 GLL5        2 GROUP        1 Z    GLL  0     **** GLL Z 20
@<TRIPOS>SET

