#    Name: 4edy_9PQ_1_ligand
#    Modification time : Tue Mar 25 10:55:34 2014

@<TRIPOS>MOLECULE
4edy_9PQ_1_ligand
   56    59     1     0     0
SMALL
NO_CHARGES


@<TRIPOS>ATOM
      1 O24        24.0240    2.7380   17.2800 O.2       1 9PQ203      0.0000 
      2 C23        23.3300    1.7870   17.6050 C.2       1 9PQ203      0.0000 
      3 N25        23.8550    0.6070   17.9270 N.am      1 9PQ203      0.0000 
      4 C26        25.2470    0.1910   17.9610 C.3       1 9PQ203      0.0000 
      5 C27        25.9300    0.8560   19.1520 C.3       1 9PQ203      0.0000 
      6 N7         27.3860    0.8440   18.9200 N.4       1 9PQ203      0.0000 
      7 C12        27.9410   -0.5070   19.1250 C.3       1 9PQ203      0.0000 
      8 C11        29.4350   -0.4910   18.8250 C.3       1 9PQ203      0.0000 
      9 O10        30.0780    0.4560   19.6770 O.3       1 9PQ203      0.0000 
     10 C9         29.5570    1.7790   19.5390 C.3       1 9PQ203      0.0000 
     11 C8         28.0580    1.7870   19.8280 C.3       1 9PQ203      0.0000 
     12 C16        21.8330    1.9190   17.6420 C.ar      1 9PQ203      0.0000 
     13 C15        21.0750    0.9600   18.3050 C.ar      1 9PQ203      0.0000 
     14 C14        19.6930    1.0630   18.3410 C.ar      1 9PQ203      0.0000 
     15 C17        21.1910    2.9810   17.0090 C.ar      1 9PQ203      0.0000 
     16 C18        19.7990    3.0840   17.0420 C.ar      1 9PQ203      0.0000 
     17 C13        19.0490    2.1170   17.7010 C.ar      1 9PQ203      0.0000 
     18 C19        17.5650    2.1700   17.7910 C.ar      1 9PQ203      0.0000 
     19 C2         16.7070    1.0870   17.2300 C.ar      1 9PQ203      0.0000 
     20 C20        16.8860    3.2960   18.4860 C.ar      1 9PQ203      0.0000 
     21 C28        17.7190    4.4130   19.0790 C.3       1 9PQ203      0.0000 
     22 O29        17.0100    5.0880   20.1170 O.3       1 9PQ203      0.0000 
     23 C21        15.4890    3.3210   18.5790 C.ar      1 9PQ203      0.0000 
     24 C22        14.6860    2.3100   18.0510 C.ar      1 9PQ203      0.0000 
     25 C1         15.2350    1.2140   17.3930 C.ar      1 9PQ203      0.0000 
     26 C6         14.4070    0.2260   16.8770 C.ar      1 9PQ203      0.0000 
     27 C5         14.9640   -0.8630   16.2160 C.ar      1 9PQ203      0.0000 
     28 C4         16.3390   -0.9850   16.0590 C.ar      1 9PQ203      0.0000 
     29 C3         17.2160   -0.0250   16.5590 C.ar      1 9PQ203      0.0000 
     30 H          23.1697   -0.2004   18.2161 H         1 9PQ203      0.0000 
     31 H          25.7708    0.4915   17.0544 H         1 9PQ203      0.0000 
     32 H          25.3334   -0.8888   18.0760 H         1 9PQ203      0.0000 
     33 H          25.6792    0.3019   20.0506 H         1 9PQ203      0.0000 
     34 H          25.5630    1.8733   19.2399 H         1 9PQ203      0.0000 
     35 H          27.5838    1.1500   17.8914 H         1 9PQ203      0.0000 
     36 H          27.4601   -1.2241   18.4610 H         1 9PQ203      0.0000 
     37 H          27.7961   -0.8290   20.1554 H         1 9PQ203      0.0000 
     38 H          29.5627   -0.2384   17.7672 H         1 9PQ203      0.0000 
     39 H          29.8198   -1.5043   18.9802 H         1 9PQ203      0.0000 
     40 H          29.7042    2.1693   18.5234 H         1 9PQ203      0.0000 
     41 H          30.0361    2.4787   20.2364 H         1 9PQ203      0.0000 
     42 H          27.9041    1.4992   20.8663 H         1 9PQ203      0.0000 
     43 H          27.6826    2.7980   19.6814 H         1 9PQ203      0.0000 
     44 H          21.5448    0.1695   18.7713 H         1 9PQ203      0.0000 
     45 H          19.1370    0.3550   18.8448 H         1 9PQ203      0.0000 
     46 H          21.7443    3.6940   16.5142 H         1 9PQ203      0.0000 
     47 H          19.3331    3.8732   16.5797 H         1 9PQ203      0.0000 
     48 H          17.9917    5.1032   18.2625 H         1 9PQ203      0.0000 
     49 H          18.6592    3.9733   19.4532 H         1 9PQ203      0.0000 
     50 H          15.0342    4.1264   19.0614 H         1 9PQ203      0.0000 
     51 H          13.6550    2.3784   18.1522 H         1 9PQ203      0.0000 
     52 H          13.3886    0.2985   16.9826 H         1 9PQ203      0.0000 
     53 H          14.3405   -1.5983   15.8328 H         1 9PQ203      0.0000 
     54 H          16.7232   -1.8095   15.5581 H         1 9PQ203      0.0000 
     55 H          18.2262   -0.1340   16.4354 H         1 9PQ203      0.0000 
     56 H          17.6931    5.6663   20.5631 H         1 9PQ203      0.0000 
@<TRIPOS>BOND
     1    2    1 2    
     2    3    2 am   
     3   12    2 1    
     4    4    3 1    
     5   30    3 1    
     6    5    4 1    
     7   31    4 1    
     8   32    4 1    
     9    6    5 1    
    10   33    5 1    
    11   34    5 1    
    12    7    6 1    
    13   11    6 1    
    14   35    6 1    
    15    8    7 1    
    16   36    7 1    
    17   37    7 1    
    18    9    8 1    
    19   38    8 1    
    20   39    8 1    
    21   10    9 1    
    22   11   10 1    
    23   40   10 1    
    24   41   10 1    
    25   42   11 1    
    26   43   11 1    
    27   13   12 ar   
    28   15   12 ar   
    29   14   13 ar   
    30   44   13 1    
    31   17   14 ar   
    32   45   14 1    
    33   16   15 ar   
    34   46   15 1    
    35   17   16 ar   
    36   47   16 1    
    37   18   17 1    
    38   19   18 ar   
    39   20   18 ar   
    40   25   19 ar   
    41   29   19 ar   
    42   21   20 1    
    43   23   20 ar   
    44   22   21 1    
    45   48   21 1    
    46   49   21 1    
    47   56   22 1    
    48   24   23 ar   
    49   50   23 1    
    50   25   24 ar   
    51   51   24 1    
    52   26   25 ar   
    53   27   26 ar   
    54   52   26 1    
    55   28   27 ar   
    56   53   27 1    
    57   29   28 ar   
    58   54   28 1    
    59   55   29 1    
@<TRIPOS>SUBSTRUCTURE
     1 9PQ203      1 GROUP   
@<TRIPOS>SET

