#    Name: 4m6l_21V_1_INTS_M
#    Modification time : Tue Mar 25 11:52:31 2014

@<TRIPOS>MOLECULE
4m6l_21V_1_INTS_M
   64     0    12     0     0
SMALL
NO_CHARGES


@<TRIPOS>ATOM
      1 CA         16.1270    2.5105  -25.7730 C.3       4 GLC5        0.0000 
      2 CA         16.1900    2.6920  -23.9330 C.3      12 GLL5        0.0000 
      3 CA         16.0640    2.3290  -27.6130 C.3       8 GLP5        0.0000 
      4 CA         18.1545    1.6830  -23.5225 C.3       4 GLC5        0.0000 
      5 CA         20.1190    0.6740  -23.1120 C.3       8 GLP5        0.0000 
      6 CA         17.3535    3.6035  -19.8880 C.3       4 GLC5        0.0000 
      7 CA         16.3370    3.3170  -21.4720 C.3      12 GLL5        0.0000 
      8 CA         18.3700    3.8900  -18.3040 C.3       8 GLP5        0.0000 
      9 NZ         17.0485    0.5825  -19.6005 N.4       3 LYC4        0.0000 
     10 NZ         17.5110    1.2820  -21.0730 N.4      11 LYL4        0.0000 
     11 NZ         17.7880   -0.6740  -18.1470 N.4       7 LYP4        0.0000 
     12 N          18.0270    0.3735  -20.1550 N.am      2 SEC2        0.0000 
     13 N          17.5110    1.2820  -21.0730 N.am     10 SEL2        0.0000 
     14 N          18.5430   -0.5350  -19.2370 N.am      6 SEP2        0.0000 
     15 N          17.0485    0.5825  -19.6005 N.am      2 SEC2        0.0000 
     16 N          16.5860   -0.1170  -18.1280 N.am      6 SEP2        0.0000 
     17 NZ         15.4380    1.4260  -20.3330 N.4      11 LYL4        0.0000 
     18 N          16.0120    0.6545  -19.2305 N.am      2 SEC2        0.0000 
     19 N          15.4380    1.4260  -20.3330 N.am     10 SEL2        0.0000 
     20 N          15.4840    6.1600  -21.4545 N.am      2 SEC2        0.0000 
     21 N          17.0400    6.0420  -21.7710 N.am     10 SEL2        0.0000 
     22 N          13.9280    6.2780  -21.1380 N.am      6 SEP2        0.0000 
     23 CA         18.3725    8.4450  -22.1925 C.3       4 GLC5        0.0000 
     24 CA         19.6800    6.7850  -22.7100 C.3      12 GLL5        0.0000 
     25 CA         17.0650   10.1050  -21.6750 C.3       8 GLP5        0.0000 
     26 CA         24.7310    7.1225  -21.3795 C.3       4 GLC5        0.0000 
     27 CA         23.4790    6.5590  -22.5970 C.3      12 GLL5        0.0000 
     28 CA         25.9830    7.6860  -20.1620 C.3       8 GLP5        0.0000 
     29 CA         25.5445    6.6785  -23.2120 C.3       4 GLC5        0.0000 
     30 CA         27.6100    6.7980  -23.8270 C.3       8 GLP5        0.0000 
     31 CA         25.6100    3.3500  -22.3615 C.3       4 GLC5        0.0000 
     32 CA         25.1510    4.1880  -24.2760 C.3      12 GLL5        0.0000 
     33 CA         26.0690    2.5120  -20.4470 C.3       8 GLP5        0.0000 
     34 O          26.3890    1.9090  -24.7715 O.2       1 ALC1        0.0000 
     35 O          25.2000    2.8940  -24.9470 O.2       9 ALL1        0.0000 
     36 O          27.5780    0.9240  -24.5960 O.2       5 ALP1        0.0000 
     37 CA         23.3100    6.5070  -26.9475 C.3       4 GLC5        0.0000 
     38 CA         23.1710    4.8340  -25.7060 C.3      12 GLL5        0.0000 
     39 CA         23.4490    8.1800  -28.1890 C.3       8 GLP5        0.0000 
     40 CA         25.1120    5.7040  -25.9345 C.3       4 GLC5        0.0000 
     41 CA         27.0530    6.5740  -26.1630 C.3       8 GLP5        0.0000 
     42 CA         26.0740    1.9895  -26.6295 C.3       4 GLC5        0.0000 
     43 CA         24.3330    2.5840  -25.9220 C.3      12 GLL5        0.0000 
     44 CA         27.8150    1.3950  -27.3370 C.3       8 GLP5        0.0000 
     45 N          21.8050    1.7895  -28.9810 N.am      2 SEC2        0.0000 
     46 N          22.6370    1.9530  -27.9440 N.am     10 SEL2        0.0000 
     47 N          20.9730    1.6260  -30.0180 N.am      6 SEP2        0.0000 
     48 O          22.8550   -0.1905  -29.2895 O.2       1 ALC1        0.0000 
     49 O          23.6900   -0.1110  -28.1670 O.2       9 ALL1        0.0000 
     50 O          22.0200   -0.2700  -30.4120 O.2       5 ALP1        0.0000 
     51 O          24.6300   -1.3350  -28.6580 O.2       1 ALC1        0.0000 
     52 O          25.5700   -2.5590  -29.1490 O.2       5 ALP1        0.0000 
     53 CA         20.1668    7.0817  -20.7660 C.3       4 GLC5        0.0000 
     54 CA         19.3310    5.5780  -22.0840 C.3      12 GLL5        0.0000 
     55 CA         20.8280    7.9820  -19.1350 C.3       8 GLP5        0.0000 
     56 CA         19.0968    4.5175  -20.0825 C.3       4 GLC5        0.0000 
     57 CA         21.1717    7.3288  -20.8978 C.3       4 GLC5        0.0000 
     58 CA         22.0090    6.2370  -22.4420 C.3      12 GLL5        0.0000 
     59 CA         20.9055    6.4307  -20.4310 C.3       4 GLC5        0.0000 
     60 CA         21.6500    5.0470  -21.8160 C.3      12 GLL5        0.0000 
     61 CA         23.6515    2.7540  -23.5690 C.3       4 GLC5        0.0000 
     62 CA         22.8400    0.9930  -22.8380 C.3       8 GLP5        0.0000 
     63 CA         25.9454    5.4420  -24.5859 C.3       4 GLC5        0.0000 
     64 CA         27.3890    5.9990  -24.9480 C.3       8 GLP5        0.0000 
@<TRIPOS>BOND
@<TRIPOS>SUBSTRUCTURE
     1 ALC1       34 GROUP        1 X    ALC  0     ROOT ALC X 1
     2 SEC2       12 GROUP        1 X    SEC  0     **** SEC X 2
     3 LYC4        9 GROUP        1 X    LYC  0     **** LYC X 4
     4 GLC5        1 GROUP        1 X    GLC  0     **** GLC X 6
     5 ALP1       36 GROUP        1 Y    ALP  0     ROOT ALP Y 8
     6 SEP2       14 GROUP        1 Y    SEP  0     **** SEP Y 9
     7 LYP4       11 GROUP        1 Y    LYP  0     **** LYP Y 11
     8 GLP5        3 GROUP        1 Y    GLP  0     **** GLP Y 13
     9 ALL1       35 GROUP        1 Z    ALL  0     ROOT ALL Z 15
    10 SEL2       13 GROUP        1 Z    SEL  0     **** SEL Z 16
    11 LYL4       10 GROUP        1 Z    LYL  0     **** LYL Z 18
    12 GLL5        2 GROUP        1 Z    GLL  0     **** GLL Z 20
@<TRIPOS>SET

