#    Name: 4m6l_21V_1_ligand
#    Modification time : Tue Mar 25 11:52:31 2014

@<TRIPOS>MOLECULE
4m6l_21V_1_ligand
   55    57     1     0     0
SMALL
NO_CHARGES


@<TRIPOS>ATOM
      1 OE2        16.8710    4.8470  -24.7030 O.co2     1 21V201      0.0000 
      2 CD         17.1920    3.6460  -24.5530 C.2       1 21V201      0.0000 
      3 OE1        18.3130    3.2050  -24.8980 O.co2     1 21V201      0.0000 
      4 CG         16.1900    2.6920  -23.9330 C.3       1 21V201      0.0000 
      5 CB         15.4800    3.3220  -22.7370 C.3       1 21V201      0.0000 
      6 CA         16.3370    3.3170  -21.4720 C.3       1 21V201      0.0000 
      7 CT         16.4360    1.9150  -20.9190 C.2       1 21V201      0.0000 
      8 O1         17.5110    1.2820  -21.0730 O.co2     1 21V201      0.0000 
      9 O2         15.4380    1.4260  -20.3330 O.co2     1 21V201      0.0000 
     10 N          17.6530    3.8810  -21.7210 N.am      1 21V201      0.0000 
     11 C          17.9070    5.1810  -21.8540 C.2       1 21V201      0.0000 
     12 O          17.0400    6.0420  -21.7710 O.2       1 21V201      0.0000 
     13 C11        19.3310    5.5780  -22.0840 C.ar      1 21V201      0.0000 
     14 C12        19.6800    6.7850  -22.7100 C.ar      1 21V201      0.0000 
     15 C13        21.0220    7.1140  -22.8790 C.ar      1 21V201      0.0000 
     16 C16        20.3160    4.7120  -21.6380 C.ar      1 21V201      0.0000 
     17 C15        21.6500    5.0470  -21.8160 C.ar      1 21V201      0.0000 
     18 C14        22.0090    6.2370  -22.4420 C.ar      1 21V201      0.0000 
     19 C10        23.4790    6.5590  -22.5970 C.3       1 21V201      0.0000 
     20 C9         23.9300    6.3220  -24.0190 C.3       1 21V201      0.0000 
     21 C6         23.7750    4.8420  -24.3240 C.3       1 21V201      0.0000 
     22 C7         25.1510    4.1880  -24.2760 C.3       1 21V201      0.0000 
     23 N8         25.2000    2.8940  -24.9470 N.pl3     1 21V201      0.0000 
     24 C5         23.1710    4.8340  -25.7060 C.3       1 21V201      0.0000 
     25 C4A        23.3490    3.4830  -26.3360 C.2       1 21V201      0.0000 
     26 C4         22.4940    3.1580  -27.3480 C.2       1 21V201      0.0000 
     27 O4         21.5980    3.9790  -27.7150 O.2       1 21V201      0.0000 
     28 C8A        24.3330    2.5840  -25.9220 C.2       1 21V201      0.0000 
     29 N1         24.4500    1.3870  -26.5570 N.pl3     1 21V201      0.0000 
     30 C2         23.6010    1.0890  -27.5570 C.2       1 21V201      0.0000 
     31 N3         22.6370    1.9530  -27.9440 N.2       1 21V201      0.0000 
     32 NA2        23.6900   -0.1110  -28.1670 N.pl3     1 21V201      0.0000 
     33 H          16.7056    1.7855  -23.6043 H         1 21V201      0.0000 
     34 H          15.4447    2.4097  -24.6816 H         1 21V201      0.0000 
     35 H          14.5505    2.7731  -22.5417 H         1 21V201      0.0000 
     36 H          15.2116    4.3567  -22.9834 H         1 21V201      0.0000 
     37 H          15.8094    3.9292  -20.7254 H         1 21V201      0.0000 
     38 H          18.4350    3.1659  -21.7941 H         1 21V201      0.0000 
     39 H          18.9453    7.4184  -23.0397 H         1 21V201      0.0000 
     40 H          21.2818    8.0014  -23.3249 H         1 21V201      0.0000 
     41 H          20.0616    3.8301  -21.1798 H         1 21V201      0.0000 
     42 H          22.3890    4.4058  -21.4800 H         1 21V201      0.0000 
     43 H          24.0607    5.9290  -21.9214 H         1 21V201      0.0000 
     44 H          23.6507    7.6036  -22.3305 H         1 21V201      0.0000 
     45 H          24.9674    6.6046  -24.1258 H         1 21V201      0.0000 
     46 H          23.3158    6.8955  -24.6981 H         1 21V201      0.0000 
     47 H          23.1181    4.4153  -23.6305 H         1 21V201      0.0000 
     48 H          25.4434    4.0858  -23.2122 H         1 21V201      0.0000 
     49 H          25.8784    4.8895  -24.7304 H         1 21V201      0.0000 
     50 H          25.9352    2.2388  -24.6286 H         1 21V201      0.0000 
     51 H          23.6594    5.5920  -26.3189 H         1 21V201      0.0000 
     52 H          22.1088    5.0703  -25.6382 H         1 21V201      0.0000 
     53 H          25.1859    0.7178  -26.2692 H         1 21V201      0.0000 
     54 H          24.4162   -0.7169  -27.8422 H         1 21V201      0.0000 
     55 H          23.0218   -0.2879  -28.8897 H         1 21V201      0.0000 
@<TRIPOS>BOND
     1    2    1 ar   
     2    3    2 ar   
     3    4    2 1    
     4    5    4 1    
     5   33    4 1    
     6   34    4 1    
     7    6    5 1    
     8   35    5 1    
     9   36    5 1    
    10    7    6 1    
    11   10    6 1    
    12   37    6 1    
    13    8    7 ar   
    14    9    7 ar   
    15   11   10 am   
    16   38   10 1    
    17   12   11 2    
    18   13   11 1    
    19   14   13 ar   
    20   16   13 ar   
    21   15   14 ar   
    22   39   14 1    
    23   18   15 ar   
    24   40   15 1    
    25   17   16 ar   
    26   41   16 1    
    27   18   17 ar   
    28   42   17 1    
    29   19   18 1    
    30   20   19 1    
    31   43   19 1    
    32   44   19 1    
    33   21   20 1    
    34   45   20 1    
    35   46   20 1    
    36   22   21 1    
    37   24   21 1    
    38   47   21 1    
    39   23   22 1    
    40   48   22 1    
    41   49   22 1    
    42   28   23 1    
    43   50   23 1    
    44   25   24 1    
    45   51   24 1    
    46   52   24 1    
    47   26   25 1    
    48   28   25 2    
    49   27   26 2    
    50   31   26 1    
    51   29   28 1    
    52   30   29 1    
    53   53   29 1    
    54   31   30 2    
    55   32   30 1    
    56   54   32 1    
    57   55   32 1    
@<TRIPOS>SUBSTRUCTURE
     1 21V201      1 GROUP   
@<TRIPOS>SET

