#    Name: 2in6_839_1_INTS_M
#    Modification time : Tue Mar 25 18:23:05 2014

@<TRIPOS>MOLECULE
2in6_839_1_INTS_M
   53     0     9     0     0
SMALL
NO_CHARGES


@<TRIPOS>ATOM
      1 CA          2.4180   55.4435   23.0305 C.3       3 GLC5        0.0000 
      2 CA          1.9810   53.2790   23.1300 C.3       9 GLL5        0.0000 
      3 CA          2.8550   57.6080   22.9310 C.3       6 GLP5        0.0000 
      4 CA          0.5080   54.2200   22.4600 C.3       3 GLC5        0.0000 
      5 CA         -0.9650   55.1610   21.7900 C.3       6 GLP5        0.0000 
      6 CA          3.8835   55.9125   21.6005 C.3       3 GLC5        0.0000 
      7 CA          4.7340   54.2330   21.8210 C.3       9 GLL5        0.0000 
      8 CA          3.0330   57.5920   21.3800 C.3       6 GLP5        0.0000 
      9 O           9.1025   55.4210   23.0125 O.2       1 ALC1        0.0000 
     10 O           8.1720   55.4220   22.0740 O.2       7 ALL1        0.0000 
     11 O          10.0330   55.4200   23.9510 O.2       4 ALP1        0.0000 
     12 N           8.6075   55.7140   26.7965 N.am      2 SEC2        0.0000 
     13 N           7.3190   55.2830   26.8830 N.am      8 SEL2        0.0000 
     14 N           9.8960   56.1450   26.7100 N.am      5 SEP2        0.0000 
     15 N           3.8010   54.6715   31.6770 N.am      2 SEC2        0.0000 
     16 N           4.4460   54.2920   30.2410 N.am      8 SEL2        0.0000 
     17 N           3.1560   55.0510   33.1130 N.am      5 SEP2        0.0000 
     18 O           7.0680   55.7280   29.4145 O.2       1 ALC1        0.0000 
     19 O           6.2140   54.9020   28.8470 O.2       7 ALL1        0.0000 
     20 O           7.9220   56.5540   29.9820 O.2       4 ALP1        0.0000 
     21 CA          0.8885   50.3195   29.2835 C.3       3 GLC5        0.0000 
     22 CA          1.0060   52.1810   28.6110 C.3       9 GLL5        0.0000 
     23 CA          0.7710   48.4580   29.9560 C.3       6 GLP5        0.0000 
     24 CA         -0.3565   55.5270   32.0830 C.3       3 GLC5        0.0000 
     25 CA          0.4830   54.2630   30.5160 C.3       9 GLL5        0.0000 
     26 CA         -1.1960   56.7910   33.6500 C.3       6 GLP5        0.0000 
     27 CA          3.6378   51.7550   24.1762 C.3       3 GLC5        0.0000 
     28 CA          5.1260   50.9670   25.3370 C.3       6 GLP5        0.0000 
     29 CA          4.0838   55.8867   24.4692 C.3       3 GLC5        0.0000 
     30 CA          3.2910   53.8190   25.1500 C.3       9 GLL5        0.0000 
     31 CA          4.1910   57.7220   23.6500 C.3       6 GLP5        0.0000 
     32 CA          2.0473   55.4202   26.0137 C.3       3 GLC5        0.0000 
     33 CA          1.2440   57.1780   26.3670 C.3       6 GLP5        0.0000 
     34 CA          7.7200   53.6050   21.4793 C.3       3 GLC5        0.0000 
     35 CA          6.9390   55.0170   22.4930 C.3       9 GLL5        0.0000 
     36 CA          8.9640   52.3560   20.9530 C.3       6 GLP5        0.0000 
     37 CA          4.7063   56.2010   27.6827 C.3       3 GLC5        0.0000 
     38 CA          5.0580   54.4710   26.8320 C.3       9 GLL5        0.0000 
     39 CA          4.8230   58.0920   28.0090 C.3       6 GLP5        0.0000 
     40 CA          2.3453   55.5520   27.0330 C.3       3 GLC5        0.0000 
     41 CA          4.1210   54.1490   27.8810 C.3       9 GLL5        0.0000 
     42 CA          0.3862   54.8315   27.6707 C.3       3 GLC5        0.0000 
     43 CA          1.7750   53.4180   28.5400 C.3       9 GLL5        0.0000 
     44 CA         -0.8360   55.7060   26.3080 C.3       6 GLP5        0.0000 
     45 CA         -1.7430   53.6762   30.0912 C.3       3 GLC5        0.0000 
     46 CA         -0.1980   53.0880   30.5890 C.3       9 GLL5        0.0000 
     47 CA         -3.3820   54.7730   30.0310 C.3       6 GLP5        0.0000 
     48 CA          0.6190   50.8337   30.6953 C.3       3 GLC5        0.0000 
     49 CA          1.3420   49.0880   31.2390 C.3       6 GLP5        0.0000 
     50 CA         -0.4577   55.6642   29.9693 C.3       3 GLC5        0.0000 
     51 CA         -1.8780   56.9490   29.9170 C.3       6 GLP5        0.0000 
     52 CA          5.1504   56.2252   23.2716 C.3       3 GLC5        0.0000 
     53 CA          6.6400   54.8930   23.8900 C.3       9 GLL5        0.0000 
@<TRIPOS>BOND
@<TRIPOS>SUBSTRUCTURE
     1 ALC1        9 GROUP        1 X    ALC  0     ROOT ALC X 1
     2 SEC2       12 GROUP        1 X    SEC  0     **** SEC X 2
     3 GLC5        1 GROUP        1 X    GLC  0     **** GLC X 6
     4 ALP1       11 GROUP        1 Y    ALP  0     ROOT ALP Y 8
     5 SEP2       14 GROUP        1 Y    SEP  0     **** SEP Y 9
     6 GLP5        3 GROUP        1 Y    GLP  0     **** GLP Y 13
     7 ALL1       10 GROUP        1 Z    ALL  0     ROOT ALL Z 15
     8 SEL2       13 GROUP        1 Z    SEL  0     **** SEL Z 16
     9 GLL5        2 GROUP        1 Z    GLL  0     **** GLL Z 20
@<TRIPOS>SET

