#    Name: 2in6_839_1_ligand
#    Modification time : Tue Mar 25 18:23:05 2014

@<TRIPOS>MOLECULE
2in6_839_1_ligand
   45    49     1     0     0
SMALL
NO_CHARGES


@<TRIPOS>ATOM
      1 O5          0.1660   51.5710   21.8920 O.co2     1 839901      0.0000 
      2 C23         1.1450   50.9840   22.4020 C.2       1 839901      0.0000 
      3 O4          1.1950   49.7360   22.5440 O.co2     1 839901      0.0000 
      4 C21         2.3180   51.8070   22.9010 C.3       1 839901      0.0000 
      5 C22         1.9810   53.2790   23.1300 C.3       1 839901      0.0000 
      6 N2          3.2100   53.7550   23.7970 N.pl3     1 839901      0.0000 
      7 C14         3.2910   53.8190   25.1500 C.ar      1 839901      0.0000 
      8 C16         4.3750   54.1400   23.1870 C.ar      1 839901      0.0000 
      9 C18         4.7340   54.2330   21.8210 C.ar      1 839901      0.0000 
     10 C20         6.0130   54.6910   21.5180 C.ar      1 839901      0.0000 
     11 C19         6.9390   55.0170   22.4930 C.ar      1 839901      0.0000 
     12 O3          8.1720   55.4220   22.0740 O.3       1 839901      0.0000 
     13 C17         6.6400   54.8930   23.8900 C.ar      1 839901      0.0000 
     14 C15         5.3200   54.4850   24.1570 C.ar      1 839901      0.0000 
     15 C13         4.6620   54.2840   25.4270 C.ar      1 839901      0.0000 
     16 C4          5.0580   54.4710   26.8320 C.ar      1 839901      0.0000 
     17 C5          6.3030   54.8780   27.4710 C.2       1 839901      0.0000 
     18 O1          7.3190   55.2830   26.8830 O.2       1 839901      0.0000 
     19 C3          4.1210   54.1490   27.8810 C.ar      1 839901      0.0000 
     20 C6          4.9330   54.4620   29.0830 C.2       1 839901      0.0000 
     21 O2          4.4460   54.2920   30.2410 O.2       1 839901      0.0000 
     22 N1          6.2140   54.9020   28.8470 N.am      1 839901      0.0000 
     23 C2          2.7720   53.7030   27.5170 C.ar      1 839901      0.0000 
     24 C1          2.4100   53.5060   26.1710 C.ar      1 839901      0.0000 
     25 C7          1.7750   53.4180   28.5400 C.ar      1 839901      0.0000 
     26 C12         1.0060   52.1810   28.6110 C.ar      1 839901      0.0000 
     27 C11        -0.0100   52.0710   29.7140 C.ar      1 839901      0.0000 
     28 C10        -0.1980   53.0880   30.5890 C.ar      1 839901      0.0000 
     29 C9          0.4830   54.2630   30.5160 C.ar      1 839901      0.0000 
     30 C8          1.4420   54.4960   29.5270 C.ar      1 839901      0.0000 
     31 H           3.1429   51.7407   22.1729 H         1 839901      0.0000 
     32 H           2.6870   51.3760   23.8460 H         1 839901      0.0000 
     33 H           1.1451   53.3479   23.7728 H         1 839901      0.0000 
     34 H           1.8440   53.7532   22.1957 H         1 839901      0.0000 
     35 H           4.0783   53.9739   21.1009 H         1 839901      0.0000 
     36 H           6.2819   54.7917   20.5104 H         1 839901      0.0000 
     37 H           7.3017   55.0780   24.5826 H         1 839901      0.0000 
     38 H           6.8571   55.1521   29.4565 H         1 839901      0.0000 
     39 H           1.4770   53.1243   25.9540 H         1 839901      0.0000 
     40 H           1.1294   51.4454   27.9812 H         1 839901      0.0000 
     41 H          -0.5329   51.1917   29.7496 H         1 839901      0.0000 
     42 H          -0.9076   52.9646   31.3666 H         1 839901      0.0000 
     43 H           0.2958   55.0208   31.2098 H         1 839901      0.0000 
     44 H           1.9344   55.3728   29.4397 H         1 839901      0.0000 
     45 H           8.7532   55.3633   22.8856 H         1 839901      0.0000 
@<TRIPOS>BOND
     1    2    1 ar   
     2    3    2 ar   
     3    4    2 1    
     4    5    4 1    
     5   31    4 1    
     6   32    4 1    
     7    6    5 1    
     8   33    5 1    
     9   34    5 1    
    10    7    6 1    
    11    8    6 1    
    12   15    7 ar   
    13   24    7 ar   
    14    9    8 ar   
    15   14    8 ar   
    16   10    9 ar   
    17   35    9 1    
    18   11   10 ar   
    19   36   10 1    
    20   12   11 1    
    21   13   11 ar   
    22   45   12 1    
    23   14   13 ar   
    24   37   13 1    
    25   15   14 1    
    26   16   15 ar   
    27   17   16 1    
    28   19   16 ar   
    29   18   17 2    
    30   22   17 am   
    31   20   19 1    
    32   23   19 ar   
    33   21   20 2    
    34   22   20 am   
    35   38   22 1    
    36   24   23 ar   
    37   25   23 1    
    38   39   24 1    
    39   26   25 ar   
    40   30   25 ar   
    41   27   26 ar   
    42   40   26 1    
    43   28   27 ar   
    44   41   27 1    
    45   29   28 ar   
    46   42   28 1    
    47   30   29 ar   
    48   43   29 1    
    49   44   30 1    
@<TRIPOS>SUBSTRUCTURE
     1 839901      1 GROUP   
@<TRIPOS>SET

