#    Name: 2IY5_1_CAVITY_N1_6.mol2
#    Modification time : Mon Mar 10 20:30:37 2014

@<TRIPOS>MOLECULE
2IY5_1_CAVITY_N1_6.mol2
  133     0     7     0     0
SMALL
NO_CHARGES


@<TRIPOS>ATOM
      1 CZ         22.2784   64.7289   16.8541 C.ar      5 PHE5        0.0000 
      2 CZ         22.2252   63.9216   18.1172 C.ar      5 PHE5        0.0000 
      3 O          20.8542   64.3617   16.5594 O.2       2 ALA2        0.0000 
      4 OG         20.8010   63.5544   17.8225 O.2       1 SER1        0.0000 
      5 N          19.4300   63.9945   16.2647 N.2       2 ALA2        0.0000 
      6 DU         19.3768   63.1872   17.5278 H         7 CUB7        0.0000 
      7 CA         19.3236   62.3799   18.7908 C.3       6 GLY6        0.0000 
      8 N          18.0059   63.6273   15.9700 N.2       2 ALA2        0.0000 
      9 N          17.9527   62.8200   17.2331 N.2       2 ALA2        0.0000 
     10 N          17.8994   62.0127   18.4961 N.2       2 ALA2        0.0000 
     11 N          16.5817   63.2602   15.6753 N.2       2 ALA2        0.0000 
     12 N          16.5285   62.4528   16.9384 N.2       2 ALA2        0.0000 
     13 CZ         23.2348   66.3058   17.9023 C.ar      5 PHE5        0.0000 
     14 CZ         21.8106   65.9386   17.6076 C.ar      5 PHE5        0.0000 
     15 CZ         20.3864   65.5714   17.3129 C.ar      5 PHE5        0.0000 
     16 CZ         20.3332   64.7641   18.5760 C.ar      5 PHE5        0.0000 
     17 CZ         18.9622   65.2042   17.0182 C.ar      5 PHE5        0.0000 
     18 CZ         18.9090   64.3969   18.2813 C.ar      5 PHE5        0.0000 
     19 CZ         18.8558   63.5895   19.5444 C.ar      5 PHE5        0.0000 
     20 CZ         17.5380   64.8370   16.7235 C.ar      5 PHE5        0.0000 
     21 CZ         17.4848   64.0297   17.9866 C.ar      5 PHE5        0.0000 
     22 O          17.4316   63.2223   19.2497 O.2       2 ALA2        0.0000 
     23 O          16.1139   64.4698   16.4288 O.2       2 ALA2        0.0000 
     24 DU         16.0606   63.6625   17.6919 H         7 CUB7        0.0000 
     25 O          16.0074   62.8552   18.9550 O.2       2 ALA2        0.0000 
     26 CA         14.7961   65.7173   13.6080 C.3       6 GLY6        0.0000 
     27 CA         14.7429   64.9100   14.8710 C.3       6 GLY6        0.0000 
     28 DU         14.6897   64.1026   16.1341 H         7 CUB7        0.0000 
     29 O          14.6365   63.2953   17.3972 O.2       2 ALA2        0.0000 
     30 O          13.4251   66.1575   12.0502 O.2       2 ALA2        0.0000 
     31 N          13.3719   65.3501   13.3133 N.2       2 ALA2        0.0000 
     32 DU         13.3187   64.5428   14.5763 H         7 CUB7        0.0000 
     33 DU         13.2655   63.7354   15.8394 H         7 CUB7        0.0000 
     34 O          13.2123   62.9281   17.1025 O.2       2 ALA2        0.0000 
     35 N          11.9477   64.9829   13.0186 N.2       2 ALA2        0.0000 
     36 O          11.8945   64.1756   14.2816 O.2       2 ALA2        0.0000 
     37 O          11.8413   63.3682   15.5447 O.2       2 ALA2        0.0000 
     38 O          11.7881   62.5609   16.8078 O.2       2 ALA2        0.0000 
     39 O          11.7349   61.7536   18.0709 O.2       2 ALA2        0.0000 
     40 O          10.3639   62.1937   16.5131 O.2       2 ALA2        0.0000 
     41 O          10.3107   61.3864   17.7762 O.2       2 ALA2        0.0000 
     42 O          10.2575   60.5790   19.0392 O.2       2 ALA2        0.0000 
     43 O           8.8865   61.0192   17.4815 O.2       2 ALA2        0.0000 
     44 NZ          8.8333   60.2118   18.7445 N.2       4 LYS4        0.0000 
     45 O          18.4205   61.6103   16.4796 O.2       2 ALA2        0.0000 
     46 N          16.9963   61.2431   16.1848 N.2       2 ALA2        0.0000 
     47 O          15.6253   61.6833   14.6271 O.2       2 ALA2        0.0000 
     48 N          15.5721   60.8759   15.8901 N.2       2 ALA2        0.0000 
     49 O          14.2011   61.3161   14.3324 O.2       2 ALA2        0.0000 
     50 N          14.1479   60.5087   15.5954 N.2       2 ALA2        0.0000 
     51 N          12.8301   61.7562   12.7746 N.2       2 ALA2        0.0000 
     52 CA         12.7769   60.9489   14.0377 C.3       6 GLY6        0.0000 
     53 CA         12.7237   60.1415   15.3007 C.3       6 GLY6        0.0000 
     54 CZ         12.6705   59.3342   16.5638 C.ar      5 PHE5        0.0000 
     55 CA         11.4059   61.3890   12.4799 C.3       6 GLY6        0.0000 
     56 CA         11.3527   60.5817   13.7430 C.3       6 GLY6        0.0000 
     57 O          11.2995   59.7743   15.0060 O.2       2 ALA2        0.0000 
     58 CZ         11.2463   58.9670   16.2691 C.ar      5 PHE5        0.0000 
     59 O           9.8753   59.4071   14.7113 O.2       2 ALA2        0.0000 
     60 O           9.8221   58.5998   15.9744 O.2       2 ALA2        0.0000 
     61 CZ          9.7689   57.7924   17.2375 C.ar      5 PHE5        0.0000 
     62 CA          8.3979   58.2326   15.6797 C.3       6 GLY6        0.0000 
     63 O           8.3447   57.4252   16.9428 O.2       2 ALA2        0.0000 
     64 CZ         13.1383   58.1245   15.8103 C.ar      5 PHE5        0.0000 
     65 CA         11.8205   59.3720   12.9894 C.3       6 GLY6        0.0000 
     66 CA         11.7673   58.5646   14.2525 C.3       6 GLY6        0.0000 
     67 CZ         11.7141   57.7573   15.5156 C.ar      5 PHE5        0.0000 
     68 CA         10.3431   58.1974   13.9578 C.3       6 GLY6        0.0000 
     69 CZ         10.2899   57.3901   15.2209 C.ar      5 PHE5        0.0000 
     70 CA          8.9190   57.8302   13.6631 C.3       6 GLY6        0.0000 
     71 CA          8.8658   57.0229   14.9262 C.3       6 GLY6        0.0000 
     72 NZ         10.8110   56.9877   13.2043 N.2       4 LYS4        0.0000 
     73 CA         15.2107   63.7003   14.1175 C.3       6 GLY6        0.0000 
     74 N          15.1575   62.8930   15.3806 N.2       2 ALA2        0.0000 
     75 N          15.1043   62.0856   16.6437 N.2       2 ALA2        0.0000 
     76 N          13.7865   63.3331   13.8228 N.2       2 ALA2        0.0000 
     77 DU         13.7333   62.5258   15.0859 H         7 CUB7        0.0000 
     78 N          13.6801   61.7184   16.3490 N.2       2 ALA2        0.0000 
     79 N          13.6269   60.9111   17.6120 N.2       2 ALA2        0.0000 
     80 N          12.4155   63.7732   12.2650 N.2       2 ALA2        0.0000 
     81 N          12.3623   62.9659   13.5281 N.2       2 ALA2        0.0000 
     82 O          12.3091   62.1586   14.7912 O.2       2 ALA2        0.0000 
     83 DU         12.2559   61.3512   16.0543 H         7 CUB7        0.0000 
     84 O          12.2027   60.5439   17.3173 O.2       2 ALA2        0.0000 
     85 O          10.8849   61.7914   14.4965 O.2       2 ALA2        0.0000 
     86 OD1        10.8317   60.9840   15.7596 O.3       3 ASP3        0.0000 
     87 CZ         10.7785   60.1767   17.0226 C.ar      5 PHE5        0.0000 
     88 CZ         10.7253   59.3693   18.2857 C.ar      5 PHE5        0.0000 
     89 O           9.3543   59.8095   16.7279 O.2       2 ALA2        0.0000 
     90 NZ          9.3011   59.0021   17.9910 N.2       4 LYS4        0.0000 
     91 O           7.9301   59.4423   16.4332 O.2       2 ALA2        0.0000 
     92 O           7.8769   58.6349   17.6963 O.2       2 ALA2        0.0000 
     93 N          15.7524   67.2942   14.6562 N.2       2 ALA2        0.0000 
     94 CZ         15.6992   66.4869   15.9193 C.ar      5 PHE5        0.0000 
     95 CZ         15.6460   65.6795   17.1823 C.ar      5 PHE5        0.0000 
     96 CA         15.5928   64.8722   18.4454 C.3       6 GLY6        0.0000 
     97 N          14.3815   67.7344   13.0984 N.2       2 ALA2        0.0000 
     98 N          14.3283   66.9270   14.3615 N.2       2 ALA2        0.0000 
     99 DU         14.2750   66.1197   15.6246 H         7 CUB7        0.0000 
    100 DU         14.2218   65.3123   16.8876 H         7 CUB7        0.0000 
    101 CA         14.1686   64.5050   18.1507 C.3       6 GLY6        0.0000 
    102 O          14.1154   63.6976   19.4138 O.2       2 ALA2        0.0000 
    103 CA         12.9573   67.3672   12.8037 C.3       6 GLY6        0.0000 
    104 DU         12.9041   66.5598   14.0668 H         7 CUB7        0.0000 
    105 O          12.7444   64.1378   17.8560 O.2       2 ALA2        0.0000 
    106 CA         11.5331   67.0000   12.5090 C.3       6 GLY6        0.0000 
    107 DU         11.4799   66.1926   13.7721 H         7 CUB7        0.0000 
    108 O          11.4267   65.3853   15.0351 O.2       2 ALA2        0.0000 
    109 DU         11.3735   64.5779   16.2982 H         7 CUB7        0.0000 
    110 DU         11.3203   63.7706   17.5613 H         7 CUB7        0.0000 
    111 O          11.2671   62.9632   18.8244 O.2       2 ALA2        0.0000 
    112 O           9.8961   63.4034   17.2666 O.2       2 ALA2        0.0000 
    113 O           9.8429   62.5961   18.5297 O.2       2 ALA2        0.0000 
    114 O           9.7897   61.7887   19.7928 O.2       2 ALA2        0.0000 
    115 O           8.4187   62.2289   18.2350 O.2       2 ALA2        0.0000 
    116 NZ          8.3655   61.4215   19.4981 N.2       4 LYS4        0.0000 
    117 CA         15.2846   68.5039   15.4097 C.3       6 GLY6        0.0000 
    118 CZ         15.2314   67.6966   16.6728 C.ar      5 PHE5        0.0000 
    119 CZ         15.1782   66.8892   17.9358 C.ar      5 PHE5        0.0000 
    120 CA         13.9136   68.9441   13.8519 C.3       6 GLY6        0.0000 
    121 CA         13.8604   68.1367   15.1150 C.3       6 GLY6        0.0000 
    122 DU         13.8072   67.3294   16.3781 H         7 CUB7        0.0000 
    123 CA         13.7540   66.5220   17.6411 C.3       6 GLY6        0.0000 
    124 N          12.4895   68.5769   13.5572 N.2       2 ALA2        0.0000 
    125 DU         12.4362   67.7695   14.8203 H         7 CUB7        0.0000 
    126 DU         12.3298   66.1548   17.3464 H         7 CUB7        0.0000 
    127 CA         12.2766   65.3475   18.6095 C.3       6 GLY6        0.0000 
    128 CA         12.2234   64.5401   19.8726 C.3       6 GLY6        0.0000 
    129 CA         11.0653   68.2097   13.2625 C.3       6 GLY6        0.0000 
    130 DU         11.0121   67.4023   14.5256 H         7 CUB7        0.0000 
    131 NZ          9.3218   62.9984   20.5463 N.2       4 LYS4        0.0000 
    132 CZ         14.7636   68.9063   17.4263 C.ar      5 PHE5        0.0000 
    133 CA         14.7104   68.0989   18.6894 C.3       6 GLY6        0.0000 
@<TRIPOS>BOND
@<TRIPOS>SUBSTRUCTURE
     1 SER1        4 GROUP   
     2 ALA2        3 GROUP   
     3 ASP3       86 GROUP   
     4 LYS4       44 GROUP   
     5 PHE5        1 GROUP   
     6 GLY6        7 GROUP   
     7 CUB7        6 GROUP   
@<TRIPOS>SET

