#    Name: 2iy5_FYA_1_INTS_M
#    Modification time : Tue Mar 25 18:59:37 2014

@<TRIPOS>MOLECULE
2iy5_FYA_1_INTS_M
   71     0    12     0     0
SMALL
NO_CHARGES


@<TRIPOS>ATOM
      1 CA         16.8550   64.4505   20.1195 C.3       4 GLC5        0.0000 
      2 CA         17.8200   63.1340   18.8110 C.3      12 GLL5        0.0000 
      3 CA         15.8900   65.7670   21.4280 C.3       8 GLP5        0.0000 
      4 CA         20.5350   64.1940   19.9765 C.3       4 GLC5        0.0000 
      5 CA         19.3180   63.3250   18.8000 C.3      12 GLL5        0.0000 
      6 CA         21.7520   65.0630   21.1530 C.3       8 GLP5        0.0000 
      7 O          20.0095   61.7925   20.8685 O.2       1 ALC1        0.0000 
      8 O          19.9670   62.2040   19.4270 O.2       9 ALL1        0.0000 
      9 O          20.0520   61.3810   22.3100 O.2       5 ALP1        0.0000 
     10 O          21.4215   61.9125   19.4465 O.2       1 ALC1        0.0000 
     11 O          22.8760   61.6210   19.4660 O.2       5 ALP1        0.0000 
     12 NZ         14.9980   62.2020   20.1885 N.4       3 LYC4        0.0000 
     13 NZ         15.1430   63.3120   19.7280 N.4      11 LYL4        0.0000 
     14 NZ         13.6380   60.7820   21.0750 N.4       7 LYP4        0.0000 
     15 N          14.9980   62.2020   20.1885 N.am      2 SEC2        0.0000 
     16 N          15.1430   63.3120   19.7280 N.am     10 SEL2        0.0000 
     17 N          14.8530   61.0920   20.6490 N.am      6 SEP2        0.0000 
     18 CA         16.1345   61.3470   13.4440 C.3       4 GLC5        0.0000 
     19 CA         14.7290   62.0400   14.9700 C.3      12 GLL5        0.0000 
     20 CA         17.5400   60.6540   11.9180 C.3       8 GLP5        0.0000 
     21 CA         14.5280   60.3770   13.6870 C.3       4 GLC5        0.0000 
     22 CA         14.3270   58.7140   12.4040 C.3       8 GLP5        0.0000 
     23 O          14.3390   63.4935   12.4070 O.2       1 ALC1        0.0000 
     24 O          14.0020   63.9510   13.6890 O.2       9 ALL1        0.0000 
     25 O          14.6760   63.0360   11.1250 O.2       5 ALP1        0.0000 
     26 CA         10.7160   61.4500   13.1585 C.3       4 GLC5        0.0000 
     27 CA         12.4530   62.0890   14.2540 C.3      12 GLL5        0.0000 
     28 CA          8.9790   60.8110   12.0630 C.3       8 GLP5        0.0000 
     29 O          13.4495   62.5485   11.9895 O.2       1 ALC1        0.0000 
     30 O          12.2230   62.0610   12.8540 O.2       9 ALL1        0.0000 
     31 CA          6.9320   58.0655   17.0455 C.3       4 GLC5        0.0000 
     32 CA          9.0800   58.3530   17.2660 C.3      12 GLL5        0.0000 
     33 CA          4.7840   57.7780   16.8250 C.3       8 GLP5        0.0000 
     34 CA         10.0945   56.3770   17.0185 C.3       4 GLC5        0.0000 
     35 CA         11.1090   54.4010   16.7710 C.3       8 GLP5        0.0000 
     36 O           8.3595   58.6565   19.6870 O.2       1 ALC1        0.0000 
     37 O           8.4090   58.2000   18.4390 O.2       9 ALL1        0.0000 
     38 O           8.3100   59.1130   20.9350 O.2       5 ALP1        0.0000 
     39 O           7.8030   57.1355   19.4015 O.2       1 ALC1        0.0000 
     40 O           7.1970   56.0710   20.3640 O.2       5 ALP1        0.0000 
     41 CA         10.2560   56.0760   15.8675 C.3       4 GLC5        0.0000 
     42 CA          9.4030   57.7510   14.9640 C.3      12 GLL5        0.0000 
     43 CA          9.1800   58.5890   13.2190 C.3       4 GLC5        0.0000 
     44 CA          8.9570   59.4270   11.4740 C.3       8 GLP5        0.0000 
     45 CA          8.0885   56.5920   14.6845 C.3       4 GLC5        0.0000 
     46 CA          6.7740   55.4330   14.4050 C.3       8 GLP5        0.0000 
     47 CA          9.8855   60.0715   13.9625 C.3       4 GLC5        0.0000 
     48 CA         10.7920   59.3320   15.8620 C.3      12 GLL5        0.0000 
     49 CA         18.7085   61.3852   19.9402 C.3       4 GLC5        0.0000 
     50 CA         18.8480   59.5410   21.0750 C.3       8 GLP5        0.0000 
     51 CA         18.5735   65.2271   18.5761 C.3       4 GLC5        0.0000 
     52 CA         17.9930   67.0970   19.0900 C.3       8 GLP5        0.0000 
     53 CA         20.9551   62.7253   15.4586 C.3       4 GLC5        0.0000 
     54 CA         22.2340   63.7190   16.9270 C.3      12 GLL5        0.0000 
     55 CA         20.6250   61.6410   13.8610 C.3       8 GLP5        0.0000 
     56 CA         24.0767   67.2570   17.3565 C.3       4 GLC5        0.0000 
     57 CA         23.3010   65.9220   16.5440 C.3      12 GLL5        0.0000 
     58 CA         25.4950   68.2870   18.1100 C.3       8 GLP5        0.0000 
     59 CA         20.1001   66.3456   15.5214 C.3       4 GLC5        0.0000 
     60 CA         22.0160   66.5320   16.6620 C.3      12 GLL5        0.0000 
     61 CA         18.7470   66.9100   14.2210 C.3       8 GLP5        0.0000 
     62 CA         25.0535   64.8122   16.1598 C.3       4 GLC5        0.0000 
     63 CA         26.7580   64.4080   15.7080 C.3       8 GLP5        0.0000 
     64 CA         22.3596   66.9297   15.0556 C.3       4 GLC5        0.0000 
     65 CA         22.3530   67.8290   13.4460 C.3       8 GLP5        0.0000 
     66 CA         23.1986   64.5503   14.8042 C.3       4 GLC5        0.0000 
     67 CA         23.3390   64.0820   12.9350 C.3       8 GLP5        0.0000 
     68 CA         15.4838   63.6876   13.5761 C.3       4 GLC5        0.0000 
     69 CA         15.7890   62.5970   15.9490 C.3      12 GLL5        0.0000 
     70 CA         16.5310   64.7220   12.0950 C.3       8 GLP5        0.0000 
     71 CA         13.4765   60.0605   13.4887 C.3       4 GLC5        0.0000 
@<TRIPOS>BOND
@<TRIPOS>SUBSTRUCTURE
     1 ALC1        7 GROUP        1 X    ALC  0     ROOT ALC X 1
     2 SEC2       15 GROUP        1 X    SEC  0     **** SEC X 2
     3 LYC4       12 GROUP        1 X    LYC  0     **** LYC X 4
     4 GLC5        1 GROUP        1 X    GLC  0     **** GLC X 6
     5 ALP1        9 GROUP        1 Y    ALP  0     ROOT ALP Y 8
     6 SEP2       17 GROUP        1 Y    SEP  0     **** SEP Y 9
     7 LYP4       14 GROUP        1 Y    LYP  0     **** LYP Y 11
     8 GLP5        3 GROUP        1 Y    GLP  0     **** GLP Y 13
     9 ALL1        8 GROUP        1 Z    ALL  0     ROOT ALL Z 15
    10 SEL2       16 GROUP        1 Z    SEL  0     **** SEL Z 16
    11 LYL4       13 GROUP        1 Z    LYL  0     **** LYL Z 18
    12 GLL5        2 GROUP        1 Z    GLL  0     **** GLL Z 20
@<TRIPOS>SET

