#    Name: 2iy5_FYA_1_ligand
#    Modification time : Tue Mar 25 18:59:37 2014

@<TRIPOS>MOLECULE
2iy5_FYA_1_ligand
   58    61     1     0     0
SMALL
NO_CHARGES


@<TRIPOS>ATOM
      1 C          17.8200   63.1340   18.8110 C.3       1 FYA1351     0.0000 
      2 CA         19.3180   63.3250   18.8000 C.3       1 FYA1351     0.0000 
      3 N          19.9670   62.2040   19.4270 N.4       1 FYA1351     0.0000 
      4 CB         19.7390   63.4850   17.3190 C.3       1 FYA1351     0.0000 
      5 CG         20.9340   64.3150   17.0520 C.ar      1 FYA1351     0.0000 
      6 CD1        20.8470   65.7460   16.9110 C.ar      1 FYA1351     0.0000 
      7 CD2        22.2340   63.7190   16.9270 C.ar      1 FYA1351     0.0000 
      8 CE1        22.0160   66.5320   16.6620 C.ar      1 FYA1351     0.0000 
      9 CE2        23.3970   64.5110   16.6790 C.ar      1 FYA1351     0.0000 
     10 CZ         23.3010   65.9220   16.5440 C.ar      1 FYA1351     0.0000 
     11 P          15.4950   63.6910   18.3510 P.3       1 FYA1351     0.0000 
     12 O1P        14.6360   64.7210   17.7900 O.co2     1 FYA1351     0.0000 
     13 O2P        15.1430   63.3120   19.7280 O.co2     1 FYA1351     0.0000 
     14 O3P        17.0160   64.1900   18.2190 O.3       1 FYA1351     0.0000 
     15 O5'        15.4170   62.4310   17.3430 O.3       1 FYA1351     0.0000 
     16 C5'        15.7890   62.5970   15.9490 C.3       1 FYA1351     0.0000 
     17 C4'        14.7290   62.0400   14.9700 C.3       1 FYA1351     0.0000 
     18 O4'        14.0640   60.8790   15.5640 O.3       1 FYA1351     0.0000 
     19 C3'        13.6140   62.9880   14.6550 C.3       1 FYA1351     0.0000 
     20 O3'        14.0020   63.9510   13.6890 O.3       1 FYA1351     0.0000 
     21 C2'        12.4530   62.0890   14.2540 C.3       1 FYA1351     0.0000 
     22 O2'        12.2230   62.0610   12.8540 O.3       1 FYA1351     0.0000 
     23 C1'        12.7990   60.7250   14.8930 C.3       1 FYA1351     0.0000 
     24 N9         11.8300   60.2670   15.9620 N.pl3     1 FYA1351     0.0000 
     25 C8         11.7560   60.7110   17.2860 C.2       1 FYA1351     0.0000 
     26 N7         10.8310   60.1800   18.0310 N.2       1 FYA1351     0.0000 
     27 C5         10.2150   59.2840   17.1520 C.ar      1 FYA1351     0.0000 
     28 C6          9.0800   58.3530   17.2660 C.ar      1 FYA1351     0.0000 
     29 N6          8.4090   58.2000   18.4390 N.pl3     1 FYA1351     0.0000 
     30 N1          8.7110   57.5900   16.1510 N.ar      1 FYA1351     0.0000 
     31 C2          9.4030   57.7510   14.9640 C.ar      1 FYA1351     0.0000 
     32 N3         10.4610   58.5890   14.7370 N.ar      1 FYA1351     0.0000 
     33 C4         10.7920   59.3320   15.8620 C.ar      1 FYA1351     0.0000 
     34 H          17.5043   62.9642   19.8786 H         1 FYA1351     0.0000 
     35 H          17.5962   62.1526   18.3060 H         1 FYA1351     0.0000 
     36 H          19.5417   64.2518   19.3013 H         1 FYA1351     0.0000 
     37 H          18.8579   63.8942   16.7649 H         1 FYA1351     0.0000 
     38 H          19.8863   62.4577   16.9021 H         1 FYA1351     0.0000 
     39 H          19.9377   66.2008   16.9905 H         1 FYA1351     0.0000 
     40 H          22.3269   62.7022   17.0182 H         1 FYA1351     0.0000 
     41 H          21.9282   67.5466   16.5673 H         1 FYA1351     0.0000 
     42 H          24.3080   64.0534   16.5983 H         1 FYA1351     0.0000 
     43 H          24.1191   66.4817   16.3690 H         1 FYA1351     0.0000 
     44 H          16.7430   62.0850   15.7281 H         1 FYA1351     0.0000 
     45 H          15.9383   63.6635   15.7013 H         1 FYA1351     0.0000 
     46 H          15.2113   61.7410   14.0576 H         1 FYA1351     0.0000 
     47 H          13.3300   63.4575   15.6080 H         1 FYA1351     0.0000 
     48 H          11.5783   62.4634   14.8112 H         1 FYA1351     0.0000 
     49 H          12.8741   59.9865   14.1303 H         1 FYA1351     0.0000 
     50 H          12.4176   61.4193   17.6071 H         1 FYA1351     0.0000 
     51 H           8.3924   58.9964   19.0435 H         1 FYA1351     0.0000 
     52 H           7.9914   57.3046   18.5935 H         1 FYA1351     0.0000 
     53 H           9.0682   57.1484   14.1304 H         1 FYA1351     0.0000 
     54 H          20.8754   62.0384   19.0431 H         1 FYA1351     0.0000 
     55 H          20.0855   62.3455   20.4098 H         1 FYA1351     0.0000 
     56 H          19.4425   61.3601   19.3135 H         1 FYA1351     0.0000 
     57 H          14.6462   63.4733   13.0918 H         1 FYA1351     0.0000 
     58 H          13.0695   62.4029   12.4459 H         1 FYA1351     0.0000 
@<TRIPOS>BOND
     1    2    1 1    
     2   14    1 1    
     3   34    1 1    
     4   35    1 1    
     5    3    2 1    
     6    4    2 1    
     7   36    2 1    
     8   54    3 1    
     9   55    3 1    
    10   56    3 1    
    11    5    4 1    
    12   37    4 1    
    13   38    4 1    
    14    6    5 ar   
    15    7    5 ar   
    16    8    6 ar   
    17   39    6 1    
    18    9    7 ar   
    19   40    7 1    
    20   10    8 ar   
    21   41    8 1    
    22   10    9 ar   
    23   42    9 1    
    24   43   10 1    
    25   12   11 ar   
    26   13   11 ar   
    27   14   11 1    
    28   15   11 1    
    29   16   15 1    
    30   17   16 1    
    31   44   16 1    
    32   45   16 1    
    33   18   17 1    
    34   19   17 1    
    35   46   17 1    
    36   23   18 1    
    37   20   19 1    
    38   21   19 1    
    39   47   19 1    
    40   57   20 1    
    41   22   21 1    
    42   23   21 1    
    43   48   21 1    
    44   58   22 1    
    45   24   23 1    
    46   49   23 1    
    47   25   24 1    
    48   33   24 1    
    49   26   25 2    
    50   50   25 1    
    51   27   26 1    
    52   28   27 ar   
    53   33   27 ar   
    54   29   28 1    
    55   30   28 ar   
    56   51   29 1    
    57   52   29 1    
    58   31   30 ar   
    59   32   31 ar   
    60   53   31 1    
    61   33   32 ar   
@<TRIPOS>SUBSTRUCTURE
     1 FYA1351     1 GROUP   
@<TRIPOS>SET

