#    Name: 3sl5_J25_3_INTS_M
#    Modification time : Mon Mar 24 17:50:04 2014

@<TRIPOS>MOLECULE
3sl5_J25_3_INTS_M
   46     0     3     0     0
SMALL
NO_CHARGES


@<TRIPOS>ATOM
      1 CA         18.8255   -4.7615   30.6945 C.3       1 GLC5        0.0000 
      2 CA         18.1640   -4.9920   32.8090 C.3       3 GLL5        0.0000 
      3 CA         19.4870   -4.5310   28.5800 C.3       2 GLP5        0.0000 
      4 CA         19.6805   -3.4765   33.0180 C.3       1 GLC5        0.0000 
      5 CA         21.1970   -1.9610   33.2270 C.3       2 GLP5        0.0000 
      6 CA         19.2565   -5.7815   29.8315 C.3       1 GLC5        0.0000 
      7 CA         19.0260   -7.0320   31.0830 C.3       3 GLL5        0.0000 
      8 CA         20.4465   -6.9020   32.6270 C.3       1 GLC5        0.0000 
      9 CA         21.8670   -6.7720   34.1710 C.3       2 GLP5        0.0000 
     10 CA         16.9495   -8.9140   34.2045 C.3       1 GLC5        0.0000 
     11 CA         19.0600   -8.9270   33.5610 C.3       3 GLL5        0.0000 
     12 CA         14.8390   -8.9010   34.8480 C.3       2 GLP5        0.0000 
     13 CA         19.9510   -2.1345   34.6735 C.3       1 GLC5        0.0000 
     14 CA         18.7050   -2.3080   36.1200 C.3       3 GLL5        0.0000 
     15 CA         20.1350   -3.6840   35.9700 C.3       1 GLC5        0.0000 
     16 CA         21.5650   -5.0600   35.8200 C.3       2 GLP5        0.0000 
     17 CA         20.0420   -1.7650   38.5300 C.3       1 GLC5        0.0000 
     18 CA         18.4230   -2.8440   37.5090 C.3       3 GLL5        0.0000 
     19 CA         21.6610   -0.6860   39.5510 C.3       2 GLP5        0.0000 
     20 CA         15.8900   -4.0575   40.9740 C.3       1 GLC5        0.0000 
     21 CA         17.1270   -3.4500   39.6280 C.3       3 GLL5        0.0000 
     22 CA         14.6530   -4.6650   42.3200 C.3       2 GLP5        0.0000 
     23 CA         20.5405   -8.8070   37.5220 C.3       1 GLC5        0.0000 
     24 CA         18.4800   -9.3740   37.4730 C.3       3 GLL5        0.0000 
     25 CA         22.6010   -8.2400   37.5710 C.3       2 GLP5        0.0000 
     26 CA         18.9475  -13.0035   36.7505 C.3       1 GLC5        0.0000 
     27 CA         18.5610  -10.8200   37.0240 C.3       3 GLL5        0.0000 
     28 CA         19.3340  -15.1870   36.4770 C.3       2 GLP5        0.0000 
     29 CA         16.1025   -5.8048   35.5493 C.3       1 GLC5        0.0000 
     30 CA         18.2260   -6.6740   34.8840 C.3       3 GLL5        0.0000 
     31 CA         14.1270   -5.6420   36.4060 C.3       2 GLP5        0.0000 
     32 CA         20.4518   -7.9482   33.4933 C.3       1 GLC5        0.0000 
     33 CA         20.5582   -2.8235   39.4892 C.3       1 GLC5        0.0000 
     34 CA         19.1940   -3.4930   38.4690 C.3       3 GLL5        0.0000 
     35 CA         22.2840   -1.9940   39.9350 C.3       2 GLP5        0.0000 
     36 CA         15.9805   -1.6587   40.0757 C.3       1 GLC5        0.0000 
     37 CA         14.9920   -0.2530   41.2810 C.3       2 GLP5        0.0000 
     38 CA         15.7425   -4.4582   38.8582 C.3       1 GLC5        0.0000 
     39 CA         14.5160   -5.8520   38.8460 C.3       2 GLP5        0.0000 
     40 CA         18.9638  -11.1415   38.5883 C.3       1 GLC5        0.0000 
     41 CA         19.4070  -12.1860   39.9280 C.3       2 GLP5        0.0000 
     42 CA         23.7220   -9.5137   31.7095 C.3       1 GLC5        0.0000 
     43 CA         22.3430  -10.4270   31.4500 C.3       3 GLL5        0.0000 
     44 CA         24.5420   -8.2260   32.3240 C.3       2 GLP5        0.0000 
     45 CA         18.0672   -1.3007   39.1052 C.3       1 GLC5        0.0000 
     46 CA         18.5770    0.4380   39.7510 C.3       2 GLP5        0.0000 
@<TRIPOS>BOND
@<TRIPOS>SUBSTRUCTURE
     1 GLC5        1 GROUP        1 X    GLC  0     ROOT GLC X 6
     2 GLP5        3 GROUP        1 Y    GLP  0     ROOT GLP Y 13
     3 GLL5        2 GROUP        1 Z    GLL  0     ROOT GLL Z 20
@<TRIPOS>SET

