#    Name: 3sl5_J25_3_ligand
#    Modification time : Mon Mar 24 17:50:04 2014

@<TRIPOS>MOLECULE
3sl5_J25_3_ligand
   50    52     1     0     0
SMALL
NO_CHARGES


@<TRIPOS>ATOM
      1 C1         18.6640   -7.4790   33.6910 C.2       1 J251        0.0000 
      2 C2         18.2260   -6.6740   34.8840 C.2       1 J251        0.0000 
      3 C3         17.9300   -5.2610   34.5010 C.2       1 J251        0.0000 
      4 S4         18.1640   -4.9920   32.8090 S.3       1 J251        0.0000 
      5 C5         18.6520   -6.6270   32.4790 C.2       1 J251        0.0000 
      6 C6         19.0260   -7.0320   31.0830 C.3       1 J251        0.0000 
      7 N7         19.7140   -8.3050   31.2700 N.am      1 J251        0.0000 
      8 C8         19.0130   -9.3220   32.0700 C.3       1 J251        0.0000 
      9 C9         19.0600   -8.9270   33.5610 C.3       1 J251        0.0000 
     10 N10        17.5130   -4.2890   35.3490 N.am      1 J251        0.0000 
     11 C11        17.8400   -3.0200   35.0940 C.2       1 J251        0.0000 
     12 C12        18.7050   -2.3080   36.1200 C.3       1 J251        0.0000 
     13 C13        18.4230   -2.8440   37.5090 C.2       1 J251        0.0000 
     14 C14        19.1940   -3.4930   38.4690 C.2       1 J251        0.0000 
     15 C15        18.4710   -3.8130   39.6180 C.2       1 J251        0.0000 
     16 C16        17.1270   -3.4500   39.6280 C.2       1 J251        0.0000 
     17 S17        16.8110   -2.6790   38.1130 S.3       1 J251        0.0000 
     18 O18        17.4760   -2.4530   34.0700 O.2       1 J251        0.0000 
     19 C19        18.1000   -7.2090   36.2680 C.2       1 J251        0.0000 
     20 O20        17.8490   -8.6300   36.4390 O.3       1 J251        0.0000 
     21 C21        18.4800   -9.3740   37.4730 C.3       1 J251        0.0000 
     22 C22        18.5610  -10.8200   37.0240 C.3       1 J251        0.0000 
     23 O23        18.1790   -6.4710   37.2400 O.2       1 J251        0.0000 
     24 C24        20.9140   -8.4760   30.7080 C.2       1 J251        0.0000 
     25 O25        21.4990   -9.7950   30.4800 O.3       1 J251        0.0000 
     26 C26        22.3430  -10.4270   31.4500 C.3       1 J251        0.0000 
     27 C27        23.4610  -11.1760   30.7400 C.3       1 J251        0.0000 
     28 O28        21.5650   -7.5060   30.3390 O.2       1 J251        0.0000 
     29 H          19.6804   -6.2971   30.6619 H         1 J251        0.0000 
     30 H          18.1384   -7.1546   30.4976 H         1 J251        0.0000 
     31 H          19.4858  -10.2962   31.9630 H         1 J251        0.0000 
     32 H          17.9690   -9.3999   31.7734 H         1 J251        0.0000 
     33 H          18.3700   -9.5534   34.1082 H         1 J251        0.0000 
     34 H          20.0661   -9.0734   33.9276 H         1 J251        0.0000 
     35 H          16.9476   -4.5378   36.1826 H         1 J251        0.0000 
     36 H          18.4916   -1.2405   36.0926 H         1 J251        0.0000 
     37 H          19.7549   -2.4643   35.8768 H         1 J251        0.0000 
     38 H          20.1420   -3.7030   38.3518 H         1 J251        0.0000 
     39 H          18.8983   -4.2804   40.3960 H         1 J251        0.0000 
     40 H          16.4381   -3.5107   40.1792 H         1 J251        0.0000 
     41 H          17.9134   -9.3395   38.4043 H         1 J251        0.0000 
     42 H          19.4938   -9.0223   37.6681 H         1 J251        0.0000 
     43 H          21.7871  -11.1471   32.0598 H         1 J251        0.0000 
     44 H          22.8007   -9.6950   32.1240 H         1 J251        0.0000 
     45 H          19.0889  -10.9179   36.1804 H         1 J251        0.0000 
     46 H          18.9984  -11.3987   37.7123 H         1 J251        0.0000 
     47 H          17.6552  -11.2060   36.8494 H         1 J251        0.0000 
     48 H          24.0247  -10.5636   30.1857 H         1 J251        0.0000 
     49 H          24.0723  -11.6315   31.3872 H         1 J251        0.0000 
     50 H          23.1047  -11.8813   30.1272 H         1 J251        0.0000 
@<TRIPOS>BOND
     1    2    1 1    
     2    5    1 2    
     3    9    1 1    
     4    3    2 2    
     5   19    2 1    
     6    4    3 1    
     7   10    3 1    
     8    5    4 1    
     9    6    5 1    
    10    7    6 1    
    11   29    6 1    
    12   30    6 1    
    13    8    7 1    
    14   24    7 am   
    15    9    8 1    
    16   31    8 1    
    17   32    8 1    
    18   33    9 1    
    19   34    9 1    
    20   11   10 am   
    21   35   10 1    
    22   12   11 1    
    23   18   11 2    
    24   13   12 1    
    25   36   12 1    
    26   37   12 1    
    27   14   13 2    
    28   17   13 1    
    29   15   14 1    
    30   38   14 1    
    31   16   15 2    
    32   39   15 1    
    33   17   16 1    
    34   40   16 1    
    35   20   19 1    
    36   23   19 2    
    37   21   20 1    
    38   22   21 1    
    39   41   21 1    
    40   42   21 1    
    41   45   22 1    
    42   46   22 1    
    43   47   22 1    
    44   25   24 1    
    45   28   24 2    
    46   26   25 1    
    47   27   26 1    
    48   43   26 1    
    49   44   26 1    
    50   48   27 1    
    51   49   27 1    
    52   50   27 1    
@<TRIPOS>SUBSTRUCTURE
     1 J251        1 GROUP   
@<TRIPOS>SET

