#    Name: 2V3R_1_CAVITY_N1_6.mol2
#    Modification time : Mon Mar 10 14:38:30 2014

@<TRIPOS>MOLECULE
2V3R_1_CAVITY_N1_6.mol2
  172     0     7     0     0
SMALL
NO_CHARGES


@<TRIPOS>ATOM
      1 CZ         17.8460   48.7896   94.7832 C.ar      5 PHE5        0.0000 
      2 O          18.3337   50.7998   96.3553 O.2       2 ALA2        0.0000 
      3 O          19.2845   49.6764   96.0656 O.2       2 ALA2        0.0000 
      4 OG         20.2353   48.5529   95.7759 O.2       1 SER1        0.0000 
      5 CZ         18.9599   49.7783   94.6047 C.ar      5 PHE5        0.0000 
      6 OG         19.9107   48.6549   94.3150 O.2       1 SER1        0.0000 
      7 CZ         18.6352   49.8803   93.1438 C.ar      5 PHE5        0.0000 
      8 CA         19.5860   48.7569   92.8541 C.3       6 GLY6        0.0000 
      9 OG         20.5368   47.6334   92.5644 O.2       1 SER1        0.0000 
     10 CA         19.2614   48.8588   91.3932 C.3       6 GLY6        0.0000 
     11 CA         18.9367   48.9608   89.9323 C.3       6 GLY6        0.0000 
     12 OG         17.6613   50.1862   88.7611 O.2       1 SER1        0.0000 
     13 OG         16.3858   51.4115   87.5899 O.2       1 SER1        0.0000 
     14 DU         17.3366   50.2881   87.3002 H         7 CUB7        0.0000 
     15 O          20.3983   50.6651   95.8871 O.2       2 ALA2        0.0000 
     16 NZ         21.3491   49.5417   95.5974 N.2       4 LYS4        0.0000 
     17 CZ         19.1229   51.8904   94.7159 C.ar      5 PHE5        0.0000 
     18 CZ         20.0737   50.7670   94.4262 C.ar      5 PHE5        0.0000 
     19 NZ         21.0245   49.6436   94.1365 N.2       4 LYS4        0.0000 
     20 CZ         19.7490   50.8690   92.9653 C.ar      5 PHE5        0.0000 
     21 O          20.6998   49.7456   92.6756 O.2       2 ALA2        0.0000 
     22 OG         19.4244   50.9709   91.5044 O.2       1 SER1        0.0000 
     23 OD1        20.3752   49.8475   91.2147 O.3       3 ASP3        0.0000 
     24 OG         19.0998   51.0729   90.0435 O.2       1 SER1        0.0000 
     25 OG         17.8243   52.2983   88.8723 O.2       1 SER1        0.0000 
     26 OG         18.7751   51.1749   88.5826 O.2       1 SER1        0.0000 
     27 CA         17.4997   52.4002   87.4114 C.3       6 GLY6        0.0000 
     28 CA         18.4505   51.2768   87.1217 C.3       6 GLY6        0.0000 
     29 O          21.8368   51.5518   97.1694 O.2       2 ALA2        0.0000 
     30 NZ         22.7876   50.4284   96.8797 N.2       4 LYS4        0.0000 
     31 O          21.5121   51.6538   95.7085 O.2       2 ALA2        0.0000 
     32 NZ         22.4629   50.5304   95.4189 N.2       4 LYS4        0.0000 
     33 CA         20.2367   52.8792   94.5373 C.3       6 GLY6        0.0000 
     34 DU         21.1875   51.7557   94.2477 H         7 CUB7        0.0000 
     35 NZ         22.1383   50.6323   93.9580 N.2       4 LYS4        0.0000 
     36 CA         19.9121   52.9811   93.0765 C.3       6 GLY6        0.0000 
     37 O          20.8629   51.8577   92.7868 O.2       2 ALA2        0.0000 
     38 O          21.8137   50.7343   92.4971 O.2       2 ALA2        0.0000 
     39 CZ         19.5874   53.0831   91.6156 C.ar      5 PHE5        0.0000 
     40 O          20.5382   51.9597   91.3259 O.2       2 ALA2        0.0000 
     41 OG         19.2628   53.1850   90.1547 O.2       1 SER1        0.0000 
     42 O          20.2136   52.0616   89.8650 O.2       2 ALA2        0.0000 
     43 CA         18.9381   53.2870   88.6938 C.3       6 GLY6        0.0000 
     44 CA         19.8889   52.1636   88.4041 C.3       6 GLY6        0.0000 
     45 CA         18.6135   53.3889   87.2329 C.3       6 GLY6        0.0000 
     46 O          22.9506   52.5405   96.9909 O.2       2 ALA2        0.0000 
     47 CA         23.9014   51.4171   96.7012 C.3       6 GLY6        0.0000 
     48 O          21.6752   53.7659   95.8197 O.2       2 ALA2        0.0000 
     49 O          22.6260   52.6425   95.5300 O.2       2 ALA2        0.0000 
     50 CA         23.5768   51.5191   95.2403 C.3       6 GLY6        0.0000 
     51 CA         21.3505   53.8679   94.3588 C.3       6 GLY6        0.0000 
     52 DU         22.3013   52.7444   94.0691 H         7 CUB7        0.0000 
     53 NZ         23.2521   51.6210   93.7794 N.2       4 LYS4        0.0000 
     54 O          21.9767   52.8464   92.6082 O.2       2 ALA2        0.0000 
     55 CA         20.7012   54.0718   91.4370 C.3       6 GLY6        0.0000 
     56 O          21.6520   52.9484   91.1474 O.2       2 ALA2        0.0000 
     57 CA         20.3766   54.1737   89.9762 C.3       6 GLY6        0.0000 
     58 O          21.3274   53.0503   89.6865 O.2       2 ALA2        0.0000 
     59 CA         20.0519   54.2757   88.5153 C.3       6 GLY6        0.0000 
     60 CA         21.0027   53.1523   88.2256 C.3       6 GLY6        0.0000 
     61 O          23.1136   54.6527   97.1021 O.2       2 ALA2        0.0000 
     62 N          24.0644   53.5292   96.8124 N.2       2 ALA2        0.0000 
     63 CZ         22.7890   54.7546   95.6412 C.ar      5 PHE5        0.0000 
     64 N          23.7398   53.6312   95.3515 N.2       2 ALA2        0.0000 
     65 CZ         23.4151   53.7332   93.8906 C.ar      5 PHE5        0.0000 
     66 CA         24.3659   52.6097   93.6009 C.3       6 GLY6        0.0000 
     67 CZ         23.0905   53.8351   92.4297 C.ar      5 PHE5        0.0000 
     68 O          24.0413   52.7117   92.1400 O.2       2 ALA2        0.0000 
     69 O          22.7658   53.9371   90.9688 O.2       2 ALA2        0.0000 
     70 O          21.4904   55.1624   89.7976 O.2       2 ALA2        0.0000 
     71 OG         22.4412   54.0390   89.5079 O.2       1 SER1        0.0000 
     72 O          21.1658   55.2644   88.3367 O.2       2 ALA2        0.0000 
     73 OG         22.1166   54.1410   88.0471 O.2       1 SER1        0.0000 
     74 NZ         20.8411   55.3664   86.8759 N.2       4 LYS4        0.0000 
     75 N          25.1782   54.5179   96.6339 N.2       2 ALA2        0.0000 
     76 CZ         23.9028   55.7433   95.4627 C.ar      5 PHE5        0.0000 
     77 N          24.8536   54.6199   95.1730 N.2       2 ALA2        0.0000 
     78 CZ         24.5290   54.7219   93.7121 C.ar      5 PHE5        0.0000 
     79 N          25.4798   53.5984   93.4224 N.2       2 ALA2        0.0000 
     80 CZ         24.2043   54.8238   92.2512 C.ar      5 PHE5        0.0000 
     81 CZ         23.8797   54.9258   90.7903 C.ar      5 PHE5        0.0000 
     82 O          24.8305   53.8024   90.5006 O.2       2 ALA2        0.0000 
     83 CZ         22.6042   56.1511   89.6191 C.ar      5 PHE5        0.0000 
     84 OG         23.5550   55.0277   89.3294 O.2       1 SER1        0.0000 
     85 O          24.5058   53.9043   89.0397 O.2       2 ALA2        0.0000 
     86 O          22.2796   56.2531   88.1582 O.2       2 ALA2        0.0000 
     87 OG         23.2304   55.1297   87.8685 O.2       1 SER1        0.0000 
     88 NZ         21.9549   56.3551   86.6973 N.2       4 LYS4        0.0000 
     89 OG         22.9057   55.2316   86.4076 O.2       1 SER1        0.0000 
     90 NZ         21.6303   56.4570   85.2364 N.2       4 LYS4        0.0000 
     91 CA         22.5811   55.3336   84.9468 C.3       6 GLY6        0.0000 
     92 OG         26.2921   55.5067   96.4554 O.2       1 SER1        0.0000 
     93 CZ         25.0166   56.7320   95.2842 C.ar      5 PHE5        0.0000 
     94 N          25.9674   55.6086   94.9945 N.2       2 ALA2        0.0000 
     95 CZ         25.6428   55.7106   93.5336 C.ar      5 PHE5        0.0000 
     96 N          26.5936   54.5872   93.2439 N.2       2 ALA2        0.0000 
     97 CZ         25.3181   55.8125   92.0727 C.ar      5 PHE5        0.0000 
     98 N          26.2689   54.6891   91.7830 N.2       2 ALA2        0.0000 
     99 CZ         24.9935   55.9145   90.6118 C.ar      5 PHE5        0.0000 
    100 O          25.9443   54.7911   90.3221 O.2       2 ALA2        0.0000 
    101 CZ         24.6688   56.0164   89.1509 C.ar      5 PHE5        0.0000 
    102 O          25.6196   54.8930   88.8612 O.2       2 ALA2        0.0000 
    103 CZ         24.3442   56.1184   87.6900 C.ar      5 PHE5        0.0000 
    104 CA         25.2950   54.9950   87.4003 C.3       6 GLY6        0.0000 
    105 CZ         23.0688   57.3438   86.5188 C.ar      5 PHE5        0.0000 
    106 CZ         24.0196   56.2204   86.2291 C.ar      5 PHE5        0.0000 
    107 CA         24.9703   55.0969   85.9394 C.3       6 GLY6        0.0000 
    108 CZ         22.7441   57.4457   85.0579 C.ar      5 PHE5        0.0000 
    109 OG         23.6949   56.3223   84.7682 O.2       1 SER1        0.0000 
    110 CZ         21.4687   58.6711   83.8867 C.ar      5 PHE5        0.0000 
    111 CZ         22.4195   57.5477   83.5970 C.ar      5 PHE5        0.0000 
    112 O          21.1440   58.7731   82.4258 O.2       2 ALA2        0.0000 
    113 CZ         22.0948   57.6496   82.1361 C.ar      5 PHE5        0.0000 
    114 CZ         21.7702   57.7516   80.6753 C.ar      5 PHE5        0.0000 
    115 CZ         22.7210   56.6282   80.3856 C.ar      5 PHE5        0.0000 
    116 NZ         26.4319   56.8012   91.8942 N.2       4 LYS4        0.0000 
    117 N          27.3827   55.6778   91.6045 N.2       2 ALA2        0.0000 
    118 CZ         26.1073   56.9032   90.4333 C.ar      5 PHE5        0.0000 
    119 O          27.0581   55.7798   90.1436 O.2       2 ALA2        0.0000 
    120 CZ         25.7827   57.0051   88.9724 C.ar      5 PHE5        0.0000 
    121 O          26.7335   55.8817   88.6827 O.2       2 ALA2        0.0000 
    122 CZ         25.4580   57.1071   87.5115 C.ar      5 PHE5        0.0000 
    123 CA         26.4088   55.9837   87.2218 C.3       6 GLY6        0.0000 
    124 CZ         25.1334   57.2091   86.0506 C.ar      5 PHE5        0.0000 
    125 CA         26.0842   56.0856   85.7609 C.3       6 GLY6        0.0000 
    126 OG         24.8087   57.3110   84.5897 O.2       1 SER1        0.0000 
    127 CZ         22.5825   59.6598   83.7082 C.ar      5 PHE5        0.0000 
    128 OG         23.5333   58.5364   83.4185 O.2       1 SER1        0.0000 
    129 N          22.2578   59.7618   82.2473 N.2       2 ALA2        0.0000 
    130 OG         23.2086   58.6384   81.9576 O.2       1 SER1        0.0000 
    131 NZ         28.1719   56.7685   89.9651 N.2       4 LYS4        0.0000 
    132 NZ         26.8965   57.9939   88.7939 N.2       4 LYS4        0.0000 
    133 NZ         27.8473   56.8704   88.5042 N.2       4 LYS4        0.0000 
    134 CZ         26.5718   58.0958   87.3330 C.ar      5 PHE5        0.0000 
    135 CA         27.5226   56.9724   87.0433 C.3       6 GLY6        0.0000 
    136 CZ         26.2472   58.1978   85.8721 C.ar      5 PHE5        0.0000 
    137 NZ         27.1980   57.0744   85.5824 N.2       4 LYS4        0.0000 
    138 NZ         28.1488   55.9509   85.2927 N.2       4 LYS4        0.0000 
    139 CZ         24.9717   59.4231   84.7009 C.ar      5 PHE5        0.0000 
    140 OG         25.9225   58.2997   84.4112 O.2       1 SER1        0.0000 
    141 OG         26.8733   57.1763   84.1215 O.2       1 SER1        0.0000 
    142 OG         27.8241   56.0529   83.8318 O.2       1 SER1        0.0000 
    143 CZ         24.6471   59.5251   83.2400 C.ar      5 PHE5        0.0000 
    144 OG         24.3225   59.6271   81.7791 O.2       1 SER1        0.0000 
    145 CZ         27.0595   60.1060   88.9051 C.ar      5 PHE5        0.0000 
    146 NZ         28.0103   58.9826   88.6154 N.2       4 LYS4        0.0000 
    147 CZ         27.6856   59.0845   87.1545 C.ar      5 PHE5        0.0000 
    148 NZ         28.6364   57.9611   86.8648 N.2       4 LYS4        0.0000 
    149 CZ         27.3610   59.1865   85.6936 C.ar      5 PHE5        0.0000 
    150 NZ         28.3118   58.0631   85.4039 N.2       4 LYS4        0.0000 
    151 CZ         26.0856   60.4119   84.5224 C.ar      5 PHE5        0.0000 
    152 DU         27.0364   59.2884   84.2327 H         7 CUB7        0.0000 
    153 NZ         27.9872   58.1650   83.9430 N.2       4 LYS4        0.0000 
    154 CZ         25.7609   60.5138   83.0615 C.ar      5 PHE5        0.0000 
    155 O          26.7117   59.3904   82.7718 O.2       2 ALA2        0.0000 
    156 OG         27.6625   58.2670   82.4821 O.2       1 SER1        0.0000 
    157 NZ         29.1241   59.9713   88.4369 N.2       4 LYS4        0.0000 
    158 O          27.8487   61.1966   87.2657 O.2       2 ALA2        0.0000 
    159 OG         28.7995   60.0732   86.9760 O.2       1 SER1        0.0000 
    160 OG         29.7503   58.9498   86.6863 O.2       1 SER1        0.0000 
    161 O          27.5240   61.2986   85.8048 O.2       2 ALA2        0.0000 
    162 OG         28.4748   60.1752   85.5151 O.2       1 SER1        0.0000 
    163 OG         29.4256   59.0518   85.2254 O.2       1 SER1        0.0000 
    164 CA         27.1994   61.4006   84.3439 C.3       6 GLY6        0.0000 
    165 O          28.1502   60.2771   84.0542 O.2       2 ALA2        0.0000 
    166 O          29.1010   59.1537   83.7645 O.2       2 ALA2        0.0000 
    167 O          26.8747   61.5025   82.8830 O.2       2 ALA2        0.0000 
    168 OG         28.6378   62.2873   85.6263 O.2       1 SER1        0.0000 
    169 CA         27.3624   63.5127   84.4551 C.3       6 GLY6        0.0000 
    170 OG         28.3132   62.3893   84.1654 O.2       1 SER1        0.0000 
    171 CA         29.2640   61.2659   83.8757 C.3       6 GLY6        0.0000 
    172 O          27.9886   62.4912   82.7045 O.2       2 ALA2        0.0000 
@<TRIPOS>BOND
@<TRIPOS>SUBSTRUCTURE
     1 SER1        4 GROUP   
     2 ALA2        2 GROUP   
     3 ASP3       23 GROUP   
     4 LYS4       16 GROUP   
     5 PHE5        1 GROUP   
     6 GLY6        8 GROUP   
     7 CUB7       14 GROUP   
@<TRIPOS>SET

