#    Name: 2v3r_XX7_1_INTS_M
#    Modification time : Tue Mar 25 00:54:31 2014

@<TRIPOS>MOLECULE
2v3r_XX7_1_INTS_M
   61     0    12     0     0
SMALL
NO_CHARGES


@<TRIPOS>ATOM
      1 N          26.7880   61.9675   88.6090 N.am      2 SEC2        0.0000 
      2 N          27.7450   61.3210   89.4910 N.am     10 SEL2        0.0000 
      3 N          25.8310   62.6140   87.7270 N.am      6 SEP2        0.0000 
      4 O          27.5495   60.5320   90.5145 O.2       1 ALC1        0.0000 
      5 O          27.7450   61.3210   89.4910 O.2       9 ALL1        0.0000 
      6 O          27.3540   59.7430   91.5380 O.2       5 ALP1        0.0000 
      7 CA         28.9080   62.4330   89.3810 C.3       4 GLC5        0.0000 
      8 CA         28.8050   60.6500   88.7630 C.3      12 GLL5        0.0000 
      9 CA         29.0110   64.2160   89.9990 C.3       8 GLP5        0.0000 
     10 CA         30.2625   61.4765   88.3150 C.3       4 GLC5        0.0000 
     11 CA         31.7200   62.3030   87.8670 C.3       8 GLP5        0.0000 
     12 CA         28.4185   61.0445   90.9075 C.3       4 GLC5        0.0000 
     13 CA         28.0320   61.4390   93.0520 C.3       8 GLP5        0.0000 
     14 O          29.6105   57.0610   85.8775 O.2       1 ALC1        0.0000 
     15 O          28.6460   57.5060   86.6480 O.2       9 ALL1        0.0000 
     16 O          30.5750   56.6160   85.1070 O.2       5 ALP1        0.0000 
     17 OD1        29.7240   57.8805   89.4675 O.co2     3 ASC3        0.0000 
     18 OD1        28.4120   58.2890   89.3990 O.co2    11 ASL3        0.0000 
     19 OD1        31.0360   57.4720   89.5360 O.co2     7 ASP3        0.0000 
     20 OD1        27.8830   59.0160   90.4685 O.co2     3 ASC3        0.0000 
     21 OD1        27.3540   59.7430   91.5380 O.co2     7 ASP3        0.0000 
     22 CA         25.9770   58.8730   88.7540 C.3       4 GLC5        0.0000 
     23 CA         27.2770   57.3220   89.4260 C.3      12 GLL5        0.0000 
     24 CA         24.6770   60.4240   88.0820 C.3       8 GLP5        0.0000 
     25 CA         25.5605   57.9250   90.6910 C.3       4 GLC5        0.0000 
     26 CA         23.8440   58.5280   91.9560 C.3       8 GLP5        0.0000 
     27 N          27.7760   54.0165   89.3010 N.am      2 SEC2        0.0000 
     28 N          28.4920   55.2270   89.6550 N.am     10 SEL2        0.0000 
     29 N          27.0600   52.8060   88.9470 N.am      6 SEP2        0.0000 
     30 O          29.8955   55.2895   89.3620 O.2       1 ALC1        0.0000 
     31 O          28.4920   55.2270   89.6550 O.2       9 ALL1        0.0000 
     32 O          31.2990   55.3520   89.0690 O.2       5 ALP1        0.0000 
     33 O          29.7640   56.3495   89.5955 O.2       1 ALC1        0.0000 
     34 O          31.0360   57.4720   89.5360 O.2       5 ALP1        0.0000 
     35 CA         25.1065   56.9795   91.3620 C.3       4 GLC5        0.0000 
     36 CA         26.3690   55.4310   90.7680 C.3      12 GLL5        0.0000 
     37 CA         23.0670   53.5875   87.1760 C.3       4 GLC5        0.0000 
     38 CA         23.4710   55.3090   88.5400 C.3      12 GLL5        0.0000 
     39 CA         22.6630   51.8660   85.8120 C.3       8 GLP5        0.0000 
     40 CA         25.6875   54.7340   87.0645 C.3       4 GLC5        0.0000 
     41 CA         24.0400   55.9610   87.4410 C.3      12 GLL5        0.0000 
     42 CA         27.3350   53.5070   86.6880 C.3       8 GLP5        0.0000 
     43 CA         26.6220   60.1935   88.3035 C.3       4 GLC5        0.0000 
     44 CA         28.3290   59.2760   88.2870 C.3      12 GLL5        0.0000 
     45 CA         30.3762   60.1175   87.3775 C.3       4 GLC5        0.0000 
     46 CA         32.0240   61.2070   87.0660 C.3       8 GLP5        0.0000 
     47 CA         21.4010   53.9602   86.3452 C.3       4 GLC5        0.0000 
     48 CA         21.9210   56.0190   86.3160 C.3      12 GLL5        0.0000 
     49 CA         21.1680   52.2350   85.8360 C.3       8 GLP5        0.0000 
     50 CA         20.0835   55.2012   85.6258 C.3       4 GLC5        0.0000 
     51 CA         21.3470   55.3520   87.3930 C.3      12 GLL5        0.0000 
     52 CA         18.5330   54.7170   84.3970 C.3       8 GLP5        0.0000 
     53 CA         21.0956   53.2638   87.5932 C.3       4 GLC5        0.0000 
     54 CA         22.1050   54.9850   88.5170 C.3      12 GLL5        0.0000 
     55 CA         18.4205   54.4788   89.5230 C.3       4 GLC5        0.0000 
     56 CA         20.2150   53.9320   89.6330 C.3      12 GLL5        0.0000 
     57 CA         16.8880   55.3560   88.8630 C.3       8 GLP5        0.0000 
     58 CA         19.7830   54.6748   91.9340 C.3       4 GLC5        0.0000 
     59 CA         19.6130   55.7480   93.6850 C.3       8 GLP5        0.0000 
     60 CA         20.6889   54.6586   92.4787 C.3       4 GLC5        0.0000 
     61 CA         20.4890   52.9640   91.8240 C.3      12 GLL5        0.0000 
@<TRIPOS>BOND
@<TRIPOS>SUBSTRUCTURE
     1 ALC1        4 GROUP        1 X    ALC  0     ROOT ALC X 1
     2 SEC2        1 GROUP        1 X    SEC  0     **** SEC X 2
     3 ASC3       17 GROUP        1 X    ASC  0     **** ASC X 3
     4 GLC5        7 GROUP        1 X    GLC  0     **** GLC X 6
     5 ALP1        6 GROUP        1 Y    ALP  0     ROOT ALP Y 8
     6 SEP2        3 GROUP        1 Y    SEP  0     **** SEP Y 9
     7 ASP3       19 GROUP        1 Y    ASP  0     **** ASP Y 10
     8 GLP5        9 GROUP        1 Y    GLP  0     **** GLP Y 13
     9 ALL1        5 GROUP        1 Z    ALL  0     ROOT ALL Z 15
    10 SEL2        2 GROUP        1 Z    SEL  0     **** SEL Z 16
    11 ASL3       18 GROUP        1 Z    ASL  0     **** ASL Z 17
    12 GLL5        8 GROUP        1 Z    GLL  0     **** GLL Z 20
@<TRIPOS>SET

