#    Name: 2v3r_XX7_1_ligand
#    Modification time : Tue Mar 25 00:54:31 2014

@<TRIPOS>MOLECULE
2v3r_XX7_1_ligand
   47    49     1     0     0
SMALL
NO_CHARGES


@<TRIPOS>ATOM
      1 O4         27.7450   61.3210   89.4910 O.3       1 XX7501      0.0000 
      2 C19        28.8050   60.6500   88.7630 C.3       1 XX7501      0.0000 
      3 C18        28.3290   59.2760   88.2870 C.3       1 XX7501      0.0000 
      4 C20        29.1280   58.7800   87.0910 C.3       1 XX7501      0.0000 
      5 O3         28.6460   57.5060   86.6480 O.3       1 XX7501      0.0000 
      6 N          28.4120   58.2890   89.3990 N.4       1 XX7501      0.0000 
      7 C17        27.2770   57.3220   89.4260 C.3       1 XX7501      0.0000 
      8 O2         28.4920   55.2270   89.6550 O.3       1 XX7501      0.0000 
      9 C15        26.3690   55.4310   90.7680 C.3       1 XX7501      0.0000 
     10 O1         25.5830   55.3550   89.6020 O.3       1 XX7501      0.0000 
     11 C10        24.2580   54.9880   89.6500 C.ar      1 XX7501      0.0000 
     12 C5         23.4710   55.3090   88.5400 C.ar      1 XX7501      0.0000 
     13 C6         24.0400   55.9610   87.4410 C.ar      1 XX7501      0.0000 
     14 C1         23.2760   56.3290   86.3380 C.ar      1 XX7501      0.0000 
     15 C2         21.9210   56.0190   86.3160 C.ar      1 XX7501      0.0000 
     16 C3         21.3470   55.3520   87.3930 C.ar      1 XX7501      0.0000 
     17 C4         22.1050   54.9850   88.5170 C.ar      1 XX7501      0.0000 
     18 C7         21.5580   54.3210   89.6190 C.ar      1 XX7501      0.0000 
     19 C11        20.2150   53.9320   89.6330 C.ar      1 XX7501      0.0000 
     20 C12        19.6910   53.2710   90.7330 C.ar      1 XX7501      0.0000 
     21 C13        20.4890   52.9640   91.8240 C.ar      1 XX7501      0.0000 
     22 C14        21.8420   53.3230   91.8160 C.ar      1 XX7501      0.0000 
     23 C8         22.3640   53.9950   90.7250 C.ar      1 XX7501      0.0000 
     24 C9         23.7230   54.3600   90.7500 C.ar      1 XX7501      0.0000 
     25 C16        27.6350   56.1450   90.3480 C.3       1 XX7501      0.0000 
     26 H          29.6875   60.5030   89.3937 H         1 XX7501      0.0000 
     27 H          29.1085   61.2268   87.8835 H         1 XX7501      0.0000 
     28 H          27.2847   59.3699   87.9818 H         1 XX7501      0.0000 
     29 H          30.1863   58.7280   87.3900 H         1 XX7501      0.0000 
     30 H          29.0515   59.5378   86.2960 H         1 XX7501      0.0000 
     31 H          27.0844   56.9354   88.4303 H         1 XX7501      0.0000 
     32 H          26.3804   57.8002   89.8075 H         1 XX7501      0.0000 
     33 H          26.6415   54.4551   91.1482 H         1 XX7501      0.0000 
     34 H          25.8963   56.0121   91.5490 H         1 XX7501      0.0000 
     35 H          25.0554   56.1736   87.4517 H         1 XX7501      0.0000 
     36 H          23.7070   56.8222   85.5521 H         1 XX7501      0.0000 
     37 H          21.3454   56.2816   85.5071 H         1 XX7501      0.0000 
     38 H          20.3376   55.1178   87.3713 H         1 XX7501      0.0000 
     39 H          19.6176   54.1397   88.8208 H         1 XX7501      0.0000 
     40 H          18.6907   53.0032   90.7398 H         1 XX7501      0.0000 
     41 H          20.0961   52.4765   92.6358 H         1 XX7501      0.0000 
     42 H          22.4362   53.0862   92.6169 H         1 XX7501      0.0000 
     43 H          24.2867   54.1563   91.5740 H         1 XX7501      0.0000 
     44 H          28.1136   56.5423   91.2246 H         1 XX7501      0.0000 
     45 H          27.2263   60.5863   89.9283 H         1 XX7501      0.0000 
     46 H          29.0547   57.3746   85.7449 H         1 XX7501      0.0000 
     47 H          29.1893   55.7994   89.2236 H         1 XX7501      0.0000 
@<TRIPOS>BOND
     1    2    1 1    
     2   45    1 1    
     3    3    2 1    
     4   26    2 1    
     5   27    2 1    
     6    4    3 1    
     7    6    3 1    
     8   28    3 1    
     9    5    4 1    
    10   29    4 1    
    11   30    4 1    
    12   46    5 1    
    13    7    6 1    
    14   25    7 1    
    15   31    7 1    
    16   32    7 1    
    17   25    8 1    
    18   47    8 1    
    19   10    9 1    
    20   25    9 1    
    21   33    9 1    
    22   34    9 1    
    23   11   10 1    
    24   12   11 ar   
    25   24   11 ar   
    26   13   12 ar   
    27   17   12 ar   
    28   14   13 ar   
    29   35   13 1    
    30   15   14 ar   
    31   36   14 1    
    32   16   15 ar   
    33   37   15 1    
    34   17   16 ar   
    35   38   16 1    
    36   18   17 ar   
    37   19   18 ar   
    38   23   18 ar   
    39   20   19 ar   
    40   39   19 1    
    41   21   20 ar   
    42   40   20 1    
    43   22   21 ar   
    44   41   21 1    
    45   23   22 ar   
    46   42   22 1    
    47   24   23 ar   
    48   43   24 1    
    49   44   25 1    
@<TRIPOS>SUBSTRUCTURE
     1 XX7501      1 GROUP   
@<TRIPOS>SET

