#    Name: 1nzq_162_1_INTS_M
#    Modification time : Mon Mar 24 19:13:31 2014

@<TRIPOS>MOLECULE
1nzq_162_1_INTS_M
   62     0     9     0     0
SMALL
NO_CHARGES


@<TRIPOS>ATOM
      1 N          15.6555   20.8695   24.2530 N.am      2 SEC2        0.0000 
      2 N          16.5320   20.3120   23.1870 N.am      8 SEL2        0.0000 
      3 N          14.7790   21.4270   25.3190 N.am      5 SEP2        0.0000 
      4 CA         20.1540   18.7255   28.0725 C.3       3 GLC5        0.0000 
      5 CA         19.8920   19.5320   26.0300 C.3       9 GLL5        0.0000 
      6 CA         20.4160   17.9190   30.1150 C.3       6 GLP5        0.0000 
      7 CA         18.5335   20.2880   26.9760 C.3       3 GLC5        0.0000 
      8 CA         17.1750   21.0440   27.9220 C.3       6 GLP5        0.0000 
      9 CA         21.0905   21.7400   24.6160 C.3       3 GLC5        0.0000 
     10 CA         21.2730   20.2400   26.0150 C.3       9 GLL5        0.0000 
     11 CA         20.9080   23.2400   23.2170 C.3       6 GLP5        0.0000 
     12 CA         19.6360   21.6065   26.1925 C.3       3 GLC5        0.0000 
     13 CA         17.9990   22.9730   26.3700 C.3       6 GLP5        0.0000 
     14 N          12.7870   16.2955   24.1985 N.am      2 SEC2        0.0000 
     15 N          14.0160   16.2950   23.2970 N.am      8 SEL2        0.0000 
     16 N          11.5580   16.2960   25.1000 N.am      5 SEP2        0.0000 
     17 CA         17.7975   22.0405   23.0490 C.3       3 GLC5        0.0000 
     18 CA         18.1070   21.4900   21.0880 C.3       9 GLL5        0.0000 
     19 CA         17.4880   22.5910   25.0100 C.3       6 GLP5        0.0000 
     20 O           8.9855   21.3020   25.1765 O.2       1 ALC1        0.0000 
     21 O          10.1960   21.2160   24.3680 O.2       7 ALL1        0.0000 
     22 O           7.7750   21.3880   25.9850 O.2       4 ALP1        0.0000 
     23 O          10.0900   19.7525   24.6050 O.2       1 ALC1        0.0000 
     24 O           9.9840   18.2890   24.8420 O.2       4 ALP1        0.0000 
     25 O           9.5310   23.4670   25.3305 O.2       1 ALC1        0.0000 
     26 O          11.0320   23.3550   24.7010 O.2       7 ALL1        0.0000 
     27 O           8.0300   23.5790   25.9600 O.2       4 ALP1        0.0000 
     28 CA         12.9340   20.0735   24.4840 C.3       3 GLC5        0.0000 
     29 CA         12.0890   19.4010   22.8550 C.3       9 GLL5        0.0000 
     30 CA         13.7790   20.7460   26.1130 C.3       6 GLP5        0.0000 
     31 CA         11.1505   17.6545   23.7905 C.3       3 GLC5        0.0000 
     32 CA         10.2120   15.9080   24.7260 C.3       6 GLP5        0.0000 
     33 CA         10.2965   19.1370   22.1750 C.3       3 GLC5        0.0000 
     34 CA          8.5040   18.8730   21.4950 C.3       6 GLP5        0.0000 
     35 CA         13.0655   19.9160   19.6565 C.3       3 GLC5        0.0000 
     36 CA         13.4670   21.0240   21.5430 C.3       9 GLL5        0.0000 
     37 CA         12.6640   18.8080   17.7700 C.3       6 GLP5        0.0000 
     38 CA         12.7015   24.9420   22.0530 C.3       3 GLC5        0.0000 
     39 CA         12.7820   22.9660   22.3700 C.3       9 GLL5        0.0000 
     40 CA         12.6210   26.9180   21.7360 C.3       6 GLP5        0.0000 
     41 CA         15.0145   24.5650   19.0800 C.3       3 GLC5        0.0000 
     42 CA         14.6040   23.0750   20.5230 C.3       9 GLL5        0.0000 
     43 CA         15.4250   26.0550   17.6370 C.3       6 GLP5        0.0000 
     44 CA         13.6125   24.9965   21.1295 C.3       3 GLC5        0.0000 
     45 CA         15.3765   23.1595   22.5745 C.3       3 GLC5        0.0000 
     46 CA         16.1490   23.2440   24.6260 C.3       6 GLP5        0.0000 
     47 O          16.6130   23.7500   21.7830 O.2       1 ALC1        0.0000 
     48 O          16.0090   22.8310   20.9630 O.2       7 ALL1        0.0000 
     49 O          17.2170   24.6690   22.6030 O.2       4 ALP1        0.0000 
     50 CA         18.2020   20.5843   24.8310 C.3       3 GLC5        0.0000 
     51 CA         19.6100   18.9040   24.6510 C.3       9 GLL5        0.0000 
     52 CA         23.0738   20.7928   26.9892 C.3       3 GLC5        0.0000 
     53 CA         24.3140   21.8470   28.1500 C.3       6 GLP5        0.0000 
     54 CA         18.8795   23.0902   19.4468 C.3       3 GLC5        0.0000 
     55 CA         19.1610   24.6700   18.3790 C.3       6 GLP5        0.0000 
     56 CA         19.7530   22.3753   21.8657 C.3       3 GLC5        0.0000 
     57 CA         19.0890   21.5310   19.9410 C.3       9 GLL5        0.0000 
     58 CA         10.7145   22.2285   21.4917 C.3       3 GLC5        0.0000 
     59 CA          8.9910   21.9890   20.2940 C.3       6 GLP5        0.0000 
     60 CA         13.1085   21.6070   24.4013 C.3       3 GLC5        0.0000 
     61 CA         12.0940   21.9700   23.0090 C.3       9 GLL5        0.0000 
     62 CA         14.6803   22.9537   23.2685 C.3       3 GLC5        0.0000 
@<TRIPOS>BOND
@<TRIPOS>SUBSTRUCTURE
     1 ALC1       20 GROUP        1 X    ALC  0     ROOT ALC X 1
     2 SEC2        1 GROUP        1 X    SEC  0     **** SEC X 2
     3 GLC5        4 GROUP        1 X    GLC  0     **** GLC X 6
     4 ALP1       22 GROUP        1 Y    ALP  0     ROOT ALP Y 8
     5 SEP2        3 GROUP        1 Y    SEP  0     **** SEP Y 9
     6 GLP5        6 GROUP        1 Y    GLP  0     **** GLP Y 13
     7 ALL1       21 GROUP        1 Z    ALL  0     ROOT ALL Z 15
     8 SEL2        2 GROUP        1 Z    SEL  0     **** SEL Z 16
     9 GLL5        5 GROUP        1 Z    GLL  0     **** GLL Z 20
@<TRIPOS>SET

