#    Name: 1nzq_162_1_ligand
#    Modification time : Mon Mar 24 19:13:31 2014

@<TRIPOS>MOLECULE
1nzq_162_1_ligand
   64    66     1     0     0
SMALL
NO_CHARGES


@<TRIPOS>ATOM
      1 C12        17.4130   19.6270   22.7030 C.2       1 162248      0.0000 
      2 O1         16.5320   20.3120   23.1870 O.2       1 162248      0.0000 
      3 C13        17.6080   18.2190   23.2290 C.3       1 162248      0.0000 
      4 C14        18.2220   18.2510   24.6530 C.3       1 162248      0.0000 
      5 C15        19.6100   18.9040   24.6510 C.3       1 162248      0.0000 
      6 C16        19.8920   19.5320   26.0300 C.3       1 162248      0.0000 
      7 C17        21.2730   20.2400   26.0150 C.3       1 162248      0.0000 
      8 C18        22.3940   19.2370   25.6420 C.3       1 162248      0.0000 
      9 C19        22.0830   18.5470   24.2870 C.3       1 162248      0.0000 
     10 C20        20.6970   17.8530   24.3330 C.3       1 162248      0.0000 
     11 N5         16.2780   17.5780   23.2610 N.4       1 162248      0.0000 
     12 C21        16.3760   16.1250   23.4350 C.3       1 162248      0.0000 
     13 C22        14.9790   15.5680   23.5110 C.2       1 162248      0.0000 
     14 O2         14.8070   14.3900   23.7850 O.co2     1 162248      0.0000 
     15 O3         14.0160   16.2950   23.2970 O.co2     1 162248      0.0000 
     16 O          16.1710   20.8500   19.8900 O.2       1 162248      0.0000 
     17 C7         16.6940   21.7070   20.5950 C.2       1 162248      0.0000 
     18 C8         18.1070   21.4900   21.0880 C.2       1 162248      0.0000 
     19 C9         19.0890   21.5310   19.9410 C.2       1 162248      0.0000 
     20 C10        19.7600   20.4080   19.8760 C.2       1 162248      0.0000 
     21 C11        19.3130   19.4720   20.9700 C.2       1 162248      0.0000 
     22 N4         18.1970   20.1370   21.6970 N.am      1 162248      0.0000 
     23 N          10.1960   21.2160   24.3680 N.pl3     1 162248      0.0000 
     24 C          11.0810   22.1810   24.0600 C.ar      1 162248      0.0000 
     25 N1         11.0320   23.3550   24.7010 N.pl3     1 162248      0.0000 
     26 C1         12.0940   21.9700   23.0090 C.2       1 162248      0.0000 
     27 N2         12.5350   20.7590   22.4820 N.pl3     1 162248      0.0000 
     28 C2         12.0890   19.4010   22.8550 C.3       1 162248      0.0000 
     29 C3         13.4670   21.0240   21.5430 C.2       1 162248      0.0000 
     30 C4         12.7820   22.9660   22.3700 C.2       1 162248      0.0000 
     31 C5         13.6410   22.3610   21.4520 C.2       1 162248      0.0000 
     32 C6         14.6040   23.0750   20.5230 C.3       1 162248      0.0000 
     33 N3         16.0090   22.8310   20.9630 N.am      1 162248      0.0000 
     34 H          18.2632   17.6874   22.5797 H         1 162248      0.0000 
     35 H          18.3027   17.2304   25.0220 H         1 162248      0.0000 
     36 H          17.5585   18.8131   25.3073 H         1 162248      0.0000 
     37 H          19.6406   19.6710   23.9081 H         1 162248      0.0000 
     38 H          19.9027   18.7565   26.7824 H         1 162248      0.0000 
     39 H          19.1262   20.2600   26.2565 H         1 162248      0.0000 
     40 H          21.4727   20.6462   26.9982 H         1 162248      0.0000 
     41 H          21.2531   21.0382   25.2842 H         1 162248      0.0000 
     42 H          22.4663   18.4818   26.4148 H         1 162248      0.0000 
     43 H          23.3337   19.7691   25.5602 H         1 162248      0.0000 
     44 H          22.8448   17.8046   24.0850 H         1 162248      0.0000 
     45 H          22.0801   19.2932   23.5025 H         1 162248      0.0000 
     46 H          20.4931   17.4075   23.3729 H         1 162248      0.0000 
     47 H          20.7039   17.1013   25.1055 H         1 162248      0.0000 
     48 H          16.9051   15.8834   24.3530 H         1 162248      0.0000 
     49 H          16.8937   15.6720   22.5937 H         1 162248      0.0000 
     50 H          19.1319   22.3213   19.3985 H         1 162248      0.0000 
     51 H          20.4467   20.1203   19.2720 H         1 162248      0.0000 
     52 H          19.6639   18.6608   21.1434 H         1 162248      0.0000 
     53 H           9.5200   21.4461   25.0680 H         1 162248      0.0000 
     54 H          10.2930   20.3546   23.8695 H         1 162248      0.0000 
     55 H          11.7141   24.0337   24.4289 H         1 162248      0.0000 
     56 H          10.3177   23.4482   25.3946 H         1 162248      0.0000 
     57 H          13.9389   20.3597   21.0153 H         1 162248      0.0000 
     58 H          12.7010   23.8988   22.5135 H         1 162248      0.0000 
     59 H          14.3879   24.1433   20.5390 H         1 162248      0.0000 
     60 H          14.4608   22.7038   19.5082 H         1 162248      0.0000 
     61 H          16.4263   23.5602   21.5584 H         1 162248      0.0000 
     62 H          12.5605   18.6965   22.3246 H         1 162248      0.0000 
     63 H          12.2613   19.2056   23.8205 H         1 162248      0.0000 
     64 H          11.1087   19.2767   22.7012 H         1 162248      0.0000 
@<TRIPOS>BOND
     1    2    1 2    
     2    3    1 1    
     3   22    1 am   
     4    4    3 1    
     5   11    3 1    
     6   34    3 1    
     7    5    4 1    
     8   35    4 1    
     9   36    4 1    
    10    6    5 1    
    11   10    5 1    
    12   37    5 1    
    13    7    6 1    
    14   38    6 1    
    15   39    6 1    
    16    8    7 1    
    17   40    7 1    
    18   41    7 1    
    19    9    8 1    
    20   42    8 1    
    21   43    8 1    
    22   10    9 1    
    23   44    9 1    
    24   45    9 1    
    25   46   10 1    
    26   47   10 1    
    27   12   11 1    
    28   13   12 1    
    29   48   12 1    
    30   49   12 1    
    31   14   13 ar   
    32   15   13 ar   
    33   17   16 2    
    34   18   17 1    
    35   33   17 am   
    36   19   18 2    
    37   22   18 1    
    38   20   19 1    
    39   50   19 1    
    40   21   20 2    
    41   51   20 1    
    42   22   21 1    
    43   52   21 1    
    44   24   23 ar   
    45   53   23 1    
    46   54   23 1    
    47   25   24 ar   
    48   26   24 1    
    49   55   25 1    
    50   56   25 1    
    51   27   26 1    
    52   30   26 2    
    53   28   27 1    
    54   29   27 1    
    55   62   28 1    
    56   63   28 1    
    57   64   28 1    
    58   31   29 2    
    59   57   29 1    
    60   31   30 1    
    61   58   30 1    
    62   32   31 1    
    63   33   32 1    
    64   59   32 1    
    65   60   32 1    
    66   61   33 1    
@<TRIPOS>SUBSTRUCTURE
     1 162248      1 GROUP   
@<TRIPOS>SET

