#    Name: 3sos_O61_1_INTS_M
#    Modification time : Mon Mar 24 18:00:49 2014

@<TRIPOS>MOLECULE
3sos_O61_1_INTS_M
   73     0     9     0     0
SMALL
NO_CHARGES


@<TRIPOS>ATOM
      1 CA        -16.2420  -21.2310   14.4965 C.3       3 GLC5        0.0000 
      2 CA        -14.3510  -21.6330   14.9050 C.3       9 GLL5        0.0000 
      3 CA        -18.1330  -20.8290   14.0880 C.3       6 GLP5        0.0000 
      4 CA         -9.8305  -20.6185   15.0810 C.3       3 GLC5        0.0000 
      5 CA        -11.5700  -21.9170   14.9400 C.3       9 GLL5        0.0000 
      6 CA         -8.0910  -19.3200   15.2220 C.3       6 GLP5        0.0000 
      7 CA        -12.0425  -19.8560   15.4615 C.3       3 GLC5        0.0000 
      8 CA        -12.5150  -17.7950   15.9830 C.3       6 GLP5        0.0000 
      9 O         -15.7935  -22.6250   16.6160 O.2       1 ALC1        0.0000 
     10 O         -14.5220  -23.1330   16.8790 O.2       7 ALL1        0.0000 
     11 O         -17.0650  -22.1170   16.3530 O.2       4 ALP1        0.0000 
     12 CA        -10.1145  -22.6900   18.0115 C.3       3 GLC5        0.0000 
     13 CA        -11.4970  -23.6020   17.0850 C.3       9 GLL5        0.0000 
     14 CA         -8.7320  -21.7780   18.9380 C.3       6 GLP5        0.0000 
     15 CA         -9.8205  -18.1905   13.3835 C.3       3 GLC5        0.0000 
     16 CA        -10.8740  -18.4320   11.5240 C.3       9 GLL5        0.0000 
     17 CA         -8.7670  -17.9490   15.2430 C.3       6 GLP5        0.0000 
     18 N         -11.1440  -17.1940   14.2255 N.am      2 SEC2        0.0000 
     19 N         -11.1020  -16.5640   13.0870 N.am      8 SEL2        0.0000 
     20 N         -11.1860  -17.8240   15.3640 N.am      5 SEP2        0.0000 
     21 N         -12.0720  -15.3715   13.3575 N.am      2 SEC2        0.0000 
     22 N         -13.0420  -14.1790   13.6280 N.am      5 SEP2        0.0000 
     23 CA        -15.1495  -18.4025   10.3400 C.3       3 GLC5        0.0000 
     24 CA        -13.6240  -19.6260    9.3020 C.3       9 GLL5        0.0000 
     25 CA        -16.6750  -17.1790   11.3780 C.3       6 GLP5        0.0000 
     26 CA        -14.0845  -21.8900    6.1285 C.3       3 GLC5        0.0000 
     27 CA        -13.1720  -21.6830    8.0840 C.3       9 GLL5        0.0000 
     28 CA        -14.9970  -22.0970    4.1730 C.3       6 GLP5        0.0000 
     29 CA         -8.2920  -10.0055   13.7075 C.3       3 GLC5        0.0000 
     30 CA         -7.7980   -9.3880   12.0250 C.3       9 GLL5        0.0000 
     31 CA         -8.7860  -10.6230   15.3900 C.3       6 GLP5        0.0000 
     32 CA         -9.4560  -10.0330   12.5085 C.3       3 GLC5        0.0000 
     33 CA        -11.1140  -10.6780   12.9920 C.3       6 GLP5        0.0000 
     34 CA         -6.3695   -8.4005   11.7670 C.3       3 GLC5        0.0000 
     35 CA         -4.9410   -7.4130   11.5090 C.3       6 GLP5        0.0000 
     36 CA         -8.4690   -7.8965   12.6335 C.3       3 GLC5        0.0000 
     37 CA         -9.1400   -6.4050   13.2420 C.3       6 GLP5        0.0000 
     38 CA         -8.9225  -16.5400   13.6670 C.3       3 GLC5        0.0000 
     39 CA         -9.0780  -15.1310   12.0910 C.3       9 GLL5        0.0000 
     40 CA        -11.2145  -15.0295   11.6945 C.3       3 GLC5        0.0000 
     41 CA        -13.3510  -14.9280   11.2980 C.3       6 GLP5        0.0000 
     42 CA        -13.0586  -19.5646   15.2070 C.3       3 GLC5        0.0000 
     43 CA        -12.1550  -21.0960   13.9640 C.3       9 GLL5        0.0000 
     44 CA        -13.1212  -21.3455   17.4662 C.3       3 GLC5        0.0000 
     45 CA        -13.7510  -22.4510   15.8950 C.3       9 GLL5        0.0000 
     46 CA        -13.1940  -20.1720   19.0390 C.3       6 GLP5        0.0000 
     47 CA        -12.8298  -22.8713   18.4410 C.3       3 GLC5        0.0000 
     48 CA        -13.5280  -21.4980   19.6950 C.3       6 GLP5        0.0000 
     49 CA        -12.3392  -16.6195   11.1052 C.3       3 GLC5        0.0000 
     50 CA        -11.9503  -17.4745    8.4157 C.3       3 GLC5        0.0000 
     51 CA        -11.7810  -18.1900   10.3010 C.3       9 GLL5        0.0000 
     52 CA        -11.8860  -16.1420    6.9090 C.3       6 GLP5        0.0000 
     53 CA        -15.5258  -19.1390    8.3975 C.3       3 GLC5        0.0000 
     54 CA        -17.1990  -18.0910    7.8540 C.3       6 GLP5        0.0000 
     55 CA         -6.3845  -13.8063   14.3723 C.3       3 GLC5        0.0000 
     56 CA         -5.9850  -13.5740   12.3040 C.3       9 GLL5        0.0000 
     57 CA         -7.1350  -14.5970   16.1990 C.3       6 GLP5        0.0000 
     58 CA         -4.7240  -14.2603   14.0518 C.3       3 GLC5        0.0000 
     59 CA         -5.2830  -12.4570   12.7870 C.3       9 GLL5        0.0000 
     60 CA         -3.8140  -15.5050   15.5580 C.3       6 GLP5        0.0000 
     61 CA         -5.7107   -9.2452   11.9578 C.3       3 GLC5        0.0000 
     62 CA         -7.1100  -10.9780   12.1180 C.3       9 GLL5        0.0000 
     63 CA         -9.2883  -11.1013   12.4307 C.3       3 GLC5        0.0000 
     64 CA         -7.4128  -11.8313   10.0048 C.3       3 GLC5        0.0000 
     65 CA         -7.8150  -12.0710   11.6210 C.3       9 GLL5        0.0000 
     66 CA         -7.3630  -12.1380    8.1400 C.3       6 GLP5        0.0000 
     67 CA         -5.0962  -11.5403   10.9177 C.3       3 GLC5        0.0000 
     68 CA         -3.8540  -11.6830    9.4060 C.3       6 GLP5        0.0000 
     69 CA         -7.9669  -11.0986   13.7019 C.3       3 GLC5        0.0000 
     70 CA         -5.8510  -11.1770   12.6950 C.3       9 GLL5        0.0000 
     71 CA         -7.5303  -13.0248    9.7795 C.3       3 GLC5        0.0000 
     72 CA         -7.2670  -13.3670   11.7160 C.3       9 GLL5        0.0000 
     73 CA         -5.2400  -12.5768   10.7080 C.3       3 GLC5        0.0000 
@<TRIPOS>BOND
@<TRIPOS>SUBSTRUCTURE
     1 ALC1        9 GROUP        1 X    ALC  0     ROOT ALC X 1
     2 SEC2       18 GROUP        1 X    SEC  0     **** SEC X 2
     3 GLC5        1 GROUP        1 X    GLC  0     **** GLC X 6
     4 ALP1       11 GROUP        1 Y    ALP  0     ROOT ALP Y 8
     5 SEP2       20 GROUP        1 Y    SEP  0     **** SEP Y 9
     6 GLP5        3 GROUP        1 Y    GLP  0     **** GLP Y 13
     7 ALL1       10 GROUP        1 Z    ALL  0     ROOT ALL Z 15
     8 SEL2       19 GROUP        1 Z    SEL  0     **** SEL Z 16
     9 GLL5        2 GROUP        1 Z    GLL  0     **** GLL Z 20
@<TRIPOS>SET

