#    Name: 3sos_O61_1_ligand
#    Modification time : Mon Mar 24 18:00:49 2014

@<TRIPOS>MOLECULE
3sos_O61_1_ligand
   63    67     1     0     0
SMALL
NO_CHARGES


@<TRIPOS>ATOM
      1 C20       -11.2460  -20.4500   12.9580 C.2       1 O61703      0.0000 
      2 C21       -12.1550  -21.0960   13.9640 C.ar      1 O61703      0.0000 
      3 O22       -10.2530  -21.0490   12.5210 O.2       1 O61703      0.0000 
      4 C23       -13.5520  -20.9750   13.9500 C.ar      1 O61703      0.0000 
      5 C24       -14.3510  -21.6330   14.9050 C.ar      1 O61703      0.0000 
      6 C25       -11.5700  -21.9170   14.9400 C.ar      1 O61703      0.0000 
      7 C26       -12.3460  -22.5870   15.8920 C.ar      1 O61703      0.0000 
      8 C27       -13.7510  -22.4510   15.8950 C.ar      1 O61703      0.0000 
      9 N28       -14.5220  -23.1330   16.8790 N.am      1 O61703      0.0000 
     10 C29       -14.1480  -24.2980   17.5320 C.2       1 O61703      0.0000 
     11 C30       -12.7660  -24.8870   17.2890 C.3       1 O61703      0.0000 
     12 S31       -11.4970  -23.6020   17.0850 S.3       1 O61703      0.0000 
     13 O32       -14.9270  -24.8520   18.3080 O.2       1 O61703      0.0000 
     14 N19       -11.6020  -19.2030   12.5350 N.am      1 O61703      0.0000 
     15 C17       -10.8740  -18.4320   11.5240 C.3       1 O61703      0.0000 
     16 C16       -10.5070  -17.0670   12.1290 C.2       1 O61703      0.0000 
     17 O39       -11.1020  -16.5640   13.0870 O.2       1 O61703      0.0000 
     18 C18       -11.7810  -18.1900   10.3010 C.3       1 O61703      0.0000 
     19 C33       -12.2480  -19.4240    9.5440 C.ar      1 O61703      0.0000 
     20 C34       -11.3330  -20.3840    9.0580 C.ar      1 O61703      0.0000 
     21 C38       -13.6240  -19.6260    9.3020 C.ar      1 O61703      0.0000 
     22 C35       -11.8020  -21.5030    8.3460 C.ar      1 O61703      0.0000 
     23 C37       -14.0810  -20.7480    8.5800 C.ar      1 O61703      0.0000 
     24 C36       -13.1720  -21.6830    8.0840 C.ar      1 O61703      0.0000 
     25 C1         -5.2830  -12.4570   12.7870 C.ar      1 O61703      0.0000 
     26 C2         -5.8510  -11.1770   12.6950 C.ar      1 O61703      0.0000 
     27 C3         -7.1100  -10.9780   12.1180 C.ar      1 O61703      0.0000 
     28 C4         -7.8150  -12.0710   11.6210 C.ar      1 O61703      0.0000 
     29 C5         -7.2670  -13.3670   11.7160 C.ar      1 O61703      0.0000 
     30 C6         -5.9850  -13.5740   12.3040 C.ar      1 O61703      0.0000 
     31 CL7        -7.7980   -9.3880   12.0250 Cl        1 O61703      0.0000 
     32 N8         -5.4120  -14.8940   12.3780 N.pl3     1 O61703      0.0000 
     33 C9         -5.8560  -16.0070   13.0650 C.2       1 O61703      0.0000 
     34 N10        -5.0630  -17.0360   12.8280 N.2       1 O61703      0.0000 
     35 N11        -4.1110  -16.5840   11.9640 N.2       1 O61703      0.0000 
     36 N12        -4.3120  -15.2970   11.6830 N.2       1 O61703      0.0000 
     37 C13        -8.1280  -14.4560   11.1220 C.3       1 O61703      0.0000 
     38 C14        -9.0780  -15.1310   12.0910 C.3       1 O61703      0.0000 
     39 N15        -9.4580  -16.4170   11.5430 N.am      1 O61703      0.0000 
     40 H         -14.0054  -20.3938   13.2278 H         1 O61703      0.0000 
     41 H         -15.3672  -21.5229   14.8876 H         1 O61703      0.0000 
     42 H         -10.5408  -22.0283   14.9545 H         1 O61703      0.0000 
     43 H         -15.4622  -22.7009   17.1240 H         1 O61703      0.0000 
     44 H         -12.6848  -25.4325   16.3704 H         1 O61703      0.0000 
     45 H         -12.3855  -25.4508   18.1169 H         1 O61703      0.0000 
     46 H         -12.4511  -18.7278   12.9378 H         1 O61703      0.0000 
     47 H          -9.9918  -18.9211   11.2141 H         1 O61703      0.0000 
     48 H         -11.2419  -17.5163    9.5970 H         1 O61703      0.0000 
     49 H         -12.6722  -17.6139   10.6385 H         1 O61703      0.0000 
     50 H         -10.3325  -20.2637    9.2246 H         1 O61703      0.0000 
     51 H         -14.3056  -18.9418    9.6592 H         1 O61703      0.0000 
     52 H         -11.1259  -22.2071    8.0086 H         1 O61703      0.0000 
     53 H         -15.0874  -20.8712    8.4224 H         1 O61703      0.0000 
     54 H         -13.4895  -22.4826    7.5419 H         1 O61703      0.0000 
     55 H          -4.3566  -12.5776   13.2062 H         1 O61703      0.0000 
     56 H          -5.3262  -10.3645   13.0621 H         1 O61703      0.0000 
     57 H          -8.7334  -11.9420   11.1844 H         1 O61703      0.0000 
     58 H          -6.6483  -15.9992   13.6367 H         1 O61703      0.0000 
     59 H          -7.4707  -15.2294   10.6690 H         1 O61703      0.0000 
     60 H          -8.7177  -14.0318   10.2807 H         1 O61703      0.0000 
     61 H          -9.9473  -14.4881   12.2276 H         1 O61703      0.0000 
     62 H          -8.5716  -15.2447   13.0493 H         1 O61703      0.0000 
     63 H          -8.9445  -16.7842   10.7601 H         1 O61703      0.0000 
@<TRIPOS>BOND
     1    2    1 1    
     2    3    1 2    
     3   14    1 am   
     4    4    2 ar   
     5    6    2 ar   
     6    5    4 ar   
     7   40    4 1    
     8    8    5 ar   
     9   41    5 1    
    10    7    6 ar   
    11   42    6 1    
    12    8    7 ar   
    13   12    7 1    
    14    9    8 1    
    15   10    9 am   
    16   43    9 1    
    17   11   10 1    
    18   13   10 2    
    19   12   11 1    
    20   44   11 1    
    21   45   11 1    
    22   15   14 1    
    23   46   14 1    
    24   16   15 1    
    25   18   15 1    
    26   47   15 1    
    27   17   16 2    
    28   39   16 am   
    29   19   18 1    
    30   48   18 1    
    31   49   18 1    
    32   20   19 ar   
    33   21   19 ar   
    34   22   20 ar   
    35   50   20 1    
    36   23   21 ar   
    37   51   21 1    
    38   24   22 ar   
    39   52   22 1    
    40   24   23 ar   
    41   53   23 1    
    42   54   24 1    
    43   26   25 ar   
    44   30   25 ar   
    45   55   25 1    
    46   27   26 ar   
    47   56   26 1    
    48   28   27 ar   
    49   31   27 1    
    50   29   28 ar   
    51   57   28 1    
    52   30   29 ar   
    53   37   29 1    
    54   32   30 1    
    55   33   32 1    
    56   36   32 1    
    57   34   33 2    
    58   58   33 1    
    59   35   34 1    
    60   36   35 2    
    61   38   37 1    
    62   59   37 1    
    63   60   37 1    
    64   39   38 1    
    65   61   38 1    
    66   62   38 1    
    67   63   39 1    
@<TRIPOS>SUBSTRUCTURE
     1 O61703      1 GROUP   
@<TRIPOS>SET

