#    Name: 2q6c_HR1_4_INTS_M
#    Modification time : Mon Mar 24 20:55:20 2014

@<TRIPOS>MOLECULE
2q6c_HR1_4_INTS_M
   88     0    12     0     0
SMALL
NO_CHARGES


@<TRIPOS>ATOM
      1 CA         60.5915  -15.1350   32.3850 C.3       4 GLC5        0.0000 
      2 CA         58.6120  -14.9400   32.1060 C.3      12 GLL5        0.0000 
      3 CA         62.5710  -15.3300   32.6640 C.3       8 GLP5        0.0000 
      4 CA         61.1205  -11.9995   31.6470 C.3       4 GLC5        0.0000 
      5 CA         59.5770  -12.6250   30.4120 C.3      12 GLL5        0.0000 
      6 CA         62.6640  -11.3740   32.8820 C.3       8 GLP5        0.0000 
      7 CA         59.2665  -10.4945   30.4700 C.3       4 GLC5        0.0000 
      8 CA         58.9560   -8.3640   30.5280 C.3       8 GLP5        0.0000 
      9 CA         55.2595  -13.5280   34.6985 C.3       4 GLC5        0.0000 
     10 CA         56.7440  -15.0490   34.8850 C.3      12 GLL5        0.0000 
     11 CA         53.7750  -12.0070   34.5120 C.3       8 GLP5        0.0000 
     12 CA         55.5240  -16.3840   35.9400 C.3       4 GLC5        0.0000 
     13 CA         54.3040  -17.7190   36.9950 C.3       8 GLP5        0.0000 
     14 CA         60.0125  -21.9920   35.2870 C.3       4 GLC5        0.0000 
     15 CA         58.3270  -21.9900   36.3380 C.3      12 GLL5        0.0000 
     16 CA         61.6980  -21.9940   34.2360 C.3       8 GLP5        0.0000 
     17 CA         54.4585  -20.2175   36.3190 C.3       4 GLC5        0.0000 
     18 CA         55.9770  -21.5800   35.9760 C.3      12 GLL5        0.0000 
     19 CA         52.9400  -18.8550   36.6620 C.3       8 GLP5        0.0000 
     20 CA         58.9165  -13.5150   36.5175 C.3       4 GLC5        0.0000 
     21 CA         59.2640  -15.1860   35.3140 C.3      12 GLL5        0.0000 
     22 CA         58.5690  -11.8440   37.7210 C.3       8 GLP5        0.0000 
     23 CA         60.4535  -16.4115   34.1505 C.3       4 GLC5        0.0000 
     24 CA         61.6430  -17.6370   32.9870 C.3       8 GLP5        0.0000 
     25 CA         59.8395  -18.9150   32.6080 C.3       4 GLC5        0.0000 
     26 CA         58.0360  -20.1930   32.2290 C.3      12 GLL5        0.0000 
     27 N          58.3970  -11.4805   32.6725 N.am      2 SEC2        0.0000 
     28 N          57.6280  -12.1890   31.7000 N.am     10 SEL2        0.0000 
     29 N          59.1660  -10.7720   33.6450 N.am      6 SEP2        0.0000 
     30 N          57.2550  -10.7540   31.6145 N.am      2 SEC2        0.0000 
     31 N          56.8820   -9.3190   31.5290 N.am      6 SEP2        0.0000 
     32 O          56.3640  -12.2750   32.1415 O.2       1 ALC1        0.0000 
     33 O          57.6280  -12.1890   31.7000 O.2       9 ALL1        0.0000 
     34 O          55.1000  -12.3610   32.5830 O.2       5 ALP1        0.0000 
     35 N          59.6665  -13.8230   26.6870 N.am      2 SEC2        0.0000 
     36 N          59.5660  -13.2100   28.0900 N.am     10 SEL2        0.0000 
     37 N          59.7670  -14.4360   25.2840 N.am      6 SEP2        0.0000 
     38 N          58.6220  -14.0465   27.1005 N.am      2 SEC2        0.0000 
     39 N          57.6780  -14.8830   26.1110 N.am      6 SEP2        0.0000 
     40 O          59.0760  -12.0050   27.9140 O.2       1 ALC1        0.0000 
     41 O          59.5660  -13.2100   28.0900 O.2       9 ALL1        0.0000 
     42 O          58.5860  -10.8000   27.7380 O.2       5 ALP1        0.0000 
     43 CA         62.1860  -12.1615   31.0090 C.3       4 GLC5        0.0000 
     44 CA         61.7080  -12.9490   29.1360 C.3      12 GLL5        0.0000 
     45 CA         62.1395  -14.1395   30.9000 C.3       4 GLC5        0.0000 
     46 CA         60.8950  -11.7350   27.4905 C.3       4 GLC5        0.0000 
     47 CA         60.0820  -10.5210   25.8450 C.3       8 GLP5        0.0000 
     48 NZ         64.0215  -14.5195   27.2830 N.4       3 LYC4        0.0000 
     49 NZ         62.7010  -13.4550   27.0340 N.4      11 LYL4        0.0000 
     50 NZ         65.3420  -15.5840   27.5320 N.4       7 LYP4        0.0000 
     51 NZ         63.6370  -12.2725   27.3485 N.4       3 LYC4        0.0000 
     52 NZ         64.5730  -11.0900   27.6630 N.4       7 LYP4        0.0000 
     53 N          62.9785  -14.4150   26.1980 N.am      2 SEC2        0.0000 
     54 N          62.7010  -13.4550   27.0340 N.am     10 SEL2        0.0000 
     55 N          63.2560  -15.3750   25.3620 N.am      6 SEP2        0.0000 
     56 NZ         64.1055  -15.2720   28.0750 N.4       3 LYC4        0.0000 
     57 NZ         62.8690  -14.9600   28.6180 N.4      11 LYL4        0.0000 
     58 N          64.1055  -15.2720   28.0750 N.am      2 SEC2        0.0000 
     59 N          62.8690  -14.9600   28.6180 N.am     10 SEL2        0.0000 
     60 N          65.3420  -15.5840   27.5320 N.am      6 SEP2        0.0000 
     61 N          63.0625  -15.1675   26.9900 N.am      2 SEC2        0.0000 
     62 CA         56.8775  -14.6480   36.7875 C.3       4 GLC5        0.0000 
     63 CA         57.9700  -15.9530   35.0270 C.3      12 GLL5        0.0000 
     64 CA         56.3980  -13.7950   38.6190 C.3       8 GLP5        0.0000 
     65 CA         59.0190  -16.3267   37.0637 C.3       4 GLC5        0.0000 
     66 CA         59.4210  -17.0840   38.9570 C.3       8 GLP5        0.0000 
     67 CA         56.2957  -14.2592   30.0490 C.3       4 GLC5        0.0000 
     68 CA         57.8150  -14.4530   30.9030 C.3      12 GLL5        0.0000 
     69 CA         54.6370  -14.8060   29.3410 C.3       8 GLP5        0.0000 
     70 CA         56.1275  -16.7802   28.1872 C.3       4 GLC5        0.0000 
     71 CA         57.5980  -18.0450   29.3610 C.3      12 GLL5        0.0000 
     72 CA         54.5700  -15.4790   27.7030 C.3       8 GLP5        0.0000 
     73 CA         60.4488  -17.5390   31.4435 C.3       4 GLC5        0.0000 
     74 CA         59.8630  -17.2580   29.6180 C.3      12 GLL5        0.0000 
     75 CA         61.3058  -18.6525   29.0020 C.3       4 GLC5        0.0000 
     76 CA         62.6640  -20.0150   29.0750 C.3       8 GLP5        0.0000 
     77 CA         59.7025  -21.8475   33.7280 C.3       4 GLC5        0.0000 
     78 CA         57.7590  -21.0090   33.3220 C.3      12 GLL5        0.0000 
     79 CA         59.2455  -17.1133   25.0180 C.3       4 GLC5        0.0000 
     80 CA         58.9920  -17.7520   27.4230 C.3      12 GLL5        0.0000 
     81 CA         59.4110  -16.4450   23.2790 C.3       8 GLP5        0.0000 
     82 CA         59.8173  -19.2954   26.6781 C.3       4 GLC5        0.0000 
     83 CA         59.1680  -17.8110   26.0910 C.3      12 GLL5        0.0000 
     84 CA         60.4470  -20.8710   26.3250 C.3       8 GLP5        0.0000 
     85 CA         61.0000  -17.1595   26.2636 C.3       4 GLC5        0.0000 
     86 CA         62.6600  -16.6450   25.5660 C.3       8 GLP5        0.0000 
     87 CA         59.9391  -17.4549   32.8675 C.3       4 GLC5        0.0000 
     88 CA         58.4080  -17.5800   31.6520 C.3      12 GLL5        0.0000 
@<TRIPOS>BOND
@<TRIPOS>SUBSTRUCTURE
     1 ALC1       32 GROUP        1 X    ALC  0     ROOT ALC X 1
     2 SEC2       27 GROUP        1 X    SEC  0     **** SEC X 2
     3 LYC4       48 GROUP        1 X    LYC  0     **** LYC X 4
     4 GLC5        1 GROUP        1 X    GLC  0     **** GLC X 6
     5 ALP1       34 GROUP        1 Y    ALP  0     ROOT ALP Y 8
     6 SEP2       29 GROUP        1 Y    SEP  0     **** SEP Y 9
     7 LYP4       50 GROUP        1 Y    LYP  0     **** LYP Y 11
     8 GLP5        3 GROUP        1 Y    GLP  0     **** GLP Y 13
     9 ALL1       33 GROUP        1 Z    ALL  0     ROOT ALL Z 15
    10 SEL2       28 GROUP        1 Z    SEL  0     **** SEL Z 16
    11 LYL4       49 GROUP        1 Z    LYL  0     **** LYL Z 18
    12 GLL5        2 GROUP        1 Z    GLL  0     **** GLL Z 20
@<TRIPOS>SET

