#    Name: 2q6c_HR1_4_ligand
#    Modification time : Mon Mar 24 20:55:20 2014

@<TRIPOS>MOLECULE
2q6c_HR1_4_ligand
   73    77     1     0     0
SMALL
NO_CHARGES


@<TRIPOS>ATOM
      1 N1         58.1010  -16.8220   33.8130 N.pl3     1 HR13003     0.0000 
      2 C4         55.6590  -22.4420   37.0230 C.ar      1 HR13003     0.0000 
      3 C5         58.4080  -17.5800   31.6520 C.2       1 HR13003     0.0000 
      4 C6         57.9700  -15.9530   35.0270 C.3       1 HR13003     0.0000 
      5 C7         58.6120  -14.9400   32.1060 C.3       1 HR13003     0.0000 
      6 C8         57.8150  -14.4530   30.9030 C.3       1 HR13003     0.0000 
      7 C10        59.5770  -12.6250   30.4120 C.3       1 HR13003     0.0000 
      8 C13        56.7440  -15.0490   34.8850 C.3       1 HR13003     0.0000 
      9 C15        57.7720  -18.1180   27.9820 C.ar      1 HR13003     0.0000 
     10 C17        58.3270  -21.9900   36.3380 C.ar      1 HR13003     0.0000 
     11 C20        57.3090  -21.3500   35.6350 C.ar      1 HR13003     0.0000 
     12 C21        59.8630  -17.2580   29.6180 C.ar      1 HR13003     0.0000 
     13 C22        58.0980  -22.1220   30.7690 C.ar      1 HR13003     0.0000 
     14 C24        60.0320  -17.3220   28.2400 C.ar      1 HR13003     0.0000 
     15 C26        55.9770  -21.5800   35.9760 C.ar      1 HR13003     0.0000 
     16 C28        57.8220  -22.9440   31.8520 C.ar      1 HR13003     0.0000 
     17 O1         57.5160  -18.7680   36.0080 O.2       1 HR13003     0.0000 
     18 C3         57.6830  -19.1460   34.8290 C.2       1 HR13003     0.0000 
     19 C2         57.9540  -18.1800   33.8490 C.2       1 HR13003     0.0000 
     20 C14        59.2640  -15.1860   35.3140 C.3       1 HR13003     0.0000 
     21 C1         58.1330  -18.7340   32.5060 C.2       1 HR13003     0.0000 
     22 C31        58.0360  -20.1930   32.2290 C.ar      1 HR13003     0.0000 
     23 C25        58.2050  -20.7500   30.9580 C.ar      1 HR13003     0.0000 
     24 C16        57.7590  -21.0090   33.3220 C.ar      1 HR13003     0.0000 
     25 C19        57.6550  -22.3930   33.1180 C.ar      1 HR13003     0.0000 
     26 N2         57.5990  -20.4750   34.5610 N.am      1 HR13003     0.0000 
     27 C23        56.6760  -23.0810   37.7260 C.ar      1 HR13003     0.0000 
     28 C29        58.0080  -22.8560   37.3820 C.ar      1 HR13003     0.0000 
     29 C27        58.6460  -17.6240   30.1820 C.ar      1 HR13003     0.0000 
     30 C30        58.9920  -17.7520   27.4230 C.ar      1 HR13003     0.0000 
     31 C18        57.5980  -18.0450   29.3610 C.ar      1 HR13003     0.0000 
     32 F1         59.1680  -17.8110   26.0910 F         1 HR13003     0.0000 
     33 C12        58.3580  -16.3770   32.5320 C.2       1 HR13003     0.0000 
     34 C9         58.0940  -12.9720   30.6110 C.3       1 HR13003     0.0000 
     35 O4         57.6280  -12.1890   31.7000 O.3       1 HR13003     0.0000 
     36 C11        60.2630  -13.4150   29.3020 C.3       1 HR13003     0.0000 
     37 O3         59.5660  -13.2100   28.0900 O.3       1 HR13003     0.0000 
     38 C35        61.7080  -12.9490   29.1360 C.3       1 HR13003     0.0000 
     39 C36        62.4750  -13.8520   28.1970 C.2       1 HR13003     0.0000 
     40 O7         62.7010  -13.4550   27.0340 O.co2     1 HR13003     0.0000 
     41 O6         62.8690  -14.9600   28.6180 O.co2     1 HR13003     0.0000 
     42 H          54.6775  -22.6050   37.2748 H         1 HR13003     0.0000 
     43 H          57.7811  -16.6200   35.8922 H         1 HR13003     0.0000 
     44 H          58.4019  -14.2688   32.9676 H         1 HR13003     0.0000 
     45 H          59.6958  -14.8174   31.8883 H         1 HR13003     0.0000 
     46 H          56.7495  -14.5813   31.0973 H         1 HR13003     0.0000 
     47 H          58.0834  -15.0437   30.0264 H         1 HR13003     0.0000 
     48 H          60.1107  -12.7999   31.3616 H         1 HR13003     0.0000 
     49 H          59.6607  -11.5472   30.1919 H         1 HR13003     0.0000 
     50 H          57.0053  -18.4397   27.3822 H         1 HR13003     0.0000 
     51 H          59.3080  -21.8246   36.0883 H         1 HR13003     0.0000 
     52 H          60.6341  -16.9416   30.2177 H         1 HR13003     0.0000 
     53 H          58.2226  -22.5246   29.8331 H         1 HR13003     0.0000 
     54 H          60.9335  -17.0492   27.8206 H         1 HR13003     0.0000 
     55 H          55.2259  -21.1108   35.4517 H         1 HR13003     0.0000 
     56 H          57.7406  -23.9609   31.7203 H         1 HR13003     0.0000 
     57 H          58.4106  -20.1342   30.1570 H         1 HR13003     0.0000 
     58 H          57.4513  -23.0073   33.9231 H         1 HR13003     0.0000 
     59 H          56.4463  -23.7184   38.4982 H         1 HR13003     0.0000 
     60 H          58.7585  -23.3315   37.9013 H         1 HR13003     0.0000 
     61 H          56.6935  -18.3021   29.7794 H         1 HR13003     0.0000 
     62 H          57.5631  -12.6954   29.7034 H         1 HR13003     0.0000 
     63 H          60.2736  -14.4536   29.5834 H         1 HR13003     0.0000 
     64 H          62.1935  -12.9418   30.1154 H         1 HR13003     0.0000 
     65 H          61.7092  -11.9282   28.7450 H         1 HR13003     0.0000 
     66 H          56.6263  -14.4551   35.6809 H         1 HR13003     0.0000 
     67 H          56.8114  -14.4550   34.0834 H         1 HR13003     0.0000 
     68 H          55.9014  -15.5786   34.7874 H         1 HR13003     0.0000 
     69 H          60.0330  -15.8036   35.4788 H         1 HR13003     0.0000 
     70 H          59.5219  -14.5940   34.5505 H         1 HR13003     0.0000 
     71 H          59.1785  -14.6024   36.1215 H         1 HR13003     0.0000 
     72 H          56.9147  -12.7425   32.1300 H         1 HR13003     0.0000 
     73 H          59.2853  -12.2504   28.1121 H         1 HR13003     0.0000 
@<TRIPOS>BOND
     1    4    1 1    
     2   19    1 1    
     3   33    1 1    
     4   15    2 ar   
     5   27    2 ar   
     6   42    2 1    
     7   21    3 1    
     8   29    3 1    
     9   33    3 2    
    10    8    4 1    
    11   20    4 1    
    12   43    4 1    
    13    6    5 1    
    14   33    5 1    
    15   44    5 1    
    16   45    5 1    
    17   34    6 1    
    18   46    6 1    
    19   47    6 1    
    20   34    7 1    
    21   36    7 1    
    22   48    7 1    
    23   49    7 1    
    24   66    8 1    
    25   67    8 1    
    26   68    8 1    
    27   30    9 ar   
    28   31    9 ar   
    29   50    9 1    
    30   11   10 ar   
    31   28   10 ar   
    32   51   10 1    
    33   15   11 ar   
    34   26   11 1    
    35   14   12 ar   
    36   29   12 ar   
    37   52   12 1    
    38   16   13 ar   
    39   23   13 ar   
    40   53   13 1    
    41   30   14 ar   
    42   54   14 1    
    43   55   15 1    
    44   25   16 ar   
    45   56   16 1    
    46   18   17 2    
    47   19   18 1    
    48   26   18 am   
    49   21   19 2    
    50   69   20 1    
    51   70   20 1    
    52   71   20 1    
    53   22   21 1    
    54   23   22 ar   
    55   24   22 ar   
    56   57   23 1    
    57   25   24 ar   
    58   26   24 1    
    59   58   25 1    
    60   28   27 ar   
    61   59   27 1    
    62   60   28 1    
    63   31   29 ar   
    64   32   30 1    
    65   61   31 1    
    66   35   34 1    
    67   62   34 1    
    68   72   35 1    
    69   37   36 1    
    70   38   36 1    
    71   63   36 1    
    72   73   37 1    
    73   39   38 1    
    74   64   38 1    
    75   65   38 1    
    76   40   39 ar   
    77   41   39 ar   
@<TRIPOS>SUBSTRUCTURE
     1 HR13003     1 GROUP   
@<TRIPOS>SET

