#    Name: 1mb4_NDP_2_INTS_M
#    Modification time : Tue Mar 25 11:31:31 2014

@<TRIPOS>MOLECULE
1mb4_NDP_2_INTS_M
   71     0    12     0     0
SMALL
NO_CHARGES


@<TRIPOS>ATOM
      1 N         155.8020  -41.2670  -55.9235 N.am      2 SEC2        0.0000 
      2 N         156.2960  -40.8030  -57.1670 N.am     10 SEL2        0.0000 
      3 N         155.3080  -41.7310  -54.6800 N.am      6 SEP2        0.0000 
      4 N         157.5165  -45.7685  -55.9320 N.am      2 SEC2        0.0000 
      5 N         157.8470  -46.6390  -57.3810 N.am     10 SEL2        0.0000 
      6 N         157.1860  -44.8980  -54.4830 N.am      6 SEP2        0.0000 
      7 O         157.6795  -47.7100  -58.4290 O.2       1 ALC1        0.0000 
      8 O         157.8470  -46.6390  -57.3810 O.2       9 ALL1        0.0000 
      9 O         157.5120  -48.7810  -59.4770 O.2       5 ALP1        0.0000 
     10 N         159.4405  -47.4505  -59.7155 N.am      2 SEC2        0.0000 
     11 N         160.2070  -47.0190  -58.2600 N.am     10 SEL2        0.0000 
     12 N         158.6740  -47.8820  -61.1710 N.am      6 SEP2        0.0000 
     13 CA        160.7630  -44.3435  -53.6270 C.3       4 GLC5        0.0000 
     14 CA        160.7500  -42.7180  -54.6400 C.3      12 GLL5        0.0000 
     15 CA        160.7760  -45.9690  -52.6140 C.3       8 GLP5        0.0000 
     16 CA        158.7955  -43.1530  -54.8280 C.3       4 GLC5        0.0000 
     17 CA        156.8410  -43.5880  -55.0160 C.3       8 GLP5        0.0000 
     18 N         152.9370  -42.1365  -55.8455 N.am      2 SEC2        0.0000 
     19 N         153.4780  -42.1630  -57.1320 N.am     10 SEL2        0.0000 
     20 N         152.3960  -42.1100  -54.5590 N.am      6 SEP2        0.0000 
     21 CA        151.2065  -42.5605  -58.0205 C.3       4 GLC5        0.0000 
     22 CA        152.3610  -43.3270  -59.6850 C.3      12 GLL5        0.0000 
     23 CA        150.0520  -41.7940  -56.3560 C.3       8 GLP5        0.0000 
     24 CA        149.4835  -44.9805  -59.7760 C.3       4 GLC5        0.0000 
     25 CA        151.1100  -43.6450  -60.5290 C.3      12 GLL5        0.0000 
     26 CA        147.8570  -46.3160  -59.0230 C.3       8 GLP5        0.0000 
     27 CA        149.5945  -42.0570  -58.5225 C.3       4 GLC5        0.0000 
     28 CA        149.1370  -42.3200  -60.6890 C.3      12 GLL5        0.0000 
     29 N         147.5855  -36.4395  -56.2640 N.am      2 SEC2        0.0000 
     30 N         147.7150  -37.4610  -57.1510 N.am     10 SEL2        0.0000 
     31 N         147.4560  -35.4180  -55.3770 N.am      6 SEP2        0.0000 
     32 O         150.1630  -36.4495  -57.8150 O.2       1 ALC1        0.0000 
     33 O         149.7490  -37.8460  -58.0650 O.2       9 ALL1        0.0000 
     34 O         150.5770  -35.0530  -57.5650 O.2       5 ALP1        0.0000 
     35 CA        145.8680  -38.8750  -60.3020 C.3       4 GLC5        0.0000 
     36 CA        146.0010  -40.7270  -59.2880 C.3      12 GLL5        0.0000 
     37 CA        145.7350  -37.0230  -61.3160 C.3       8 GLP5        0.0000 
     38 NZ        163.1485  -46.3180  -57.1720 N.4       3 LYC4        0.0000 
     39 NZ        162.7240  -47.1070  -58.2590 N.4      11 LYL4        0.0000 
     40 NZ        163.2840  -45.5130  -54.7920 N.4       7 LYP4        0.0000 
     41 N         163.1485  -46.3180  -57.1720 N.am      2 SEC2        0.0000 
     42 N         162.7240  -47.1070  -58.2590 N.am     10 SEL2        0.0000 
     43 N         163.5730  -45.5290  -56.0850 N.am      6 SEP2        0.0000 
     44 N         164.0050  -47.6670  -58.2735 N.am      2 SEC2        0.0000 
     45 N         165.2860  -48.2270  -58.2880 N.am      6 SEP2        0.0000 
     46 N         161.8165  -50.4355  -59.1325 N.am      2 SEC2        0.0000 
     47 N         161.3640  -49.1850  -58.6830 N.am     10 SEL2        0.0000 
     48 N         162.2690  -51.6860  -59.5820 N.am      6 SEP2        0.0000 
     49 N         161.6035  -49.2975  -59.9840 N.am      2 SEC2        0.0000 
     50 N         161.8430  -49.4100  -61.2850 N.am      6 SEP2        0.0000 
     51 NZ        162.5055  -46.8260  -56.2230 N.4       3 LYC4        0.0000 
     52 NZ        161.4380  -48.1230  -56.3610 N.4      11 LYL4        0.0000 
     53 N         161.9930  -47.3040  -55.3105 N.am      2 SEC2        0.0000 
     54 N         161.4380  -48.1230  -56.3610 N.am     10 SEL2        0.0000 
     55 N         162.5480  -46.4850  -54.2600 N.am      6 SEP2        0.0000 
     56 N         162.5055  -46.8260  -56.2230 N.am      2 SEC2        0.0000 
     57 CA        157.4551  -44.2677  -56.6539 C.3       4 GLC5        0.0000 
     58 CA        158.5680  -45.4160  -57.5880 C.3      12 GLL5        0.0000 
     59 CA        152.1410  -44.6373  -62.3428 C.3       4 GLC5        0.0000 
     60 CA        153.1790  -46.0030  -63.4850 C.3       8 GLP5        0.0000 
     61 CA        149.2020  -40.7873  -57.6640 C.3       4 GLC5        0.0000 
     62 CA        148.7860  -40.2160  -59.3170 C.3      12 GLL5        0.0000 
     63 CA        146.5455  -40.7013  -57.1593 C.3       4 GLC5        0.0000 
     64 CA        147.9180  -39.3450  -58.6270 C.3      12 GLL5        0.0000 
     65 CA        145.8660  -41.9260  -55.6970 C.3       8 GLP5        0.0000 
     66 CA        146.2835  -37.9592  -59.1238 C.3       4 GLC5        0.0000 
     67 CA        146.5320  -39.6080  -58.6160 C.3      12 GLL5        0.0000 
     68 CA        145.3420  -36.4420  -59.6260 C.3       8 GLP5        0.0000 
     69 CA        144.5847  -39.1002  -58.8100 C.3       4 GLC5        0.0000 
     70 CA        142.9030  -38.0330  -58.6680 C.3       8 GLP5        0.0000 
     71 CA        146.1472  -41.5450  -57.6658 C.3       4 GLC5        0.0000 
@<TRIPOS>BOND
@<TRIPOS>SUBSTRUCTURE
     1 ALC1        7 GROUP        1 X    ALC  0     ROOT ALC X 1
     2 SEC2        1 GROUP        1 X    SEC  0     **** SEC X 2
     3 LYC4       38 GROUP        1 X    LYC  0     **** LYC X 4
     4 GLC5       13 GROUP        1 X    GLC  0     **** GLC X 6
     5 ALP1        9 GROUP        1 Y    ALP  0     ROOT ALP Y 8
     6 SEP2        3 GROUP        1 Y    SEP  0     **** SEP Y 9
     7 LYP4       40 GROUP        1 Y    LYP  0     **** LYP Y 11
     8 GLP5       15 GROUP        1 Y    GLP  0     **** GLP Y 13
     9 ALL1        8 GROUP        1 Z    ALL  0     ROOT ALL Z 15
    10 SEL2        2 GROUP        1 Z    SEL  0     **** SEL Z 16
    11 LYL4       39 GROUP        1 Z    LYL  0     **** LYL Z 18
    12 GLL5       14 GROUP        1 Z    GLL  0     **** GLL Z 20
@<TRIPOS>SET

