#    Name: 1mb4_NDP_2_ligand
#    Modification time : Tue Mar 25 11:31:31 2014

@<TRIPOS>MOLECULE
1mb4_NDP_2_ligand
   74    78     1     0     0
SMALL
NO_CHARGES


@<TRIPOS>ATOM
      1 PA        156.4550  -41.5810  -58.4180 P.3       1 NDP503      0.0000 
      2 O1A       156.2960  -40.8030  -57.1670 O.co2     1 NDP503      0.0000 
      3 O2A       157.3980  -41.0670  -59.4430 O.co2     1 NDP503      0.0000 
      4 O5B       156.8660  -43.0890  -58.0360 O.3       1 NDP503      0.0000 
      5 C5B       156.9030  -44.1100  -59.0340 C.3       1 NDP503      0.0000 
      6 C4B       158.2380  -44.8480  -58.9570 C.3       1 NDP503      0.0000 
      7 O4B       159.3770  -44.0050  -59.2640 O.3       1 NDP503      0.0000 
      8 C3B       158.5680  -45.4160  -57.5880 C.3       1 NDP503      0.0000 
      9 O3B       157.8470  -46.6390  -57.3810 O.3       1 NDP503      0.0000 
     10 C2B       160.0460  -45.7130  -57.7070 C.3       1 NDP503      0.0000 
     11 O2B       160.2070  -47.0190  -58.2600 O.3       1 NDP503      0.0000 
     12 C1B       160.5630  -44.6720  -58.7230 C.3       1 NDP503      0.0000 
     13 N9A       161.4380  -43.6410  -58.1090 N.pl3     1 NDP503      0.0000 
     14 C8A       162.4430  -43.0320  -58.7400 C.2       1 NDP503      0.0000 
     15 N7A       163.0220  -42.1510  -57.9240 N.2       1 NDP503      0.0000 
     16 C5A       162.3850  -42.1980  -56.7650 C.ar      1 NDP503      0.0000 
     17 C6A       162.5420  -41.5220  -55.5550 C.ar      1 NDP503      0.0000 
     18 N6A       163.4900  -40.6000  -55.4270 N.pl3     1 NDP503      0.0000 
     19 N1A       161.7180  -41.8020  -54.5160 N.ar      1 NDP503      0.0000 
     20 C2A       160.7500  -42.7180  -54.6400 C.ar      1 NDP503      0.0000 
     21 N3A       160.5750  -43.3840  -55.8010 N.ar      1 NDP503      0.0000 
     22 C4A       161.3760  -43.1410  -56.8720 C.ar      1 NDP503      0.0000 
     23 O3        155.0020  -41.7640  -59.1350 O.3       1 NDP503      0.0000 
     24 PN        153.6010  -41.3870  -58.3890 P.3       1 NDP503      0.0000 
     25 O1N       153.4570  -39.9090  -58.3220 O.co2     1 NDP503      0.0000 
     26 O2N       153.4780  -42.1630  -57.1320 O.co2     1 NDP503      0.0000 
     27 O5D       152.4920  -41.9220  -59.4380 O.3       1 NDP503      0.0000 
     28 C5D       152.3610  -43.3270  -59.6850 C.3       1 NDP503      0.0000 
     29 C4D       151.1100  -43.6450  -60.5290 C.3       1 NDP503      0.0000 
     30 O4D       149.9250  -43.1480  -59.7870 O.3       1 NDP503      0.0000 
     31 C3D       151.0960  -42.8980  -61.8720 C.3       1 NDP503      0.0000 
     32 O3D       150.6010  -43.7650  -62.9080 O.3       1 NDP503      0.0000 
     33 C2D       150.1480  -41.7480  -61.6700 C.3       1 NDP503      0.0000 
     34 O2D       149.4960  -41.4190  -62.9030 O.3       1 NDP503      0.0000 
     35 C1D       149.1370  -42.3200  -60.6890 C.3       1 NDP503      0.0000 
     36 N1N       148.2500  -41.3520  -59.9970 N.pl3     1 NDP503      0.0000 
     37 C2N       148.7860  -40.2160  -59.3170 C.2       1 NDP503      0.0000 
     38 C3N       147.9180  -39.3450  -58.6270 C.2       1 NDP503      0.0000 
     39 C7N       148.4570  -38.1200  -57.8770 C.2       1 NDP503      0.0000 
     40 O7N       147.7150  -37.4610  -57.1510 O.2       1 NDP503      0.0000 
     41 N7N       149.7490  -37.8460  -58.0650 N.am      1 NDP503      0.0000 
     42 C4N       146.5320  -39.6080  -58.6160 C.3       1 NDP503      0.0000 
     43 C5N       146.0010  -40.7270  -59.2880 C.2       1 NDP503      0.0000 
     44 C6N       146.8560  -41.6010  -59.9810 C.2       1 NDP503      0.0000 
     45 P2B       161.4340  -47.9730  -57.8350 P.3       1 NDP503      0.0000 
     46 O1X       162.7240  -47.1070  -58.2590 O.co2     1 NDP503      0.0000 
     47 O2X       161.3640  -49.1850  -58.6830 O.co2     1 NDP503      0.0000 
     48 O3X       161.4380  -48.1230  -56.3610 O.co2     1 NDP503      0.0000 
     49 H         156.8072  -43.6960  -60.0431 H         1 NDP503      0.0000 
     50 H         156.1050  -44.8462  -58.8924 H         1 NDP503      0.0000 
     51 H         158.2259  -45.6880  -59.6566 H         1 NDP503      0.0000 
     52 H         158.4128  -44.6900  -56.8622 H         1 NDP503      0.0000 
     53 H         160.5169  -45.5656  -56.7957 H         1 NDP503      0.0000 
     54 H         161.0730  -45.1888  -59.5063 H         1 NDP503      0.0000 
     55 H         162.7151  -43.2065  -59.6661 H         1 NDP503      0.0000 
     56 H         164.0441  -40.4227  -56.2404 H         1 NDP503      0.0000 
     57 H         163.5638  -40.1666  -54.5289 H         1 NDP503      0.0000 
     58 H         160.1178  -42.9243  -53.8290 H         1 NDP503      0.0000 
     59 H         152.2767  -43.8991  -58.7462 H         1 NDP503      0.0000 
     60 H         153.2329  -43.7277  -60.2281 H         1 NDP503      0.0000 
     61 H         151.0303  -44.6804  -60.6927 H         1 NDP503      0.0000 
     62 H         152.0644  -42.5303  -62.0620 H         1 NDP503      0.0000 
     63 H         150.6495  -40.9514  -61.2190 H         1 NDP503      0.0000 
     64 H         148.5033  -43.0236  -61.2923 H         1 NDP503      0.0000 
     65 H         149.7867  -40.0439  -59.3352 H         1 NDP503      0.0000 
     66 H         150.1126  -37.0674  -57.5535 H         1 NDP503      0.0000 
     67 H         150.2376  -38.4438  -58.7005 H         1 NDP503      0.0000 
     68 H         145.9747  -38.6593  -58.9815 H         1 NDP503      0.0000 
     69 H         146.1712  -39.6336  -57.5145 H         1 NDP503      0.0000 
     70 H         144.9936  -40.9016  -59.2704 H         1 NDP503      0.0000 
     71 H         146.4793  -42.4114  -60.4711 H         1 NDP503      0.0000 
     72 H         158.2699  -47.2972  -58.0038 H         1 NDP503      0.0000 
     73 H         149.9651  -43.2013  -63.4351 H         1 NDP503      0.0000 
     74 H         149.6655  -40.4421  -63.0326 H         1 NDP503      0.0000 
@<TRIPOS>BOND
     1    2    1 ar   
     2    3    1 ar   
     3    4    1 1    
     4   23    1 1    
     5    5    4 1    
     6    6    5 1    
     7   49    5 1    
     8   50    5 1    
     9    7    6 1    
    10    8    6 1    
    11   51    6 1    
    12   12    7 1    
    13    9    8 1    
    14   10    8 1    
    15   52    8 1    
    16   72    9 1    
    17   11   10 1    
    18   12   10 1    
    19   53   10 1    
    20   45   11 1    
    21   13   12 1    
    22   54   12 1    
    23   14   13 1    
    24   22   13 1    
    25   15   14 2    
    26   55   14 1    
    27   16   15 1    
    28   17   16 ar   
    29   22   16 ar   
    30   18   17 1    
    31   19   17 ar   
    32   56   18 1    
    33   57   18 1    
    34   20   19 ar   
    35   21   20 ar   
    36   58   20 1    
    37   22   21 ar   
    38   24   23 1    
    39   25   24 ar   
    40   26   24 ar   
    41   27   24 1    
    42   28   27 1    
    43   29   28 1    
    44   59   28 1    
    45   60   28 1    
    46   30   29 1    
    47   31   29 1    
    48   61   29 1    
    49   35   30 1    
    50   32   31 1    
    51   33   31 1    
    52   62   31 1    
    53   73   32 1    
    54   34   33 1    
    55   35   33 1    
    56   63   33 1    
    57   74   34 1    
    58   36   35 1    
    59   64   35 1    
    60   37   36 1    
    61   44   36 1    
    62   38   37 2    
    63   65   37 1    
    64   39   38 1    
    65   42   38 1    
    66   40   39 2    
    67   41   39 am   
    68   66   41 1    
    69   67   41 1    
    70   43   42 1    
    71   68   42 1    
    72   69   42 1    
    73   44   43 2    
    74   70   43 1    
    75   71   44 1    
    76   46   45 ar   
    77   47   45 ar   
    78   48   45 ar   
@<TRIPOS>SUBSTRUCTURE
     1 NDP503      1 GROUP   
@<TRIPOS>SET

