#    Name: 2o98_FSC_1_INTS_M
#    Modification time : Tue Mar 25 22:03:33 2014

@<TRIPOS>MOLECULE
2o98_FSC_1_INTS_M
   73     0     9     0     0
SMALL
NO_CHARGES


@<TRIPOS>ATOM
      1 CA          0.2460   83.7205  121.4475 C.3       3 GLC5        0.0000 
      2 CA          2.1420   83.7030  121.7610 C.3       9 GLL5        0.0000 
      3 CA         -1.6500   83.7380  121.1340 C.3       6 GLP5        0.0000 
      4 CA          2.1645   82.3900  123.2765 C.3       3 GLC5        0.0000 
      5 CA          2.1870   81.0770  124.7920 C.3       6 GLP5        0.0000 
      6 CA          1.4765   82.2145  120.7180 C.3       3 GLC5        0.0000 
      7 CA          0.8110   80.7260  119.6750 C.3       6 GLP5        0.0000 
      8 CA          0.2730   84.7965  120.8140 C.3       3 GLC5        0.0000 
      9 CA          2.1960   85.8550  120.4940 C.3       9 GLL5        0.0000 
     10 CA          0.8920   85.7170  118.7655 C.3       3 GLC5        0.0000 
     11 CA         -0.4120   85.5790  117.0370 C.3       6 GLP5        0.0000 
     12 CA         -0.1985   89.3330  123.9105 C.3       3 GLC5        0.0000 
     13 CA         -0.2320   88.2910  122.3000 C.3       9 GLL5        0.0000 
     14 CA         -0.1650   90.3750  125.5210 C.3       6 GLP5        0.0000 
     15 CA          0.5185   87.2190  123.7920 C.3       3 GLC5        0.0000 
     16 CA          1.2690   86.1470  125.2840 C.3       6 GLP5        0.0000 
     17 CA          1.9075   83.9285  117.8840 C.3       3 GLC5        0.0000 
     18 CA          3.7040   83.5040  118.9810 C.3       9 GLL5        0.0000 
     19 CA          0.1110   84.3530  116.7870 C.3       6 GLP5        0.0000 
     20 CA          2.2575   82.1150  119.3280 C.3       3 GLC5        0.0000 
     21 CA          6.2635   83.8125  116.6555 C.3       3 GLC5        0.0000 
     22 CA          5.0770   83.4230  118.3240 C.3       9 GLL5        0.0000 
     23 CA          7.4500   84.2020  114.9870 C.3       6 GLP5        0.0000 
     24 CA          9.0825   84.9460  118.8950 C.3       3 GLC5        0.0000 
     25 CA          7.3370   84.1150  118.9440 C.3       9 GLL5        0.0000 
     26 CA         10.8280   85.7770  118.8460 C.3       6 GLP5        0.0000 
     27 CA          7.3935   84.1585  116.9655 C.3       3 GLC5        0.0000 
     28 CA          9.7550   80.3270  121.0760 C.3       3 GLC5        0.0000 
     29 CA          8.2040   79.5120  120.7370 C.3       9 GLL5        0.0000 
     30 CA         11.3060   81.1420  121.4150 C.3       6 GLP5        0.0000 
     31 N           7.4175   76.9635  120.4955 N.am      2 SEC2        0.0000 
     32 N           8.4890   78.1040  120.6190 N.am      8 SEL2        0.0000 
     33 N           6.3460   75.8230  120.3720 N.am      5 SEP2        0.0000 
     34 CA         10.8730   79.3695  120.3030 C.3       3 GLC5        0.0000 
     35 CA          9.8750   77.8370  120.4290 C.3       9 GLL5        0.0000 
     36 CA         11.8710   80.9020  120.1770 C.3       6 GLP5        0.0000 
     37 CA          8.5900   76.6560  121.5580 C.3       3 GLC5        0.0000 
     38 CA          7.3050   75.4750  122.6870 C.3       6 GLP5        0.0000 
     39 CA         10.9955   77.0325  119.3205 C.3       3 GLC5        0.0000 
     40 CA         12.1160   76.2280  118.2120 C.3       6 GLP5        0.0000 
     41 CA          9.6925   81.9515  122.0825 C.3       3 GLC5        0.0000 
     42 CA          8.0790   82.7610  122.7500 C.3       9 GLL5        0.0000 
     43 CA          8.6845   81.8675  124.5125 C.3       3 GLC5        0.0000 
     44 CA          9.2900   80.9740  126.2750 C.3       6 GLP5        0.0000 
     45 CA          4.3560   85.0455  123.8715 C.3       3 GLC5        0.0000 
     46 CA          5.9960   84.1170  122.9690 C.3       9 GLL5        0.0000 
     47 CA          2.7160   85.9740  124.7740 C.3       6 GLP5        0.0000 
     48 O           5.7600   85.8255  124.5765 O.2       1 ALC1        0.0000 
     49 O           6.6210   84.9070  123.9840 O.2       7 ALL1        0.0000 
     50 O           4.8990   86.7440  125.1690 O.2       4 ALP1        0.0000 
     51 O           5.5120   87.5790  124.2685 O.2       1 ALC1        0.0000 
     52 O           6.1250   88.4140  123.3680 O.2       7 ALL1        0.0000 
     53 CA          9.5905   88.1510  114.4595 C.3       3 GLC5        0.0000 
     54 CA          7.9000   87.4770  115.6280 C.3       9 GLL5        0.0000 
     55 CA         11.2810   88.8250  113.2910 C.3       6 GLP5        0.0000 
     56 CA          7.6750   85.8395  115.3075 C.3       3 GLC5        0.0000 
     57 CA         10.0960   87.4680  117.7895 C.3       3 GLC5        0.0000 
     58 CA          9.3640   89.1590  116.7330 C.3       9 GLL5        0.0000 
     59 CA         10.3225   88.9920  115.0120 C.3       3 GLC5        0.0000 
     60 CA          2.5559   85.5135  122.8800 C.3       3 GLC5        0.0000 
     61 CA          3.0490   84.7990  121.1950 C.3       9 GLL5        0.0000 
     62 CA          6.5367   77.7208  121.7574 C.3       3 GLC5        0.0000 
     63 CA          6.4350   79.3550  122.4860 C.3       9 GLL5        0.0000 
     64 CA          6.1220   75.9420  121.8240 C.3       6 GLP5        0.0000 
     65 CA          4.7903   78.5497  123.8380 C.3       3 GLC5        0.0000 
     66 CA          3.6170   77.2160  124.9110 C.3       6 GLP5        0.0000 
     67 CA          4.2378   78.8288  121.9610 C.3       3 GLC5        0.0000 
     68 CA          5.4920   80.4120  123.0440 C.3       9 GLL5        0.0000 
     69 CA          2.5120   77.7740  121.1570 C.3       6 GLP5        0.0000 
     70 CA          3.8958   81.0673  123.7200 C.3       3 GLC5        0.0000 
     71 CA          5.7650   83.4065  125.0662 C.3       3 GLC5        0.0000 
     72 CA          6.5700   82.7150  123.0580 C.3       9 GLL5        0.0000 
     73 CA          5.2470   83.3970  127.1190 C.3       6 GLP5        0.0000 
@<TRIPOS>BOND
@<TRIPOS>SUBSTRUCTURE
     1 ALC1       48 GROUP        1 X    ALC  0     ROOT ALC X 1
     2 SEC2       31 GROUP        1 X    SEC  0     **** SEC X 2
     3 GLC5        1 GROUP        1 X    GLC  0     **** GLC X 6
     4 ALP1       50 GROUP        1 Y    ALP  0     ROOT ALP Y 8
     5 SEP2       33 GROUP        1 Y    SEP  0     **** SEP Y 9
     6 GLP5        3 GROUP        1 Y    GLP  0     **** GLP Y 13
     7 ALL1       49 GROUP        1 Z    ALL  0     ROOT ALL Z 15
     8 SEL2       32 GROUP        1 Z    SEL  0     **** SEL Z 16
     9 GLL5        2 GROUP        1 Z    GLL  0     **** GLL Z 20
@<TRIPOS>SET

