#    Name: 2o98_FSC_1_ligand
#    Modification time : Tue Mar 25 22:03:33 2014

@<TRIPOS>MOLECULE
2o98_FSC_1_ligand
  102   105     1     0     0
SMALL
NO_CHARGES


@<TRIPOS>ATOM
      1 C1          5.4200   84.1480  120.5110 C.2       1 FSC1001     0.0000 
      2 C4          4.0870   84.1870  120.2830 C.2       1 FSC1001     0.0000 
      3 C11         3.0490   84.7990  121.1950 C.3       1 FSC1001     0.0000 
      4 C18         2.1420   83.7030  121.7610 C.3       1 FSC1001     0.0000 
      5 C17         2.1960   85.8550  120.4940 C.3       1 FSC1001     0.0000 
      6 O24         1.5460   86.6490  121.5040 O.3       1 FSC1001     0.0000 
      7 C31         0.4840   87.5860  121.1910 C.2       1 FSC1001     0.0000 
      8 O37         0.2040   87.7540  120.0060 O.2       1 FSC1001     0.0000 
      9 C36        -0.2320   88.2910  122.3000 C.3       1 FSC1001     0.0000 
     10 C10         3.7040   83.5040  118.9810 C.3       1 FSC1001     0.0000 
     11 C6          5.0770   83.4230  118.3240 C.3       1 FSC1001     0.0000 
     12 O13         5.2610   82.3270  117.4270 O.3       1 FSC1001     0.0000 
     13 C2          6.1080   83.3750  119.4320 C.3       1 FSC1001     0.0000 
     14 C7          7.3370   84.1150  118.9440 C.3       1 FSC1001     0.0000 
     15 C5          6.4340   81.9260  119.7850 C.2       1 FSC1001     0.0000 
     16 C12         6.3060   81.2240  120.9500 C.2       1 FSC1001     0.0000 
     17 C20         6.7320   79.7760  121.0540 C.3       1 FSC1001     0.0000 
     18 C27         8.2040   79.5120  120.7370 C.3       1 FSC1001     0.0000 
     19 O32         8.4890   78.1040  120.6190 O.3       1 FSC1001     0.0000 
     20 C38         9.8750   77.8370  120.4290 C.3       1 FSC1001     0.0000 
     21 C26         6.4350   79.3550  122.4860 C.3       1 FSC1001     0.0000 
     22 C25         5.4920   80.4120  123.0440 C.3       1 FSC1001     0.0000 
     23 C19         5.7170   81.7030  122.2520 C.3       1 FSC1001     0.0000 
     24 C15         6.5700   82.7150  123.0580 C.3       1 FSC1001     0.0000 
     25 C23         8.0790   82.7610  122.7500 C.3       1 FSC1001     0.0000 
     26 C9          5.9960   84.1170  122.9690 C.3       1 FSC1001     0.0000 
     27 O16         6.6210   84.9070  123.9840 O.3       1 FSC1001     0.0000 
     28 C3          6.2260   84.7960  121.6290 C.3       1 FSC1001     0.0000 
     29 O8          5.9020   86.1930  121.7730 O.3       1 FSC1001     0.0000 
     30 C14         6.8370   87.2300  121.3900 C.3       1 FSC1001     0.0000 
     31 O22         6.9500   87.4100  119.9640 O.3       1 FSC1001     0.0000 
     32 C30         5.7400   87.7220  119.2710 C.3       1 FSC1001     0.0000 
     33 C33         5.0930   88.9920  119.8010 C.3       1 FSC1001     0.0000 
     34 O39         3.7750   89.1050  119.2160 O.3       1 FSC1001     0.0000 
     35 C28         5.0140   89.0010  121.3310 C.3       1 FSC1001     0.0000 
     36 O34         4.6980   90.3410  121.7110 O.3       1 FSC1001     0.0000 
     37 C40         4.1510   90.6710  123.0430 C.2       1 FSC1001     0.0000 
     38 O43         2.9350   90.5890  123.2150 O.2       1 FSC1001     0.0000 
     39 C42         5.0890   91.1430  124.1520 C.3       1 FSC1001     0.0000 
     40 C21         6.3360   88.5570  121.9650 C.3       1 FSC1001     0.0000 
     41 O29         6.1250   88.4140  123.3680 O.3       1 FSC1001     0.0000 
     42 C35         6.0400   87.8800  117.7890 C.3       1 FSC1001     0.0000 
     43 O41         7.1800   88.7380  117.6610 O.3       1 FSC1001     0.0000 
     44 C44         7.9110   88.7820  116.4010 C.3       1 FSC1001     0.0000 
     45 C47         7.9000   87.4770  115.6280 C.3       1 FSC1001     0.0000 
     46 C46         9.3640   89.1590  116.7330 C.3       1 FSC1001     0.0000 
     47 C45         7.3490   89.8490  115.4780 C.2       1 FSC1001     0.0000 
     48 C48         6.2420   89.6620  114.7810 C.2       1 FSC1001     0.0000 
     49 H           3.5537   85.2715  122.0372 H         1 FSC1001     0.0000 
     50 H           1.4751   85.3416  119.8610 H         1 FSC1001     0.0000 
     51 H           2.8511   86.4582  119.8687 H         1 FSC1001     0.0000 
     52 H           3.0756   84.1238  118.4199 H         1 FSC1001     0.0000 
     53 H           3.3419   82.5414  119.1716 H         1 FSC1001     0.0000 
     54 H           5.2386   84.3842  117.8020 H         1 FSC1001     0.0000 
     55 H           6.8412   81.3974  118.9116 H         1 FSC1001     0.0000 
     56 H           6.1083   79.1771  120.4063 H         1 FSC1001     0.0000 
     57 H           8.8081   79.9758  121.5365 H         1 FSC1001     0.0000 
     58 H           8.4478   80.0482  119.8030 H         1 FSC1001     0.0000 
     59 H           7.3410   79.3432  123.0546 H         1 FSC1001     0.0000 
     60 H           5.9507   78.4012  122.4893 H         1 FSC1001     0.0000 
     61 H           5.7154   80.5865  124.0821 H         1 FSC1001     0.0000 
     62 H           4.4724   80.0907  122.9207 H         1 FSC1001     0.0000 
     63 H           4.7381   82.1250  122.0581 H         1 FSC1001     0.0000 
     64 H           6.4778   82.4213  124.1419 H         1 FSC1001     0.0000 
     65 H           4.9289   84.0647  123.1518 H         1 FSC1001     0.0000 
     66 H           7.2882   84.6896  121.3880 H         1 FSC1001     0.0000 
     67 H           7.8082   87.0534  121.8302 H         1 FSC1001     0.0000 
     68 H           5.0189   86.9113  119.3700 H         1 FSC1001     0.0000 
     69 H           5.7081   89.8339  119.4884 H         1 FSC1001     0.0000 
     70 H           4.2363   88.3222  121.6271 H         1 FSC1001     0.0000 
     71 H           7.0759   89.3179  121.7663 H         1 FSC1001     0.0000 
     72 H           5.1603   88.3032  117.3074 H         1 FSC1001     0.0000 
     73 H           6.2299   86.8920  117.3734 H         1 FSC1001     0.0000 
     74 H           7.9109   90.7203  115.4515 H         1 FSC1001     0.0000 
     75 H           2.6593   83.0272  122.2860 H         1 FSC1001     0.0000 
     76 H           1.4442   84.0771  122.3719 H         1 FSC1001     0.0000 
     77 H           1.6624   83.2072  121.0370 H         1 FSC1001     0.0000 
     78 H           0.3926   88.8401  122.8553 H         1 FSC1001     0.0000 
     79 H          -0.9367   88.9098  121.9528 H         1 FSC1001     0.0000 
     80 H          -0.6850   87.6480  122.9175 H         1 FSC1001     0.0000 
     81 H           7.9964   84.2661  119.6805 H         1 FSC1001     0.0000 
     82 H           7.8128   83.6103  118.2236 H         1 FSC1001     0.0000 
     83 H           7.1055   85.0127  118.5691 H         1 FSC1001     0.0000 
     84 H          10.4260   78.1724  121.1931 H         1 FSC1001     0.0000 
     85 H          10.0563   76.8572  120.3448 H         1 FSC1001     0.0000 
     86 H          10.2269   78.2725  119.6005 H         1 FSC1001     0.0000 
     87 H           8.5518   83.4414  123.3099 H         1 FSC1001     0.0000 
     88 H           8.5205   81.8807  122.9236 H         1 FSC1001     0.0000 
     89 H           8.2559   82.9942  121.7938 H         1 FSC1001     0.0000 
     90 H           5.7835   90.4567  124.3681 H         1 FSC1001     0.0000 
     91 H           5.5733   91.9801  123.8976 H         1 FSC1001     0.0000 
     92 H           4.5945   91.3365  124.9994 H         1 FSC1001     0.0000 
     93 H           8.4139   87.5474  114.7730 H         1 FSC1001     0.0000 
     94 H           8.3072   86.7303  116.1540 H         1 FSC1001     0.0000 
     95 H           6.9709   87.1946  115.3891 H         1 FSC1001     0.0000 
     96 H           9.7901   88.4926  117.3449 H         1 FSC1001     0.0000 
     97 H           9.9320   89.2077  115.9114 H         1 FSC1001     0.0000 
     98 H           9.4229   90.0499  117.1833 H         1 FSC1001     0.0000 
     99 H           4.6185   82.4941  116.6792 H         1 FSC1001     0.0000 
    100 H           5.9073   85.5309  124.3023 H         1 FSC1001     0.0000 
    101 H           3.1747   88.5921  119.8297 H         1 FSC1001     0.0000 
    102 H           5.7830   87.4816  123.4845 H         1 FSC1001     0.0000 
@<TRIPOS>BOND
     1    2    1 2    
     2   13    1 1    
     3   28    1 1    
     4    3    2 1    
     5   10    2 1    
     6    4    3 1    
     7    5    3 1    
     8   49    3 1    
     9   75    4 1    
    10   76    4 1    
    11   77    4 1    
    12    6    5 1    
    13   50    5 1    
    14   51    5 1    
    15    7    6 1    
    16    8    7 2    
    17    9    7 1    
    18   78    9 1    
    19   79    9 1    
    20   80    9 1    
    21   11   10 1    
    22   52   10 1    
    23   53   10 1    
    24   12   11 1    
    25   13   11 1    
    26   54   11 1    
    27   99   12 1    
    28   14   13 1    
    29   15   13 1    
    30   81   14 1    
    31   82   14 1    
    32   83   14 1    
    33   16   15 2    
    34   55   15 1    
    35   17   16 1    
    36   23   16 1    
    37   18   17 1    
    38   21   17 1    
    39   56   17 1    
    40   19   18 1    
    41   57   18 1    
    42   58   18 1    
    43   20   19 1    
    44   84   20 1    
    45   85   20 1    
    46   86   20 1    
    47   22   21 1    
    48   59   21 1    
    49   60   21 1    
    50   23   22 1    
    51   61   22 1    
    52   62   22 1    
    53   24   23 1    
    54   63   23 1    
    55   25   24 1    
    56   26   24 1    
    57   64   24 1    
    58   87   25 1    
    59   88   25 1    
    60   89   25 1    
    61   27   26 1    
    62   28   26 1    
    63   65   26 1    
    64  100   27 1    
    65   29   28 1    
    66   66   28 1    
    67   30   29 1    
    68   31   30 1    
    69   40   30 1    
    70   67   30 1    
    71   32   31 1    
    72   33   32 1    
    73   42   32 1    
    74   68   32 1    
    75   34   33 1    
    76   35   33 1    
    77   69   33 1    
    78  101   34 1    
    79   36   35 1    
    80   40   35 1    
    81   70   35 1    
    82   37   36 1    
    83   38   37 2    
    84   39   37 1    
    85   90   39 1    
    86   91   39 1    
    87   92   39 1    
    88   41   40 1    
    89   71   40 1    
    90  102   41 1    
    91   43   42 1    
    92   72   42 1    
    93   73   42 1    
    94   44   43 1    
    95   45   44 1    
    96   46   44 1    
    97   47   44 1    
    98   93   45 1    
    99   94   45 1    
   100   95   45 1    
   101   96   46 1    
   102   97   46 1    
   103   98   46 1    
   104   48   47 2    
   105   74   47 1    
@<TRIPOS>SUBSTRUCTURE
     1 FSC1001     1 GROUP   
@<TRIPOS>SET

