#    Name: 2uzn_C96_1_INTS_M
#    Modification time : Tue Mar 25 00:36:20 2014

@<TRIPOS>MOLECULE
2uzn_C96_1_INTS_M
   50     0     6     0     0
SMALL
NO_CHARGES


@<TRIPOS>ATOM
      1 CA          4.8940   62.3015   10.2710 C.3       2 GLC5        0.0000 
      2 CA          3.8930   61.5590    8.4930 C.3       6 GLL5        0.0000 
      3 CA          5.8950   63.0440   12.0490 C.3       4 GLP5        0.0000 
      4 CA          5.7205   64.9205    5.7895 C.3       2 GLC5        0.0000 
      5 CA          4.1640   63.6120    6.6280 C.3       6 GLL5        0.0000 
      6 CA          7.2770   66.2290    4.9510 C.3       4 GLP5        0.0000 
      7 CA          6.7180   63.5370    7.3935 C.3       2 GLC5        0.0000 
      8 CA          5.0630   62.5480    6.6310 C.3       6 GLL5        0.0000 
      9 CA          8.3730   64.5260    8.1560 C.3       4 GLP5        0.0000 
     10 CA          3.6625   67.5230    6.4755 C.3       2 GLC5        0.0000 
     11 CA          2.1460   65.9030    6.7740 C.3       6 GLL5        0.0000 
     12 CA          5.1790   69.1430    6.1770 C.3       4 GLP5        0.0000 
     13 CA          1.4560   68.2705    5.7705 C.3       2 GLC5        0.0000 
     14 CA          1.0280   66.6570    7.1180 C.3       6 GLL5        0.0000 
     15 CA          1.8840   69.8840    4.4230 C.3       4 GLP5        0.0000 
     16 CA          0.8625   66.0105   10.3995 C.3       2 GLC5        0.0000 
     17 CA         -0.5580   64.3950   10.5270 C.3       6 GLL5        0.0000 
     18 CA          2.2830   67.6260   10.2720 C.3       4 GLP5        0.0000 
     19 CA         -3.6905   63.3790   11.1700 C.3       2 GLC5        0.0000 
     20 CA         -1.7530   64.1700   11.6560 C.3       6 GLL5        0.0000 
     21 CA         -5.6280   62.5880   10.6840 C.3       4 GLP5        0.0000 
     22 O          -2.7290   63.7120   13.5095 O.2       1 ALC1        0.0000 
     23 O          -1.7060   63.2880   12.5690 O.2       5 ALL1        0.0000 
     24 O          -3.7520   64.1360   14.4500 O.2       3 ALP1        0.0000 
     25 O          -3.2915   65.5720   12.4275 O.2       1 ALC1        0.0000 
     26 O          -2.7660   65.0290   11.4980 O.2       5 ALL1        0.0000 
     27 O          -3.8170   66.1150   13.3570 O.2       3 ALP1        0.0000 
     28 O          -3.2590   64.5825   12.9740 O.2       1 ALC1        0.0000 
     29 CA         -0.9440   69.3770    9.1140 C.3       2 GLC5        0.0000 
     30 CA         -1.5870   67.6560    8.3970 C.3       6 GLL5        0.0000 
     31 CA         -0.3010   71.0980    9.8310 C.3       4 GLP5        0.0000 
     32 CA         -2.4435   69.0140    7.8650 C.3       2 GLC5        0.0000 
     33 CA         -3.3000   70.3720    7.3330 C.3       4 GLP5        0.0000 
     34 CA          3.3685   64.4600    9.6065 C.3       2 GLC5        0.0000 
     35 CA          3.1320   63.6430    7.5600 C.3       6 GLL5        0.0000 
     36 CA          3.6740   65.7920   11.1910 C.3       4 GLP5        0.0000 
     37 CA          1.4950   63.8018    5.8990 C.3       2 GLC5        0.0000 
     38 CA          0.3550   63.4010    4.2330 C.3       4 GLP5        0.0000 
     39 CA          0.9710   64.8405    5.5895 C.3       2 GLC5        0.0000 
     40 CA         -0.0600   66.5920    5.9630 C.3       2 GLC5        0.0000 
     41 CA         -1.7070   66.9040    4.9800 C.3       4 GLP5        0.0000 
     42 CA         -1.9980   64.5515    7.8427 C.3       2 GLC5        0.0000 
     43 CA         -0.9170   66.3640    8.7800 C.3       6 GLL5        0.0000 
     44 CA         -2.8430   63.1030    6.3910 C.3       4 GLP5        0.0000 
     45 CA         -0.7526   66.2169   12.0555 C.3       2 GLC5        0.0000 
     46 CA         -1.3890   65.6360    9.8090 C.3       6 GLL5        0.0000 
     47 CA         -0.1420   67.8410   13.1990 C.3       4 GLP5        0.0000 
     48 CA         -1.3214   66.9071    6.7016 C.3       2 GLC5        0.0000 
     49 CA          0.4565   67.2270    9.5589 C.3       2 GLC5        0.0000 
     50 CA          1.8490   66.7239    8.8336 C.3       2 GLC5        0.0000 
@<TRIPOS>BOND
@<TRIPOS>SUBSTRUCTURE
     1 ALC1       22 GROUP        1 X    ALC  0     ROOT ALC X 1
     2 GLC5        1 GROUP        1 X    GLC  0     **** GLC X 6
     3 ALP1       24 GROUP        1 Y    ALP  0     ROOT ALP Y 8
     4 GLP5        3 GROUP        1 Y    GLP  0     **** GLP Y 13
     5 ALL1       23 GROUP        1 Z    ALL  0     ROOT ALL Z 15
     6 GLL5        2 GROUP        1 Z    GLL  0     **** GLL Z 20
@<TRIPOS>SET

