#    Name: 2uzn_C96_1_ligand
#    Modification time : Tue Mar 25 00:36:20 2014

@<TRIPOS>MOLECULE
2uzn_C96_1_ligand
   38    40     1     0     0
SMALL
NO_CHARGES


@<TRIPOS>ATOM
      1 O4          7.1480   60.4530    6.6830 O.2       1 C961299     0.0000 
      2 S2          6.0470   60.1670    7.5640 S.o2      1 C961299     0.0000 
      3 O3          5.3600   58.9900    7.1040 O.2       1 C961299     0.0000 
      4 N6          6.5970   59.9180    9.0460 N.pl3     1 C961299     0.0000 
      5 C16         4.9310   61.5280    7.5700 C.ar      1 C961299     0.0000 
      6 C15         3.8930   61.5590    8.4930 C.ar      1 C961299     0.0000 
      7 C14         2.9940   62.6130    8.4840 C.ar      1 C961299     0.0000 
      8 C13         3.1320   63.6430    7.5600 C.ar      1 C961299     0.0000 
      9 C18         4.1640   63.6120    6.6280 C.ar      1 C961299     0.0000 
     10 C17         5.0630   62.5480    6.6310 C.ar      1 C961299     0.0000 
     11 C4          2.1380   64.7620    7.5700 C.2       1 C961299     0.0000 
     12 O2          1.0230   64.8010    8.3590 O.3       1 C961299     0.0000 
     13 C3          2.1460   65.9030    6.7740 C.2       1 C961299     0.0000 
     14 C2          1.0280   66.6570    7.1180 C.2       1 C961299     0.0000 
     15 C1          0.3480   65.9650    8.1190 C.2       1 C961299     0.0000 
     16 C6         -0.9170   66.3640    8.7800 C.2       1 C961299     0.0000 
     17 C7         -1.3890   65.6360    9.8090 C.2       1 C961299     0.0000 
     18 S1         -0.5580   64.3950   10.5270 S.3       1 C961299     0.0000 
     19 C9         -1.7530   64.1700   11.6560 C.2       1 C961299     0.0000 
     20 N3         -1.7060   63.2880   12.5690 N.pl3     1 C961299     0.0000 
     21 N2         -2.7660   65.0290   11.4980 N.am      1 C961299     0.0000 
     22 C8         -2.5900   65.8730   10.4730 C.2       1 C961299     0.0000 
     23 C20        -1.5870   67.6560    8.3970 C.3       1 C961299     0.0000 
     24 O1         -3.4000   66.7390   10.1550 O.2       1 C961299     0.0000 
     25 H           6.0343   59.3349    9.6320 H         1 C961299     0.0000 
     26 H           7.4622   60.3641    9.2750 H         1 C961299     0.0000 
     27 H           3.7938   60.8007    9.1803 H         1 C961299     0.0000 
     28 H           2.2194   62.6360    9.1636 H         1 C961299     0.0000 
     29 H           4.2633   64.3676    5.9422 H         1 C961299     0.0000 
     30 H           5.8232   62.5158    5.9406 H         1 C961299     0.0000 
     31 H           2.7895   66.1246    6.1222 H         1 C961299     0.0000 
     32 H           0.7756   67.4844    6.7435 H         1 C961299     0.0000 
     33 H          -2.4929   63.2499   13.1850 H         1 C961299     0.0000 
     34 H          -0.8866   62.7150   12.5855 H         1 C961299     0.0000 
     35 H          -3.5757   65.0407   12.0868 H         1 C961299     0.0000 
     36 H          -0.9969   68.4451    8.5675 H         1 C961299     0.0000 
     37 H          -1.8294   67.6754    7.4270 H         1 C961299     0.0000 
     38 H          -2.4307   67.8040    8.9130 H         1 C961299     0.0000 
@<TRIPOS>BOND
     1    2    1 2    
     2    3    2 2    
     3    4    2 1    
     4    5    2 1    
     5   25    4 1    
     6   26    4 1    
     7    6    5 ar   
     8   10    5 ar   
     9    7    6 ar   
    10   27    6 1    
    11    8    7 ar   
    12   28    7 1    
    13    9    8 ar   
    14   11    8 1    
    15   10    9 ar   
    16   29    9 1    
    17   30   10 1    
    18   12   11 1    
    19   13   11 2    
    20   15   12 1    
    21   14   13 1    
    22   31   13 1    
    23   15   14 2    
    24   32   14 1    
    25   16   15 1    
    26   17   16 2    
    27   23   16 1    
    28   18   17 1    
    29   22   17 1    
    30   19   18 1    
    31   20   19 2    
    32   21   19 1    
    33   33   20 1    
    34   34   20 1    
    35   22   21 am   
    36   35   21 1    
    37   24   22 2    
    38   36   23 1    
    39   37   23 1    
    40   38   23 1    
@<TRIPOS>SUBSTRUCTURE
     1 C961299     1 GROUP   
@<TRIPOS>SET

