#    Name: 1jil_485_1_INTS_M
#    Modification time : Tue Mar 25 08:56:42 2014

@<TRIPOS>MOLECULE
1jil_485_1_INTS_M
   74     0    12     0     0
SMALL
NO_CHARGES


@<TRIPOS>ATOM
      1 N          24.8130    7.6540   84.9065 N.am      2 SEC2        0.0000 
      2 N          25.3940    7.2340   83.6780 N.am     10 SEL2        0.0000 
      3 N          24.2320    8.0740   86.1350 N.am      6 SEP2        0.0000 
      4 O          24.9545    6.3700   82.8380 O.2       1 ALC1        0.0000 
      5 O          25.3940    7.2340   83.6780 O.2       9 ALL1        0.0000 
      6 O          24.5150    5.5060   81.9980 O.2       5 ALP1        0.0000 
      7 CA         24.6905    6.7155   83.4770 C.3       4 GLC5        0.0000 
      8 CA         26.5770    7.7550   83.3260 C.3      12 GLL5        0.0000 
      9 CA         22.8040    5.6760   83.6280 C.3       8 GLP5        0.0000 
     10 CA         27.8355    7.2365   79.6170 C.3       4 GLC5        0.0000 
     11 CA         28.3420    7.9560   81.6770 C.3      12 GLL5        0.0000 
     12 CA         27.3290    6.5170   77.5570 C.3       8 GLP5        0.0000 
     13 CA         26.4990    7.1000   80.0340 C.3       4 GLC5        0.0000 
     14 CA         27.1200    7.4330   82.0720 C.3      12 GLL5        0.0000 
     15 CA         25.8780    6.7670   77.9960 C.3       8 GLP5        0.0000 
     16 CA         25.8690    9.0365   82.4300 C.3       4 GLC5        0.0000 
     17 CA         24.6180   10.6400   82.7880 C.3       8 GLP5        0.0000 
     18 CA         31.8885    8.2430   82.7240 C.3       4 GLC5        0.0000 
     19 CA         30.3740    9.4080   82.1210 C.3      12 GLL5        0.0000 
     20 CA         33.4030    7.0780   83.3270 C.3       8 GLP5        0.0000 
     21 OD1        29.2920   12.4790   80.1970 O.co2     3 ASC3        0.0000 
     22 OD1        29.2130   11.3250   80.9800 O.co2    11 ASL3        0.0000 
     23 OD1        29.3710   13.6330   79.4140 O.co2     7 ASP3        0.0000 
     24 O          29.2920   12.4790   80.1970 O.2       1 ALC1        0.0000 
     25 O          29.2130   11.3250   80.9800 O.2       9 ALL1        0.0000 
     26 O          29.3710   13.6330   79.4140 O.2       5 ALP1        0.0000 
     27 O          28.9145   10.5480   79.7710 O.2       1 ALC1        0.0000 
     28 O          28.6160    9.7710   78.5620 O.2       5 ALP1        0.0000 
     29 O          27.9040   11.3640   81.3380 O.2       1 ALC1        0.0000 
     30 O          26.5950   11.4030   81.6960 O.2       5 ALP1        0.0000 
     31 N          33.8665    8.3320   81.1005 N.am      2 SEC2        0.0000 
     32 N          34.4000    9.5790   81.3100 N.am     10 SEL2        0.0000 
     33 N          33.3330    7.0850   80.8910 N.am      6 SEP2        0.0000 
     34 N          37.2155   10.6220   81.5775 N.am      2 SEC2        0.0000 
     35 N          36.1870   11.0400   80.8280 N.am     10 SEL2        0.0000 
     36 N          38.2440   10.2040   82.3270 N.am      6 SEP2        0.0000 
     37 CA         36.3080   11.3745   83.4240 C.3       4 GLC5        0.0000 
     38 CA         34.7180   12.5970   83.1920 C.3      12 GLL5        0.0000 
     39 CA         37.8980   10.1520   83.6560 C.3       8 GLP5        0.0000 
     40 CA         32.0220   14.3560   83.9850 C.3       4 GLC5        0.0000 
     41 CA         34.0090   13.8940   83.5760 C.3      12 GLL5        0.0000 
     42 CA         30.0350   14.8180   84.3940 C.3       8 GLP5        0.0000 
     43 O          33.2305   15.7790   82.3765 O.2       1 ALC1        0.0000 
     44 O          34.1700   14.8400   82.5490 O.2       9 ALL1        0.0000 
     45 O          32.2910   16.7180   82.2040 O.2       5 ALP1        0.0000 
     46 O          33.6740   16.6060   84.5205 O.2       1 ALC1        0.0000 
     47 O          33.8810   15.6110   85.2070 O.2       9 ALL1        0.0000 
     48 O          33.4670   17.6010   83.8340 O.2       5 ALP1        0.0000 
     49 N          32.7280   14.3840   87.0910 N.am      2 SEC2        0.0000 
     50 N          33.1260   13.2250   86.2990 N.am     10 SEL2        0.0000 
     51 N          32.3300   15.5430   87.8830 N.am      6 SEP2        0.0000 
     52 CA         33.5800   10.3745   87.8290 C.3       4 GLC5        0.0000 
     53 CA         35.1070   10.9150   86.6270 C.3      12 GLL5        0.0000 
     54 CA         32.0530    9.8340   89.0310 C.3       8 GLP5        0.0000 
     55 CA         35.2170   12.1470   88.2510 C.3       4 GLC5        0.0000 
     56 CA         35.3270   13.3790   89.8750 C.3       8 GLP5        0.0000 
     57 CA         35.5025    9.2560   87.2490 C.3       4 GLC5        0.0000 
     58 CA         35.8980    7.5970   87.8710 C.3       8 GLP5        0.0000 
     59 CA         27.6995    6.2957   83.7070 C.3       4 GLC5        0.0000 
     60 CA         27.2530    8.6040   84.2080 C.3      12 GLL5        0.0000 
     61 CA         28.4840    4.4120   83.6470 C.3       8 GLP5        0.0000 
     62 CA         29.2327    7.9890   84.9370 C.3       4 GLC5        0.0000 
     63 CA         30.5810    7.0990   85.8610 C.3       8 GLP5        0.0000 
     64 CA         26.1668    9.6534   83.2902 C.3       4 GLC5        0.0000 
     65 CA         28.5160    9.1540   83.8180 C.3      12 GLL5        0.0000 
     66 CA         30.1472    8.1092   84.1000 C.3       4 GLC5        0.0000 
     67 CA         29.0530    8.8310   82.5570 C.3      12 GLL5        0.0000 
     68 CA         28.1075    6.0533   82.7608 C.3       4 GLC5        0.0000 
     69 CA         33.7918   15.3868   86.6240 C.3       4 GLC5        0.0000 
     70 CA         34.5260   13.4490   86.0500 C.3      12 GLL5        0.0000 
     71 CA         33.0150   16.8180   87.7790 C.3       8 GLP5        0.0000 
     72 CA         35.1043   13.0742   87.8560 C.3       4 GLC5        0.0000 
     73 CA         36.5350   10.8272   84.8907 C.3       4 GLC5        0.0000 
     74 CA         35.2370   12.0900   85.6240 C.3      12 GLL5        0.0000 
@<TRIPOS>BOND
@<TRIPOS>SUBSTRUCTURE
     1 ALC1        4 GROUP        1 X    ALC  0     ROOT ALC X 1
     2 SEC2        1 GROUP        1 X    SEC  0     **** SEC X 2
     3 ASC3       21 GROUP        1 X    ASC  0     **** ASC X 3
     4 GLC5        7 GROUP        1 X    GLC  0     **** GLC X 6
     5 ALP1        6 GROUP        1 Y    ALP  0     ROOT ALP Y 8
     6 SEP2        3 GROUP        1 Y    SEP  0     **** SEP Y 9
     7 ASP3       23 GROUP        1 Y    ASP  0     **** ASP Y 10
     8 GLP5        9 GROUP        1 Y    GLP  0     **** GLP Y 13
     9 ALL1        5 GROUP        1 Z    ALL  0     ROOT ALL Z 15
    10 SEL2        2 GROUP        1 Z    SEL  0     **** SEL Z 16
    11 ASL3       22 GROUP        1 Z    ASL  0     **** ASL Z 17
    12 GLL5        8 GROUP        1 Z    GLL  0     **** GLL Z 20
@<TRIPOS>SET

