#    Name: 1jil_485_1_ligand
#    Modification time : Tue Mar 25 08:56:42 2014

@<TRIPOS>MOLECULE
1jil_485_1_ligand
   51    52     1     0     0
SMALL
NO_CHARGES


@<TRIPOS>ATOM
      1 O1         25.3940    7.2340   83.6780 O.3       1 485421      0.0000 
      2 C2         26.5770    7.7550   83.3260 C.ar      1 485421      0.0000 
      3 C3         27.2530    8.6040   84.2080 C.ar      1 485421      0.0000 
      4 C4         28.5160    9.1540   83.8180 C.ar      1 485421      0.0000 
      5 C5         29.0530    8.8310   82.5570 C.ar      1 485421      0.0000 
      6 C6         28.3420    7.9560   81.6770 C.ar      1 485421      0.0000 
      7 C7         27.1200    7.4330   82.0720 C.ar      1 485421      0.0000 
      8 C8         30.3740    9.4080   82.1210 C.3       1 485421      0.0000 
      9 C9         30.3560   10.9040   81.8700 C.3       1 485421      0.0000 
     10 N10        29.2130   11.3250   80.9800 N.4       1 485421      0.0000 
     11 C11        31.7220   11.3520   81.3210 C.2       1 485421      0.0000 
     12 O12        31.8770   11.5220   80.1490 O.2       1 485421      0.0000 
     13 N13        32.7040   11.5320   82.2170 N.am      1 485421      0.0000 
     14 C14        34.1280   11.9840   81.9310 C.3       1 485421      0.0000 
     15 C15        35.0240   10.8290   81.3040 C.2       1 485421      0.0000 
     16 O16        34.4000    9.5790   81.3100 O.co2     1 485421      0.0000 
     17 O17        36.1870   11.0400   80.8280 O.co2     1 485421      0.0000 
     18 C18        34.7180   12.5970   83.1920 C.3       1 485421      0.0000 
     19 C19        34.0090   13.8940   83.5760 C.3       1 485421      0.0000 
     20 C20        34.6110   14.4620   84.8880 C.3       1 485421      0.0000 
     21 C21        34.5260   13.4490   86.0500 C.3       1 485421      0.0000 
     22 C22        35.2370   12.0900   85.6240 C.3       1 485421      0.0000 
     23 O23        34.5810   11.6560   84.3650 O.3       1 485421      0.0000 
     24 O24        34.1700   14.8400   82.5490 O.3       1 485421      0.0000 
     25 O25        33.8810   15.6110   85.2070 O.3       1 485421      0.0000 
     26 O26        33.1260   13.2250   86.2990 O.3       1 485421      0.0000 
     27 C27        35.1070   10.9150   86.6270 C.3       1 485421      0.0000 
     28 H          26.8658    8.8365   85.1164 H         1 485421      0.0000 
     29 H          29.0122    9.7709   84.4530 H         1 485421      0.0000 
     30 H          28.7475    7.7302   80.7693 H         1 485421      0.0000 
     31 H          26.5998    6.8016   81.4449 H         1 485421      0.0000 
     32 H          30.7077    8.8957   81.1964 H         1 485421      0.0000 
     33 H          31.1404    9.1851   82.8902 H         1 485421      0.0000 
     34 H          30.2319   11.3994   82.8508 H         1 485421      0.0000 
     35 H          32.5357   11.3574   83.2567 H         1 485421      0.0000 
     36 H          34.0705   12.7845   81.1679 H         1 485421      0.0000 
     37 H          35.7602   12.8108   83.0395 H         1 485421      0.0000 
     38 H          32.9732   13.6723   83.7638 H         1 485421      0.0000 
     39 H          35.6464   14.6836   84.7016 H         1 485421      0.0000 
     40 H          35.0314   13.8430   86.8871 H         1 485421      0.0000 
     41 H          36.2651   12.2931   85.4323 H         1 485421      0.0000 
     42 H          28.3941   11.5494   81.5083 H         1 485421      0.0000 
     43 H          29.4427   12.1333   80.4379 H         1 485421      0.0000 
     44 H          28.9580   10.6032   80.3365 H         1 485421      0.0000 
     45 H          35.5751   10.0941   86.3000 H         1 485421      0.0000 
     46 H          35.5008   11.1418   87.5178 H         1 485421      0.0000 
     47 H          34.1516   10.6647   86.7840 H         1 485421      0.0000 
     48 H          25.3923    6.3117   83.2916 H         1 485421      0.0000 
     49 H          33.3519   15.4132   82.5947 H         1 485421      0.0000 
     50 H          33.9430   16.1908   84.3946 H         1 485421      0.0000 
     51 H          33.0690   12.2815   86.6256 H         1 485421      0.0000 
@<TRIPOS>BOND
     1    2    1 1    
     2   48    1 1    
     3    3    2 ar   
     4    7    2 ar   
     5    4    3 ar   
     6   28    3 1    
     7    5    4 ar   
     8   29    4 1    
     9    6    5 ar   
    10    8    5 1    
    11    7    6 ar   
    12   30    6 1    
    13   31    7 1    
    14    9    8 1    
    15   32    8 1    
    16   33    8 1    
    17   10    9 1    
    18   11    9 1    
    19   34    9 1    
    20   42   10 1    
    21   43   10 1    
    22   44   10 1    
    23   12   11 2    
    24   13   11 am   
    25   14   13 1    
    26   35   13 1    
    27   15   14 1    
    28   18   14 1    
    29   36   14 1    
    30   16   15 ar   
    31   17   15 ar   
    32   19   18 1    
    33   23   18 1    
    34   37   18 1    
    35   20   19 1    
    36   24   19 1    
    37   38   19 1    
    38   21   20 1    
    39   25   20 1    
    40   39   20 1    
    41   22   21 1    
    42   26   21 1    
    43   40   21 1    
    44   23   22 1    
    45   27   22 1    
    46   41   22 1    
    47   49   24 1    
    48   50   25 1    
    49   51   26 1    
    50   45   27 1    
    51   46   27 1    
    52   47   27 1    
@<TRIPOS>SUBSTRUCTURE
     1 485421      1 GROUP   
@<TRIPOS>SET

