#    Name: 6cox_S58_1_INTS_M
#    Modification time : Tue Mar 25 13:52:09 2014

@<TRIPOS>MOLECULE
6cox_S58_1_INTS_M
   70     0     6     0     0
SMALL
NO_CHARGES


@<TRIPOS>ATOM
      1 CA         20.1550   20.3200   49.9815 C.3       2 GLC5        0.0000 
      2 CA         20.9290   21.8370   49.0970 C.3       6 GLL5        0.0000 
      3 CA         19.3810   18.8030   50.8660 C.3       4 GLP5        0.0000 
      4 CA         22.2675   21.8235   46.8975 C.3       2 GLC5        0.0000 
      5 CA         22.3370   23.7540   47.5730 C.3       6 GLL5        0.0000 
      6 CA         22.1980   19.8930   46.2220 C.3       4 GLP5        0.0000 
      7 CA         26.0550   25.7635   48.1180 C.3       2 GLC5        0.0000 
      8 CA         25.6140   25.3240   46.0910 C.3       6 GLL5        0.0000 
      9 CA         26.4960   26.2030   50.1450 C.3       4 GLP5        0.0000 
     10 CA         23.2145   22.0045   43.9050 C.3       2 GLC5        0.0000 
     11 CA         24.4530   23.7430   44.0620 C.3       6 GLL5        0.0000 
     12 CA         21.9760   20.2660   43.7480 C.3       4 GLP5        0.0000 
     13 CA         23.3740   21.5660   45.7930 C.3       2 GLC5        0.0000 
     14 CA         24.5500   23.2390   45.3640 C.3       6 GLL5        0.0000 
     15 O          17.0380   24.8685   49.1315 O.2       1 ALC1        0.0000 
     16 O          17.7920   23.6300   49.5410 O.2       5 ALL1        0.0000 
     17 O          16.2840   26.1070   48.7220 O.2       3 ALP1        0.0000 
     18 O          18.6320   23.4750   50.9105 O.2       1 ALC1        0.0000 
     19 O          19.4720   23.3200   52.2800 O.2       3 ALP1        0.0000 
     20 CA         26.6760   25.4670   40.9910 C.3       2 GLC5        0.0000 
     21 CA         24.8760   25.6810   42.0800 C.3       6 GLL5        0.0000 
     22 CA         28.4760   25.2530   39.9020 C.3       4 GLP5        0.0000 
     23 CA         24.6765   25.2140   40.2035 C.3       2 GLC5        0.0000 
     24 CA         24.4770   24.7470   38.3270 C.3       4 GLP5        0.0000 
     25 CA         25.5975   26.9080   41.3980 C.3       2 GLC5        0.0000 
     26 CA         26.3190   28.1350   40.7160 C.3       4 GLP5        0.0000 
     27 CA         23.4040   26.7685   41.8655 C.3       2 GLC5        0.0000 
     28 CA         21.9320   27.8560   41.6510 C.3       4 GLP5        0.0000 
     29 CA         25.6445   23.8500   41.5375 C.3       2 GLC5        0.0000 
     30 CA         26.4130   22.0190   40.9950 C.3       4 GLP5        0.0000 
     31 CA         29.9630   23.7285   49.8225 C.3       2 GLC5        0.0000 
     32 CA         28.3060   23.6390   50.4780 C.3       6 GLL5        0.0000 
     33 CA         31.6200   23.8180   49.1670 C.3       4 GLP5        0.0000 
     34 CA         29.1430   20.8530   51.9810 C.3       2 GLC5        0.0000 
     35 CA         27.8870   21.4830   50.6680 C.3       6 GLL5        0.0000 
     36 CA         30.3990   20.2230   53.2940 C.3       4 GLP5        0.0000 
     37 CA         26.2140   24.8483   49.0888 C.3       2 GLC5        0.0000 
     38 CA         26.5160   23.5000   48.3410 C.3       6 GLL5        0.0000 
     39 CA         26.5015   21.9977   46.8372 C.3       2 GLC5        0.0000 
     40 CA         27.0710   20.5020   45.6420 C.3       4 GLP5        0.0000 
     41 CA         29.2345   21.8137   49.5325 C.3       2 GLC5        0.0000 
     42 CA         27.3710   22.7160   50.7040 C.3       6 GLL5        0.0000 
     43 CA         30.8400   21.5280   48.3790 C.3       4 GLP5        0.0000 
     44 CA         22.4935   23.3340   50.2167 C.3       2 GLC5        0.0000 
     45 CA         23.0300   22.8360   48.3890 C.3       6 GLL5        0.0000 
     46 CA         22.3110   24.3090   51.6690 C.3       4 GLP5        0.0000 
     47 CA         20.7683   23.5495   49.9285 C.3       2 GLC5        0.0000 
     48 CA         20.9550   24.8100   51.1600 C.3       4 GLP5        0.0000 
     49 CA         22.0002   20.9955   47.5764 C.3       2 GLC5        0.0000 
     50 CA         20.2912   21.9270   46.5727 C.3       2 GLC5        0.0000 
     51 CA         20.2340   22.7410   48.2970 C.3       6 GLL5        0.0000 
     52 CA         20.0000   20.6320   45.2330 C.3       4 GLP5        0.0000 
     53 CA         21.5060   25.7898   47.2593 C.3       2 GLC5        0.0000 
     54 CA         20.9310   23.7030   47.5280 C.3       6 GLL5        0.0000 
     55 CA         21.3780   27.8510   46.9680 C.3       4 GLP5        0.0000 
     56 CA         21.2945   24.2692   49.3552 C.3       2 GLC5        0.0000 
     57 CA         23.9209   26.7033   45.3419 C.3       2 GLC5        0.0000 
     58 CA         22.5900   28.1030   46.0720 C.3       4 GLP5        0.0000 
     59 CA         25.5550   23.2033   42.4592 C.3       2 GLC5        0.0000 
     60 CA         24.9410   25.0320   43.7850 C.3       6 GLL5        0.0000 
     61 CA         27.3104   25.3223   44.3489 C.3       2 GLC5        0.0000 
     62 CA         29.3690   25.3410   44.0860 C.3       4 GLP5        0.0000 
     63 CA         26.1580   22.5450   44.7651 C.3       2 GLC5        0.0000 
     64 CA         25.1400   24.0310   46.3770 C.3       6 GLL5        0.0000 
     65 CA         27.6670   21.4010   44.5640 C.3       4 GLP5        0.0000 
     66 CA         27.0984   24.7207   50.5160 C.3       2 GLC5        0.0000 
     67 CA         27.4999   24.1962   52.0775 C.3       2 GLC5        0.0000 
     68 CA         27.2990   25.1540   53.2680 C.3       4 GLP5        0.0000 
     69 CA         25.8596   21.4413   51.9210 C.3       2 GLC5        0.0000 
     70 CA         24.2280   20.7220   52.8600 C.3       4 GLP5        0.0000 
@<TRIPOS>BOND
@<TRIPOS>SUBSTRUCTURE
     1 ALC1       15 GROUP        1 X    ALC  0     ROOT ALC X 1
     2 GLC5        1 GROUP        1 X    GLC  0     **** GLC X 6
     3 ALP1       17 GROUP        1 Y    ALP  0     ROOT ALP Y 8
     4 GLP5        3 GROUP        1 Y    GLP  0     **** GLP Y 13
     5 ALL1       16 GROUP        1 Z    ALL  0     ROOT ALL Z 15
     6 GLL5        2 GROUP        1 Z    GLL  0     **** GLL Z 20
@<TRIPOS>SET

