#    Name: 6cox_S58_1_ligand
#    Modification time : Tue Mar 25 13:52:09 2014

@<TRIPOS>MOLECULE
6cox_S58_1_ligand
   37    39     1     0     0
SMALL
NO_CHARGES


@<TRIPOS>ATOM
      1 C1         26.5160   23.5000   48.3410 C.2       1 S58701      0.0000 
      2 C2         25.3480   23.4870   47.7240 C.2       1 S58701      0.0000 
      3 C3         26.3440   22.8380   49.6420 C.2       1 S58701      0.0000 
      4 C4         27.3710   22.7160   50.7040 C.3       1 S58701      0.0000 
      5 C5         23.0300   22.8360   48.3890 C.ar      1 S58701      0.0000 
      6 C6         22.3220   21.8820   49.1400 C.ar      1 S58701      0.0000 
      7 C7         20.9290   21.8370   49.0970 C.ar      1 S58701      0.0000 
      8 C8         20.2340   22.7410   48.2970 C.ar      1 S58701      0.0000 
      9 C9         20.9310   23.7030   47.5280 C.ar      1 S58701      0.0000 
     10 C10        22.3370   23.7540   47.5730 C.ar      1 S58701      0.0000 
     11 C11        25.1400   24.0310   46.3770 C.ar      1 S58701      0.0000 
     12 C12        25.6140   25.3240   46.0910 C.ar      1 S58701      0.0000 
     13 C13        25.5110   25.8260   44.7860 C.ar      1 S58701      0.0000 
     14 C14        24.9410   25.0320   43.7850 C.ar      1 S58701      0.0000 
     15 C15        24.4530   23.7430   44.0620 C.ar      1 S58701      0.0000 
     16 C16        24.5500   23.2390   45.3640 C.ar      1 S58701      0.0000 
     17 N1         24.4370   22.8660   48.5210 N.pl3     1 S58701      0.0000 
     18 N2         25.1210   22.4560   49.7260 N.2       1 S58701      0.0000 
     19 N3         17.7920   23.6300   49.5410 N.pl3     1 S58701      0.0000 
     20 O1         18.1390   21.2260   48.4160 O.2       1 S58701      0.0000 
     21 O2         17.9120   23.0820   47.0180 O.2       1 S58701      0.0000 
     22 BR1        24.8760   25.6810   42.0800 Br        1 S58701      0.0000 
     23 F1         26.8200   22.9600   51.8880 F         1 S58701      0.0000 
     24 F2         28.3060   23.6390   50.4780 F         1 S58701      0.0000 
     25 F3         27.8870   21.4830   50.6680 F         1 S58701      0.0000 
     26 S1         18.4310   22.6150   48.2540 S.o2      1 S58701      0.0000 
     27 H          27.3540   23.8472   48.0713 H         1 S58701      0.0000 
     28 H          22.8407   21.2129   49.7253 H         1 S58701      0.0000 
     29 H          20.4194   21.1418   49.6517 H         1 S58701      0.0000 
     30 H          20.4115   24.3581   46.9421 H         1 S58701      0.0000 
     31 H          22.8462   24.4416   47.0261 H         1 S58701      0.0000 
     32 H          26.0300   25.8917   46.8303 H         1 S58701      0.0000 
     33 H          25.8501   26.7649   44.5689 H         1 S58701      0.0000 
     34 H          24.0334   23.1836   43.3204 H         1 S58701      0.0000 
     35 H          24.1998   22.3079   45.5880 H         1 S58701      0.0000 
     36 H          17.6007   24.5809   49.2976 H         1 S58701      0.0000 
     37 H          17.6636   23.1869   50.4282 H         1 S58701      0.0000 
@<TRIPOS>BOND
     1    2    1 2    
     2    3    1 1    
     3   27    1 1    
     4   11    2 1    
     5   17    2 1    
     6    4    3 1    
     7   18    3 2    
     8   23    4 1    
     9   24    4 1    
    10   25    4 1    
    11    6    5 ar   
    12   10    5 ar   
    13   17    5 1    
    14    7    6 ar   
    15   28    6 1    
    16    8    7 ar   
    17   29    7 1    
    18    9    8 ar   
    19   26    8 1    
    20   10    9 ar   
    21   30    9 1    
    22   31   10 1    
    23   12   11 ar   
    24   16   11 ar   
    25   13   12 ar   
    26   32   12 1    
    27   14   13 ar   
    28   33   13 1    
    29   15   14 ar   
    30   22   14 1    
    31   16   15 ar   
    32   34   15 1    
    33   35   16 1    
    34   18   17 1    
    35   26   19 1    
    36   36   19 1    
    37   37   19 1    
    38   26   20 2    
    39   26   21 2    
@<TRIPOS>SUBSTRUCTURE
     1 S58701      1 GROUP   
@<TRIPOS>SET

