#    Name: 3qe0_GDP_4_INTS_M
#    Modification time : Mon Apr  7 19:22:49 2014

@<TRIPOS>MOLECULE
3qe0_GDP_4_INTS_M
   67     0    15     0     0
SMALL
NO_CHARGES


@<TRIPOS>ATOM
      1 Zn         82.4390  -26.8055   12.8240 Zn        4 ZIC7        0.0000 
      2 Zn         82.3340  -27.9680   13.4880 Zn       14 ZIL7        0.0000 
      3 Zn         82.5440  -25.6430   12.1600 Zn        9 ZIP7        0.0000 
      4 N          82.7240  -29.5215   14.0095 N.am      2 SEC2        0.0000 
      5 N          82.3340  -27.9680   13.4880 N.am     12 SEL2        0.0000 
      6 N          83.1140  -31.0750   14.5310 N.am      7 SEP2        0.0000 
      7 NZ         84.9220  -27.0510   15.0550 N.4       3 LYC4        0.0000 
      8 NZ         83.3030  -26.0650   14.7710 N.4      13 LYL4        0.0000 
      9 NZ         86.5410  -28.0370   15.3390 N.4       8 LYP4        0.0000 
     10 Zn         82.9235  -25.8540   13.4655 Zn        4 ZIC7        0.0000 
     11 Zn         83.3030  -26.0650   14.7710 Zn       14 ZIL7        0.0000 
     12 N          82.8870  -25.0135   15.5840 N.am      2 SEC2        0.0000 
     13 N          83.3030  -26.0650   14.7710 N.am     12 SEL2        0.0000 
     14 N          82.4710  -23.9620   16.3970 N.am      7 SEP2        0.0000 
     15 NZ         85.2070  -28.2045   15.3470 N.4       3 LYC4        0.0000 
     16 NZ         83.8730  -28.3720   15.3550 N.4      13 LYL4        0.0000 
     17 N          83.5380  -29.5320   16.3005 N.am      2 SEC2        0.0000 
     18 N          83.8730  -28.3720   15.3550 N.am     12 SEL2        0.0000 
     19 N          83.2030  -30.6920   17.2460 N.am      7 SEP2        0.0000 
     20 N          85.2070  -28.2045   15.3470 N.am      2 SEC2        0.0000 
     21 N          86.5410  -28.0370   15.3390 N.am      7 SEP2        0.0000 
     22 N          81.9310  -28.0515   17.2660 N.am      2 SEC2        0.0000 
     23 N          81.5140  -27.5240   15.8730 N.am     12 SEL2        0.0000 
     24 N          82.3480  -28.5790   18.6590 N.am      7 SEP2        0.0000 
     25 N          78.7315  -25.5970   16.8115 N.am      2 SEC2        0.0000 
     26 N          79.6580  -25.7980   15.8500 N.am     12 SEL2        0.0000 
     27 N          77.8050  -25.3960   17.7730 N.am      7 SEP2        0.0000 
     28 CA         80.1820  -30.3100   15.2765 C.3       5 GLC5        0.0000 
     29 CA         78.4620  -29.2770   15.2550 C.3      15 GLL5        0.0000 
     30 CA         81.9020  -31.3430   15.2980 C.3      10 GLP5        0.0000 
     31 CA         76.0645  -28.8155   13.8855 C.3       5 GLC5        0.0000 
     32 CA         76.2280  -28.3890   15.8370 C.3      15 GLL5        0.0000 
     33 CA         75.9010  -29.2420   11.9340 C.3      10 GLP5        0.0000 
     34 CA         77.1305  -26.2765   18.0615 C.3       5 GLC5        0.0000 
     35 CA         76.0400  -28.0390   17.2980 C.3      15 GLL5        0.0000 
     36 CA         78.2210  -24.5140   18.8250 C.3      10 GLP5        0.0000 
     37 CA         75.1860  -27.3215   19.2060 C.3       5 GLC5        0.0000 
     38 CA         74.3320  -26.6040   21.1140 C.3      10 GLP5        0.0000 
     39 O          74.3290  -26.2890   17.4585 O.2       1 ALC1        0.0000 
     40 O          74.7150  -27.5570   17.5490 O.2      11 ALL1        0.0000 
     41 O          73.9430  -25.0210   17.3680 O.2       6 ALP1        0.0000 
     42 CA         77.5300  -30.7125   18.9400 C.3       5 GLC5        0.0000 
     43 CA         76.2780  -29.3600   18.0040 C.3      15 GLL5        0.0000 
     44 CA         78.7820  -32.0650   19.8760 C.3      10 GLP5        0.0000 
     45 N          79.3430  -28.5720   21.8470 N.am      2 SEC2        0.0000 
     46 N          78.0680  -28.4600   21.0700 N.am     12 SEL2        0.0000 
     47 N          80.6180  -28.6840   22.6240 N.am      7 SEP2        0.0000 
     48 CA         77.9615  -30.5930   21.9925 C.3       5 GLC5        0.0000 
     49 CA         77.0390  -29.1390   21.6130 C.3      15 GLL5        0.0000 
     50 CA         78.8840  -32.0470   22.3720 C.3      10 GLP5        0.0000 
     51 CA         78.0615  -27.3665   22.1545 C.3       5 GLC5        0.0000 
     52 CA         79.0840  -25.5940   22.6960 C.3      10 GLP5        0.0000 
     53 N          78.5155  -30.1150   24.5690 N.am      2 SEC2        0.0000 
     54 N          77.2770  -29.1630   23.9830 N.am     12 SEL2        0.0000 
     55 N          79.7540  -31.0670   25.1550 N.am      7 SEP2        0.0000 
     56 O          75.3230  -30.9995   24.3740 O.2       1 ALC1        0.0000 
     57 O          75.4830  -30.2200   23.1160 O.2      11 ALL1        0.0000 
     58 O          75.1630  -31.7790   25.6320 O.2       6 ALP1        0.0000 
     59 O          73.3105  -31.4115   23.7780 O.2       1 ALC1        0.0000 
     60 O          73.6080  -31.3200   22.2920 O.2      11 ALL1        0.0000 
     61 O          73.0130  -31.5030   25.2640 O.2       6 ALP1        0.0000 
     62 CA         77.4870  -30.8255   20.1865 C.3       5 GLC5        0.0000 
     63 CA         76.1920  -29.5860   20.4970 C.3      15 GLL5        0.0000 
     64 CA         77.5595  -29.5940   13.6925 C.3       5 GLC5        0.0000 
     65 CA         77.1020  -29.6270   15.8330 C.3      15 GLL5        0.0000 
     66 CA         77.3370  -29.7360   11.8410 C.3      10 GLP5        0.0000 
     67 CA         75.4737  -27.9832   21.0845 C.3       5 GLC5        0.0000 
@<TRIPOS>BOND
@<TRIPOS>SUBSTRUCTURE
     1 ALC1       39 GROUP        1 X    ALC  0     ROOT ALC X 1
     2 SEC2        4 GROUP        1 X    SEC  0     **** SEC X 2
     3 LYC4        7 GROUP        1 X    LYC  0     **** LYC X 4
     4 ZIC7        1 GROUP        1 X    ZIC  0     **** ZIC X 5
     5 GLC5       28 GROUP        1 X    GLC  0     **** GLC X 6
     6 ALP1       41 GROUP        1 Y    ALP  0     ROOT ALP Y 8
     7 SEP2        6 GROUP        1 Y    SEP  0     **** SEP Y 9
     8 LYP4        9 GROUP        1 Y    LYP  0     **** LYP Y 11
     9 ZIP7        3 GROUP        1 Y    ZIP  0     **** ZIP Y 12
    10 GLP5       30 GROUP        1 Y    GLP  0     **** GLP Y 13
    11 ALL1       40 GROUP        1 Z    ALL  0     ROOT ALL Z 15
    12 SEL2        5 GROUP        1 Z    SEL  0     **** SEL Z 16
    13 LYL4        8 GROUP        1 Z    LYL  0     **** LYL Z 18
    14 ZIL7        2 GROUP        1 Z    ZIL  0     **** ZIL Z 19
    15 GLL5       29 GROUP        1 Z    GLL  0     **** GLL Z 20
@<TRIPOS>SET

