#    Name: 3qe0_GDP_4_ligand
#    Modification time : Mon Apr  7 19:22:49 2014

@<TRIPOS>MOLECULE
3qe0_GDP_4_ligand
   40    42     1     0     0
SMALL
NO_CHARGES


@<TRIPOS>ATOM
      1 PB         82.7660  -27.4760   14.8500 P.3       1 GDP551      0.0000 
      2 O1B        82.3340  -27.9680   13.4880 O.co2     1 GDP551      0.0000 
      3 O2B        83.3030  -26.0650   14.7710 O.co2     1 GDP551      0.0000 
      4 O3B        83.8730  -28.3720   15.3550 O.co2     1 GDP551      0.0000 
      5 O3A        81.5140  -27.5240   15.8730 O.3       1 GDP551      0.0000 
      6 PA         80.0260  -27.1750   15.3530 P.3       1 GDP551      0.0000 
      7 O1A        79.9360  -27.2550   13.8460 O.co2     1 GDP551      0.0000 
      8 O2A        79.6580  -25.7980   15.8500 O.co2     1 GDP551      0.0000 
      9 O5'        79.0480  -28.2480   16.0520 O.3       1 GDP551      0.0000 
     10 C5'        78.4620  -29.2770   15.2550 C.3       1 GDP551      0.0000 
     11 C4'        77.1020  -29.6270   15.8330 C.3       1 GDP551      0.0000 
     12 O4'        77.2390  -30.0440   17.1930 O.3       1 GDP551      0.0000 
     13 C3'        76.2280  -28.3890   15.8370 C.3       1 GDP551      0.0000 
     14 O3'        74.9630  -28.7050   15.2440 O.3       1 GDP551      0.0000 
     15 C2'        76.0400  -28.0390   17.2980 C.3       1 GDP551      0.0000 
     16 O2'        74.7150  -27.5570   17.5490 O.3       1 GDP551      0.0000 
     17 C1'        76.2780  -29.3600   18.0040 C.3       1 GDP551      0.0000 
     18 N9         76.7800  -29.1370   19.3830 N.pl3     1 GDP551      0.0000 
     19 C8         77.9000  -28.4700   19.7220 C.2       1 GDP551      0.0000 
     20 N7         78.0680  -28.4600   21.0700 N.2       1 GDP551      0.0000 
     21 C5         77.0390  -29.1390   21.6130 C.2       1 GDP551      0.0000 
     22 C6         76.6100  -29.5070   22.9830 C.2       1 GDP551      0.0000 
     23 O6         77.2770  -29.1630   23.9830 O.2       1 GDP551      0.0000 
     24 N1         75.4830  -30.2200   23.1160 N.am      1 GDP551      0.0000 
     25 C2         74.7380  -30.6030   22.0570 C.2       1 GDP551      0.0000 
     26 N2         73.6080  -31.3200   22.2920 N.pl3     1 GDP551      0.0000 
     27 N3         75.0730  -30.3030   20.7700 N.2       1 GDP551      0.0000 
     28 C4         76.1920  -29.5860   20.4970 C.2       1 GDP551      0.0000 
     29 H          79.0723  -30.1838   15.2513 H         1 GDP551      0.0000 
     30 H          78.3180  -28.9557   14.2203 H         1 GDP551      0.0000 
     31 H          76.6403  -30.3718   15.2330 H         1 GDP551      0.0000 
     32 H          76.7346  -27.6059   15.3512 H         1 GDP551      0.0000 
     33 H          76.8017  -27.3624   17.5851 H         1 GDP551      0.0000 
     34 H          75.3477  -29.8935   18.0221 H         1 GDP551      0.0000 
     35 H          78.5149  -28.0468   19.0868 H         1 GDP551      0.0000 
     36 H          75.1606  -30.4959   24.0877 H         1 GDP551      0.0000 
     37 H          73.1027  -31.6224   21.4838 H         1 GDP551      0.0000 
     38 H          73.3814  -31.4819   23.2524 H         1 GDP551      0.0000 
     39 H          74.2814  -28.3609   15.8897 H         1 GDP551      0.0000 
     40 H          74.7720  -26.5665   17.4239 H         1 GDP551      0.0000 
@<TRIPOS>BOND
     1    2    1 ar   
     2    3    1 ar   
     3    4    1 ar   
     4    5    1 1    
     5    6    5 1    
     6    7    6 ar   
     7    8    6 ar   
     8    9    6 1    
     9   10    9 1    
    10   11   10 1    
    11   29   10 1    
    12   30   10 1    
    13   12   11 1    
    14   13   11 1    
    15   31   11 1    
    16   17   12 1    
    17   14   13 1    
    18   15   13 1    
    19   32   13 1    
    20   39   14 1    
    21   16   15 1    
    22   17   15 1    
    23   33   15 1    
    24   40   16 1    
    25   18   17 1    
    26   34   17 1    
    27   19   18 1    
    28   28   18 1    
    29   20   19 2    
    30   35   19 1    
    31   21   20 1    
    32   22   21 1    
    33   28   21 2    
    34   23   22 2    
    35   24   22 am   
    36   25   24 1    
    37   36   24 1    
    38   26   25 1    
    39   27   25 2    
    40   37   26 1    
    41   38   26 1    
    42   28   27 1    
@<TRIPOS>SUBSTRUCTURE
     1 GDP551      1 GROUP   
@<TRIPOS>SET

