#    Name: 3mjh_GTP_2_INTS_M
#    Modification time : Mon Mar 24 23:16:33 2014

@<TRIPOS>MOLECULE
3mjh_GTP_2_INTS_M
   81     0    15     0     0
SMALL
NO_CHARGES


@<TRIPOS>ATOM
      1 Zn         12.2685   23.0560   18.7970 Zn        4 ZIC7        0.0000 
      2 Zn         12.0010   23.2260   17.8220 Zn       14 ZIL7        0.0000 
      3 Zn         12.5360   22.8860   19.7720 Zn        9 ZIP7        0.0000 
      4 N          13.3340   23.0860   17.2635 N.am      2 SEC2        0.0000 
      5 N          12.0010   23.2260   17.8220 N.am     12 SEL2        0.0000 
      6 N          14.6670   22.9460   16.7050 N.am      7 SEP2        0.0000 
      7 NZ          8.5700   22.8835   17.9975 N.4       3 LYC4        0.0000 
      8 NZ          9.6140   23.1080   17.1560 N.4      13 LYL4        0.0000 
      9 NZ          7.5260   22.6590   18.8390 N.4       8 LYP4        0.0000 
     10 N           8.5700   22.8835   17.9975 N.am      2 SEC2        0.0000 
     11 N           9.6140   23.1080   17.1560 N.am     12 SEL2        0.0000 
     12 N           7.5260   22.6590   18.8390 N.am      7 SEP2        0.0000 
     13 N           9.2410   21.9255   16.3655 N.am      2 SEC2        0.0000 
     14 N           8.8680   20.7430   15.5750 N.am      7 SEP2        0.0000 
     15 N           9.3610   26.0420   18.0120 N.am      2 SEC2        0.0000 
     16 N          10.4450   25.2090   18.4790 N.am     12 SEL2        0.0000 
     17 N           8.2770   26.8750   17.5450 N.am      7 SEP2        0.0000 
     18 NZ          8.1315   23.6640   19.5770 N.4       3 LYC4        0.0000 
     19 NZ          8.7370   24.6690   20.3150 N.4      13 LYL4        0.0000 
     20 N           8.1805   25.7305   21.3080 N.am      2 SEC2        0.0000 
     21 N           8.7370   24.6690   20.3150 N.am     12 SEL2        0.0000 
     22 N           7.6240   26.7920   22.3010 N.am      7 SEP2        0.0000 
     23 N           8.6605   24.4660   21.7105 N.am      2 SEC2        0.0000 
     24 N           8.5840   24.2630   23.1060 N.am      7 SEP2        0.0000 
     25 N           8.1315   23.6640   19.5770 N.am      2 SEC2        0.0000 
     26 Zn         11.8240   23.4240   20.1995 Zn        4 ZIC7        0.0000 
     27 Zn         11.1120   23.9620   20.6270 Zn       14 ZIL7        0.0000 
     28 N          11.1730   23.5160   22.0030 N.am      2 SEC2        0.0000 
     29 N          11.1120   23.9620   20.6270 N.am     12 SEL2        0.0000 
     30 N          11.2340   23.0700   23.3790 N.am      7 SEP2        0.0000 
     31 N           9.0150   26.6325   21.4840 N.am      2 SEC2        0.0000 
     32 N          10.4060   26.4730   20.6670 N.am     12 SEL2        0.0000 
     33 N          12.0160   25.5095   24.0245 N.am      2 SEC2        0.0000 
     34 N          11.7640   26.2240   22.8580 N.am     12 SEL2        0.0000 
     35 N          12.2680   24.7950   25.1910 N.am      7 SEP2        0.0000 
     36 N          12.1350   26.9450   23.9860 N.am      2 SEC2        0.0000 
     37 N          12.5060   27.6660   25.1140 N.am      7 SEP2        0.0000 
     38 CA          9.7830   28.7550   19.5805 C.3       5 GLC5        0.0000 
     39 CA         11.1020   29.4300   20.7980 C.3      15 GLL5        0.0000 
     40 CA          8.4640   28.0800   18.3630 C.3      10 GLP5        0.0000 
     41 N           8.8770   31.4410   21.9445 N.am      2 SEC2        0.0000 
     42 N          10.2650   31.1050   22.3200 N.am     12 SEL2        0.0000 
     43 N           7.4890   31.7770   21.5690 N.am      7 SEP2        0.0000 
     44 CA         14.3220   29.6355   21.9400 C.3       5 GLC5        0.0000 
     45 CA         12.6260   31.0290   22.0530 C.3      15 GLL5        0.0000 
     46 CA         16.0180   28.2420   21.8270 C.3      10 GLP5        0.0000 
     47 O          14.3300   32.9655   22.2445 O.2       1 ALC1        0.0000 
     48 O          13.1980   32.2730   21.7240 O.2      11 ALL1        0.0000 
     49 O          15.4620   33.6580   22.7650 O.2       6 ALP1        0.0000 
     50 O          14.3685   31.5215   24.7515 O.2       1 ALC1        0.0000 
     51 O          13.1230   31.9280   24.2320 O.2      11 ALL1        0.0000 
     52 O          15.6140   31.1150   25.2710 O.2       6 ALP1        0.0000 
     53 CA          8.8465   31.2725   23.1435 C.3       5 GLC5        0.0000 
     54 CA         10.8420   31.4800   23.5480 C.3      15 GLL5        0.0000 
     55 CA          6.8510   31.0650   22.7390 C.3      10 GLP5        0.0000 
     56 N           7.7505   28.6530   26.1105 N.am      2 SEC2        0.0000 
     57 N           9.0930   29.4850   26.0360 N.am     12 SEL2        0.0000 
     58 N           6.4080   27.8210   26.1850 N.am      7 SEP2        0.0000 
     59 CA          7.0930   30.9630   25.6250 C.3       5 GLC5        0.0000 
     60 CA          8.7760   30.7370   26.4550 C.3      15 GLL5        0.0000 
     61 CA          5.4100   31.1890   24.7950 C.3      10 GLP5        0.0000 
     62 CA          9.3795   29.2105   27.8245 C.3       5 GLC5        0.0000 
     63 CA          9.9830   27.6840   29.1940 C.3      10 GLP5        0.0000 
     64 N           5.8145   30.3245   27.8085 N.am      2 SEC2        0.0000 
     65 N           7.4570   30.4670   28.3110 N.am     12 SEL2        0.0000 
     66 N           4.1720   30.1820   27.3060 N.am      7 SEP2        0.0000 
     67 N           7.7650   29.5535   29.3460 N.am      2 SEC2        0.0000 
     68 N           8.0730   28.6400   30.3810 N.am      7 SEP2        0.0000 
     69 N           8.7030   30.5235   29.4910 N.am      2 SEC2        0.0000 
     70 N           9.9490   30.5800   30.6710 N.am      7 SEP2        0.0000 
     71 O           7.0480   33.0055   28.6400 O.2       1 ALC1        0.0000 
     72 O           7.8760   32.5900   27.6760 O.2      11 ALL1        0.0000 
     73 O           6.2200   33.4210   29.6040 O.2       6 ALP1        0.0000 
     74 O           7.5055   33.9900   28.4725 O.2       1 ALC1        0.0000 
     75 O           7.1350   35.3900   29.2690 O.2       6 ALP1        0.0000 
     76 O           7.7250   35.0885   28.1345 O.2       1 ALC1        0.0000 
     77 O           8.3150   34.7870   27.0000 O.2      11 ALL1        0.0000 
     78 CA          8.1165   31.3525   24.1635 C.3       5 GLC5        0.0000 
     79 CA          9.3820   31.6400   25.5880 C.3      15 GLL5        0.0000 
     80 CA         11.9848   31.6840   25.4675 C.3       5 GLC5        0.0000 
     81 CA         12.4030   32.1130   27.3960 C.3      10 GLP5        0.0000 
@<TRIPOS>BOND
@<TRIPOS>SUBSTRUCTURE
     1 ALC1       47 GROUP        1 X    ALC  0     ROOT ALC X 1
     2 SEC2        4 GROUP        1 X    SEC  0     **** SEC X 2
     3 LYC4        7 GROUP        1 X    LYC  0     **** LYC X 4
     4 ZIC7        1 GROUP        1 X    ZIC  0     **** ZIC X 5
     5 GLC5       38 GROUP        1 X    GLC  0     **** GLC X 6
     6 ALP1       49 GROUP        1 Y    ALP  0     ROOT ALP Y 8
     7 SEP2        6 GROUP        1 Y    SEP  0     **** SEP Y 9
     8 LYP4        9 GROUP        1 Y    LYP  0     **** LYP Y 11
     9 ZIP7        3 GROUP        1 Y    ZIP  0     **** ZIP Y 12
    10 GLP5       40 GROUP        1 Y    GLP  0     **** GLP Y 13
    11 ALL1       48 GROUP        1 Z    ALL  0     ROOT ALL Z 15
    12 SEL2        5 GROUP        1 Z    SEL  0     **** SEL Z 16
    13 LYL4        8 GROUP        1 Z    LYL  0     **** LYL Z 18
    14 ZIL7        2 GROUP        1 Z    ZIL  0     **** ZIL Z 19
    15 GLL5       39 GROUP        1 Z    GLL  0     **** GLL Z 20
@<TRIPOS>SET

