#    Name: 3mjh_GTP_2_ligand
#    Modification time : Mon Mar 24 23:16:33 2014

@<TRIPOS>MOLECULE
3mjh_GTP_2_ligand
   44    46     1     0     0
SMALL
NO_CHARGES


@<TRIPOS>ATOM
      1 PG         10.7880   24.0340   17.4050 P.3       1 GTP200      0.0000 
      2 O1G        11.1000   24.7790   16.1450 O.co2     1 GTP200      0.0000 
      3 O2G        12.0010   23.2260   17.8220 O.co2     1 GTP200      0.0000 
      4 O3G         9.6140   23.1080   17.1560 O.co2     1 GTP200      0.0000 
      5 O3B        10.4450   25.2090   18.4790 O.3       1 GTP200      0.0000 
      6 PB         10.1830   24.9980   20.0530 P.3       1 GTP200      0.0000 
      7 O1B         8.7370   24.6690   20.3150 O.co2     1 GTP200      0.0000 
      8 O2B        11.1120   23.9620   20.6270 O.co2     1 GTP200      0.0000 
      9 O3A        10.4060   26.4730   20.6670 O.3       1 GTP200      0.0000 
     10 PA         11.6660   26.9320   21.5430 P.3       1 GTP200      0.0000 
     11 O1A        11.7640   26.2240   22.8580 O.co2     1 GTP200      0.0000 
     12 O2A        12.9550   26.8340   20.7750 O.co2     1 GTP200      0.0000 
     13 O5'        11.3090   28.4820   21.8280 O.3       1 GTP200      0.0000 
     14 C5'        11.1020   29.4300   20.7980 C.3       1 GTP200      0.0000 
     15 C4'        11.2790   30.8500   21.3590 C.3       1 GTP200      0.0000 
     16 O4'        10.2650   31.1050   22.3200 O.3       1 GTP200      0.0000 
     17 C3'        12.6260   31.0290   22.0530 C.3       1 GTP200      0.0000 
     18 O3'        13.1980   32.2730   21.7240 O.3       1 GTP200      0.0000 
     19 C2'        12.2910   31.0300   23.5300 C.3       1 GTP200      0.0000 
     20 O2'        13.1230   31.9280   24.2320 O.3       1 GTP200      0.0000 
     21 C1'        10.8420   31.4800   23.5480 C.3       1 GTP200      0.0000 
     22 N9         10.0680   30.8960   24.6570 N.pl3     1 GTP200      0.0000 
     23 C8          9.8760   29.5680   24.9370 C.2       1 GTP200      0.0000 
     24 N7          9.0930   29.4850   26.0360 N.2       1 GTP200      0.0000 
     25 C5          8.7760   30.7370   26.4550 C.2       1 GTP200      0.0000 
     26 C6          8.0190   31.2250   27.5190 C.2       1 GTP200      0.0000 
     27 O6          7.4570   30.4670   28.3110 O.2       1 GTP200      0.0000 
     28 N1          7.8760   32.5900   27.6760 N.am      1 GTP200      0.0000 
     29 C2          8.4760   33.4760   26.8050 C.2       1 GTP200      0.0000 
     30 N2          8.3150   34.7870   27.0000 N.pl3     1 GTP200      0.0000 
     31 N3          9.2280   32.9870   25.7520 N.2       1 GTP200      0.0000 
     32 C4          9.3820   31.6400   25.5880 C.2       1 GTP200      0.0000 
     33 H          10.0921   29.3695   20.3749 H         1 GTP200      0.0000 
     34 H          11.8176   29.3122   19.9754 H         1 GTP200      0.0000 
     35 H          11.2218   31.5495   20.5426 H         1 GTP200      0.0000 
     36 H          13.2349   30.1994   21.8427 H         1 GTP200      0.0000 
     37 H          12.3339   30.0295   23.8802 H         1 GTP200      0.0000 
     38 H          10.8402   32.5683   23.6412 H         1 GTP200      0.0000 
     39 H          10.2374   28.8365   24.4359 H         1 GTP200      0.0000 
     40 H           7.3058   32.9556   28.4650 H         1 GTP200      0.0000 
     41 H           8.3668   35.3629   26.1841 H         1 GTP200      0.0000 
     42 H           8.1570   35.0752   27.9444 H         1 GTP200      0.0000 
     43 H          13.6275   32.5918   22.5689 H         1 GTP200      0.0000 
     44 H          13.9320   31.3936   24.4767 H         1 GTP200      0.0000 
@<TRIPOS>BOND
     1    2    1 ar   
     2    3    1 ar   
     3    4    1 ar   
     4    5    1 1    
     5    6    5 1    
     6    7    6 ar   
     7    8    6 ar   
     8    9    6 1    
     9   10    9 1    
    10   11   10 ar   
    11   12   10 ar   
    12   13   10 1    
    13   14   13 1    
    14   15   14 1    
    15   33   14 1    
    16   34   14 1    
    17   16   15 1    
    18   17   15 1    
    19   35   15 1    
    20   21   16 1    
    21   18   17 1    
    22   19   17 1    
    23   36   17 1    
    24   43   18 1    
    25   20   19 1    
    26   21   19 1    
    27   37   19 1    
    28   44   20 1    
    29   22   21 1    
    30   38   21 1    
    31   23   22 1    
    32   32   22 1    
    33   24   23 2    
    34   39   23 1    
    35   25   24 1    
    36   26   25 1    
    37   32   25 2    
    38   27   26 2    
    39   28   26 am   
    40   29   28 1    
    41   40   28 1    
    42   30   29 1    
    43   31   29 2    
    44   41   30 1    
    45   42   30 1    
    46   32   31 1    
@<TRIPOS>SUBSTRUCTURE
     1 GTP200      1 GROUP   
@<TRIPOS>SET

