#    Name: 4hxw_1A0_1_INTS_M
#    Modification time : Tue Mar 25 01:57:00 2014

@<TRIPOS>MOLECULE
4hxw_1A0_1_INTS_M
   70     0     6     0     0
SMALL
NO_CHARGES


@<TRIPOS>ATOM
      1 CA         -8.0825   -2.3905  -11.2330 C.3       2 GLC5        0.0000 
      2 CA        -10.2520   -2.0580  -11.6330 C.3       6 GLL5        0.0000 
      3 CA         -5.9130   -2.7230  -10.8330 C.3       4 GLP5        0.0000 
      4 CA         -9.4145   -2.4710   -9.6470 C.3       2 GLC5        0.0000 
      5 CA         -8.5770   -2.8840   -7.6610 C.3       4 GLP5        0.0000 
      6 CA         -8.7310   -0.7245  -10.7820 C.3       2 GLC5        0.0000 
      7 CA         -7.2100    0.6090   -9.9310 C.3       4 GLP5        0.0000 
      8 CA        -16.1000   -1.8020   -9.7830 C.3       2 GLC5        0.0000 
      9 CA        -14.5220   -3.1800  -10.1330 C.3       6 GLL5        0.0000 
     10 CA        -17.6780   -0.4240   -9.4330 C.3       4 GLP5        0.0000 
     11 O         -14.7210   -4.5140  -12.7615 O.2       1 ALC1        0.0000 
     12 O         -13.3700   -4.3050  -12.6490 O.2       5 ALL1        0.0000 
     13 O         -16.0720   -4.7230  -12.8740 O.2       3 ALP1        0.0000 
     14 CA        -11.3730   -2.2190  -13.7170 C.3       2 GLC5        0.0000 
     15 CA        -11.1370   -4.2570  -13.3710 C.3       6 GLL5        0.0000 
     16 CA        -11.6090   -0.1810  -14.0630 C.3       4 GLP5        0.0000 
     17 CA        -10.0085   -1.5565  -13.9905 C.3       2 GLC5        0.0000 
     18 CA         -8.4080   -2.9320  -13.9180 C.3       6 GLL5        0.0000 
     19 CA         -7.1605   -2.8275  -12.3755 C.3       2 GLC5        0.0000 
     20 O          -8.7880   -0.7795  -15.4445 O.2       1 ALC1        0.0000 
     21 O          -8.2050   -1.8840  -16.1230 O.2       5 ALL1        0.0000 
     22 O          -9.3710    0.3250  -14.7660 O.2       3 ALP1        0.0000 
     23 CA         -7.5385   -6.1925  -13.6655 C.3       2 GLC5        0.0000 
     24 CA         -7.7370   -4.9760  -15.1360 C.3       6 GLL5        0.0000 
     25 CA         -7.3400   -7.4090  -12.1950 C.3       4 GLP5        0.0000 
     26 CA         -7.4850   -7.1890  -15.0610 C.3       2 GLC5        0.0000 
     27 CA         -7.2330   -9.4020  -14.9860 C.3       4 GLP5        0.0000 
     28 CA        -10.6125   -6.5785  -13.2980 C.3       2 GLC5        0.0000 
     29 CA        -11.5680   -6.4050  -15.0230 C.3       6 GLL5        0.0000 
     30 CA         -9.6570   -6.7520  -11.5730 C.3       4 GLP5        0.0000 
     31 CA        -13.1030   -5.9445  -11.9055 C.3       2 GLC5        0.0000 
     32 CA        -12.4680   -4.9010  -13.4590 C.3       6 GLL5        0.0000 
     33 CA        -13.7380   -6.9880  -10.3520 C.3       4 GLP5        0.0000 
     34 CA        -12.6245   -9.7330  -16.6050 C.3       2 GLC5        0.0000 
     35 CA        -11.8630   -7.7780  -15.9510 C.3       6 GLL5        0.0000 
     36 CA        -13.3860  -11.6880  -17.2590 C.3       4 GLP5        0.0000 
     37 CA        -12.2745   -9.2155  -14.4590 C.3       2 GLC5        0.0000 
     38 CA        -12.6860  -10.6530  -12.9670 C.3       4 GLP5        0.0000 
     39 CA        -10.9995  -10.6695  -18.9555 C.3       2 GLC5        0.0000 
     40 CA         -9.1980   -9.6380  -18.2290 C.3       6 GLL5        0.0000 
     41 CA        -12.8010  -11.7010  -19.6820 C.3       4 GLP5        0.0000 
     42 CA        -11.8045  -10.5590  -17.2800 C.3       2 GLC5        0.0000 
     43 CA        -10.2230   -9.4300  -17.3010 C.3       6 GLL5        0.0000 
     44 CA        -11.2273   -1.4097  -13.0355 C.3       2 GLC5        0.0000 
     45 CA        -11.4390   -3.2190  -12.3830 C.3       6 GLL5        0.0000 
     46 CA        -10.0478   -4.2542  -11.2040 C.3       2 GLC5        0.0000 
     47 CA         -9.2500   -5.8700  -10.4000 C.3       4 GLP5        0.0000 
     48 CA        -12.3925   -1.5083  -12.7542 C.3       2 GLC5        0.0000 
     49 CA        -12.8360   -3.2850  -11.9440 C.3       6 GLL5        0.0000 
     50 CA        -13.9170   -0.9795   -9.7165 C.3       2 GLC5        0.0000 
     51 CA        -13.8150    0.8240   -8.8930 C.3       4 GLP5        0.0000 
     52 CA        -13.1460   -2.8380   -8.8725 C.3       2 GLC5        0.0000 
     53 CA        -13.5160   -2.3860  -10.9470 C.3       6 GLL5        0.0000 
     54 CA        -12.2730   -2.8930   -7.2050 C.3       4 GLP5        0.0000 
     55 CA        -13.2625   -4.7399  -10.0716 C.3       2 GLC5        0.0000 
     56 CA        -12.6760   -6.4720   -9.3540 C.3       4 GLP5        0.0000 
     57 CA         -6.0753   -4.2746  -13.6907 C.3       2 GLC5        0.0000 
     58 CA         -6.8560   -3.8070  -15.5810 C.3       6 GLL5        0.0000 
     59 CA         -4.7030   -4.4810  -12.1570 C.3       4 GLP5        0.0000 
     60 CA        -13.3377   -6.8217  -16.5500 C.3       2 GLC5        0.0000 
     61 CA        -14.9600   -6.5520  -17.6130 C.3       4 GLP5        0.0000 
     62 CA        -10.5911   -5.7354  -12.5980 C.3       2 GLC5        0.0000 
     63 CA        -10.2520   -8.4322  -14.6795 C.3       2 GLC5        0.0000 
     64 CA         -9.2710   -8.9220  -12.8570 C.3       4 GLP5        0.0000 
     65 CA         -8.8230   -9.0853  -16.0815 C.3       2 GLC5        0.0000 
     66 CA        -10.6030   -8.1070  -17.0530 C.3       6 GLL5        0.0000 
     67 CA         -7.6253   -9.6520  -17.2208 C.3       2 GLC5        0.0000 
     68 CA         -6.3630  -10.2500  -15.8770 C.3       4 GLP5        0.0000 
     69 CA         -6.9143  -10.3567  -17.8215 C.3       2 GLC5        0.0000 
     70 CA         -7.7580  -11.0140  -19.4530 C.3       6 GLL5        0.0000 
@<TRIPOS>BOND
@<TRIPOS>SUBSTRUCTURE
     1 ALC1       11 GROUP        1 X    ALC  0     ROOT ALC X 1
     2 GLC5        1 GROUP        1 X    GLC  0     **** GLC X 6
     3 ALP1       13 GROUP        1 Y    ALP  0     ROOT ALP Y 8
     4 GLP5        3 GROUP        1 Y    GLP  0     **** GLP Y 13
     5 ALL1       12 GROUP        1 Z    ALL  0     ROOT ALL Z 15
     6 GLL5        2 GROUP        1 Z    GLL  0     **** GLL Z 20
@<TRIPOS>SET

