#    Name: 4hxw_1A0_1_ligand
#    Modification time : Tue Mar 25 01:57:00 2014

@<TRIPOS>MOLECULE
4hxw_1A0_1_ligand
   49    53     1     0     0
SMALL
NO_CHARGES


@<TRIPOS>ATOM
      1 CL1       -10.2520   -2.0580  -11.6330 Cl        1 1A0301      0.0000 
      2 C4        -11.4390   -3.2190  -12.3830 C.2       1 1A0301      0.0000 
      3 C5        -12.8360   -3.2850  -11.9440 C.2       1 1A0301      0.0000 
      4 C6        -13.5160   -2.3860  -10.9470 C.3       1 1A0301      0.0000 
      5 C7        -14.5220   -3.1800  -10.1330 C.3       1 1A0301      0.0000 
      6 N1        -13.3700   -4.3050  -12.6490 N.pl3     1 1A0301      0.0000 
      7 C3        -11.1370   -4.2570  -13.3710 C.ar      1 1A0301      0.0000 
      8 C8        -10.0280   -4.8160  -14.2030 C.ar      1 1A0301      0.0000 
      9 N13        -8.7430   -4.2900  -14.3300 N.3       1 1A0301      0.0000 
     10 C17        -8.4080   -2.9320  -13.9180 C.3       1 1A0301      0.0000 
     11 C16        -7.4600   -2.5140  -15.0450 C.3       1 1A0301      0.0000 
     12 N18        -8.2050   -1.8840  -16.1230 N.4       1 1A0301      0.0000 
     13 C15        -6.8560   -3.8070  -15.5810 C.3       1 1A0301      0.0000 
     14 C14        -7.7370   -4.9760  -15.1360 C.3       1 1A0301      0.0000 
     15 N9        -10.3350   -5.8590  -14.9960 N.ar      1 1A0301      0.0000 
     16 C10       -11.5680   -6.4050  -15.0230 C.ar      1 1A0301      0.0000 
     17 N11       -12.6020   -5.9440  -14.3050 N.ar      1 1A0301      0.0000 
     18 C2        -12.4680   -4.9010  -13.4590 C.ar      1 1A0301      0.0000 
     19 S19       -11.8630   -7.7780  -15.9510 S.3       1 1A0301      0.0000 
     20 C20       -10.6030   -8.1070  -17.0530 C.ar      1 1A0301      0.0000 
     21 C25        -9.9860   -7.0450  -17.7180 C.ar      1 1A0301      0.0000 
     22 N24        -9.0010   -7.2200  -18.6120 N.ar      1 1A0301      0.0000 
     23 C23        -8.5770   -8.4700  -18.9000 C.ar      1 1A0301      0.0000 
     24 N26        -7.5850   -8.6720  -19.8070 N.ar      1 1A0301      0.0000 
     25 C27        -7.1730   -9.9130  -20.0790 C.ar      1 1A0301      0.0000 
     26 C28        -7.7580  -11.0140  -19.4530 C.ar      1 1A0301      0.0000 
     27 N29        -8.7450  -10.8690  -18.5510 N.ar      1 1A0301      0.0000 
     28 C22        -9.1980   -9.6380  -18.2290 C.ar      1 1A0301      0.0000 
     29 C21       -10.2230   -9.4300  -17.3010 C.ar      1 1A0301      0.0000 
     30 H         -14.0324   -1.5819  -11.4690 H         1 1A0301      0.0000 
     31 H         -12.7750   -1.9529  -10.2769 H         1 1A0301      0.0000 
     32 H         -14.3184   -4.5858  -12.5803 H         1 1A0301      0.0000 
     33 H          -7.8774   -2.9183  -13.0034 H         1 1A0301      0.0000 
     34 H          -9.2537   -2.2974  -13.9309 H         1 1A0301      0.0000 
     35 H          -6.6988   -1.9075  -14.6614 H         1 1A0301      0.0000 
     36 H          -5.8620   -3.9353  -15.1807 H         1 1A0301      0.0000 
     37 H          -6.8251   -3.7723  -16.6592 H         1 1A0301      0.0000 
     38 H          -8.1636   -5.4286  -15.9935 H         1 1A0301      0.0000 
     39 H          -7.1541   -5.6410  -14.5527 H         1 1A0301      0.0000 
     40 H         -10.3257   -6.0717  -17.4915 H         1 1A0301      0.0000 
     41 H          -6.4064  -10.0887  -20.7638 H         1 1A0301      0.0000 
     42 H          -7.4053  -11.9660  -19.7060 H         1 1A0301      0.0000 
     43 H         -10.6688  -10.2000  -16.8310 H         1 1A0301      0.0000 
     44 H         -14.0867   -3.9277   -9.6316 H         1 1A0301      0.0000 
     45 H         -14.9887   -2.6076   -9.4588 H         1 1A0301      0.0000 
     46 H         -15.2289   -3.5873  -10.7112 H         1 1A0301      0.0000 
     47 H          -7.6068   -1.6049  -16.8742 H         1 1A0301      0.0000 
     48 H          -8.8922   -2.4996  -16.5088 H         1 1A0301      0.0000 
     49 H          -8.6869   -1.0648  -15.8121 H         1 1A0301      0.0000 
@<TRIPOS>BOND
     1    2    1 1    
     2    3    2 2    
     3    7    2 1    
     4    4    3 1    
     5    6    3 1    
     6    5    4 1    
     7   30    4 1    
     8   31    4 1    
     9   44    5 1    
    10   45    5 1    
    11   46    5 1    
    12   18    6 1    
    13   32    6 1    
    14    8    7 ar   
    15   18    7 ar   
    16    9    8 1    
    17   15    8 ar   
    18   10    9 1    
    19   14    9 1    
    20   11   10 1    
    21   33   10 1    
    22   34   10 1    
    23   12   11 1    
    24   13   11 1    
    25   35   11 1    
    26   47   12 1    
    27   48   12 1    
    28   49   12 1    
    29   14   13 1    
    30   36   13 1    
    31   37   13 1    
    32   38   14 1    
    33   39   14 1    
    34   16   15 ar   
    35   17   16 ar   
    36   19   16 1    
    37   18   17 ar   
    38   20   19 1    
    39   21   20 ar   
    40   29   20 ar   
    41   22   21 ar   
    42   40   21 1    
    43   23   22 ar   
    44   24   23 ar   
    45   28   23 ar   
    46   25   24 ar   
    47   26   25 ar   
    48   41   25 1    
    49   27   26 ar   
    50   42   26 1    
    51   28   27 ar   
    52   29   28 ar   
    53   43   29 1    
@<TRIPOS>SUBSTRUCTURE
     1 1A0301      1 GROUP   
@<TRIPOS>SET

