#    Name: 1qao_SAM_1_INTS_M
#    Modification time : Mon Mar 24 23:17:40 2014

@<TRIPOS>MOLECULE
1qao_SAM_1_INTS_M
   79     0    12     0     0
SMALL
NO_CHARGES


@<TRIPOS>ATOM
      1 OD1        11.1525   36.5830   24.1450 O.co2     3 ASC3        0.0000 
      2 OD1        12.3440   36.9960   22.8330 O.co2    11 ASL3        0.0000 
      3 OD1         9.9610   36.1700   25.4570 O.co2     7 ASP3        0.0000 
      4 O          13.0350   36.7765   23.9470 O.2       1 ALC1        0.0000 
      5 O          12.3440   36.9960   22.8330 O.2       9 ALL1        0.0000 
      6 O          13.7260   36.5570   25.0610 O.2       5 ALP1        0.0000 
      7 CA         12.7755   38.2805   24.3200 C.3       4 GLC5        0.0000 
      8 CA         13.0720   38.0390   22.1090 C.3      12 GLL5        0.0000 
      9 CA         12.4790   38.5220   26.5310 C.3       8 GLP5        0.0000 
     10 N          12.5360   36.1490   19.6985 N.am      2 SEC2        0.0000 
     11 N          11.9390   37.4350   20.1110 N.am     10 SEL2        0.0000 
     12 N          13.1330   34.8630   19.2860 N.am      6 SEP2        0.0000 
     13 CA         13.4000   34.8560   21.2605 C.3       4 GLC5        0.0000 
     14 CA         14.8710   36.1870   21.6290 C.3      12 GLL5        0.0000 
     15 CA         11.9290   33.5250   20.8920 C.3       8 GLP5        0.0000 
     16 CA         18.5470   36.6990   20.5155 C.3       4 GLC5        0.0000 
     17 CA         16.6290   35.8490   21.2340 C.3      12 GLL5        0.0000 
     18 CA         20.4650   37.5490   19.7970 C.3       8 GLP5        0.0000 
     19 CA         17.1890   36.5455   19.1850 C.3       4 GLC5        0.0000 
     20 CA         17.7490   37.2420   17.1360 C.3       8 GLP5        0.0000 
     21 CA         17.0220   35.2720   18.1285 C.3       4 GLC5        0.0000 
     22 CA         16.5800   34.5570   19.9620 C.3      12 GLL5        0.0000 
     23 CA         17.4640   35.9870   16.2950 C.3       8 GLP5        0.0000 
     24 CA         16.0675   35.8270   25.4435 C.3       4 GLC5        0.0000 
     25 CA         17.1930   36.0120   23.9810 C.3      12 GLL5        0.0000 
     26 CA         14.9420   35.6420   26.9060 C.3       8 GLP5        0.0000 
     27 CA         16.4960   38.8500   24.1880 C.3       4 GLC5        0.0000 
     28 CA         17.9950   37.3110   24.0150 C.3      12 GLL5        0.0000 
     29 CA         14.9970   40.3890   24.3610 C.3       8 GLP5        0.0000 
     30 O          17.0435   38.4635   25.7575 O.2       1 ALC1        0.0000 
     31 O          17.2440   38.4330   24.4610 O.2       9 ALL1        0.0000 
     32 O          16.8430   38.4940   27.0540 O.2       5 ALP1        0.0000 
     33 CA         20.5195   37.7235   23.2690 C.3       4 GLC5        0.0000 
     34 CA         19.2130   36.8890   24.8080 C.3      12 GLL5        0.0000 
     35 CA         21.8260   38.5580   21.7300 C.3       8 GLP5        0.0000 
     36 O          19.3815   38.3645   26.5715 O.2       1 ALC1        0.0000 
     37 O          19.8250   37.9650   25.5050 O.2       9 ALL1        0.0000 
     38 O          18.9380   38.7640   27.6380 O.2       5 ALP1        0.0000 
     39 CA         16.7560   35.8155   26.3885 C.3       4 GLC5        0.0000 
     40 CA         18.5700   35.9890   25.8710 C.3      12 GLL5        0.0000 
     41 CA         20.1425   36.3275   27.4240 C.3       4 GLC5        0.0000 
     42 CA         21.7150   36.6660   28.9770 C.3       8 GLP5        0.0000 
     43 CA         20.8550   34.7030   29.8525 C.3       4 GLC5        0.0000 
     44 CA         20.3060   32.9960   29.2620 C.3      12 GLL5        0.0000 
     45 CA         21.4040   36.4100   30.4430 C.3       8 GLP5        0.0000 
     46 CA         20.5370   33.1830   31.4550 C.3       4 GLC5        0.0000 
     47 CA         20.7680   33.3700   33.6480 C.3       8 GLP5        0.0000 
     48 CA         19.3175   31.4820   29.8785 C.3       4 GLC5        0.0000 
     49 CA         18.3290   29.9680   30.4950 C.3       8 GLP5        0.0000 
     50 O          21.4320   31.5280   31.0290 O.2       1 ALC1        0.0000 
     51 O          21.1920   32.0410   29.6350 O.2       9 ALL1        0.0000 
     52 O          21.6720   31.0150   32.4230 O.2       5 ALP1        0.0000 
     53 N          19.2075   32.6980   31.4525 N.am      2 SEC2        0.0000 
     54 N          19.4080   33.4140   30.2030 N.am     10 SEL2        0.0000 
     55 N          19.0070   31.9820   32.7020 N.am      6 SEP2        0.0000 
     56 CA         17.1760   34.4890   31.6945 C.3       4 GLC5        0.0000 
     57 CA         18.5020   34.3620   29.8840 C.3      12 GLL5        0.0000 
     58 CA         15.8500   34.6160   33.5050 C.3       8 GLP5        0.0000 
     59 CA         17.6975   36.2420   30.2070 C.3       4 GLC5        0.0000 
     60 CA         16.8930   38.1220   30.5300 C.3       8 GLP5        0.0000 
     61 CA         19.9530   35.3860   30.1635 C.3       4 GLC5        0.0000 
     62 CA         17.9165   32.5315   30.6305 C.3       4 GLC5        0.0000 
     63 CA         17.3310   30.7010   31.3770 C.3       8 GLP5        0.0000 
     64 N          18.8430   36.2545   29.6145 N.am      2 SEC2        0.0000 
     65 N          18.4340   34.9360   28.6630 N.am     10 SEL2        0.0000 
     66 N          19.2520   37.5730   30.5660 N.am      6 SEP2        0.0000 
     67 CA         14.8062   39.3275   21.0215 C.3       4 GLC5        0.0000 
     68 CA         14.5550   37.6950   21.8430 C.3      12 GLL5        0.0000 
     69 CA         15.7990   40.7880   20.0670 C.3       8 GLP5        0.0000 
     70 CA         14.4052   39.1280   23.1685 C.3       4 GLC5        0.0000 
     71 CA         18.3110   33.9758   23.3038 C.3       4 GLC5        0.0000 
     72 CA         19.3500   32.3760   23.2520 C.3       8 GLP5        0.0000 
     73 CA         18.7845   39.1870   24.6572 C.3       4 GLC5        0.0000 
     74 CA         18.9650   41.2740   24.9030 C.3       8 GLP5        0.0000 
     75 CA         20.7647   35.3453   28.4195 C.3       4 GLC5        0.0000 
     76 CA         19.3250   34.5180   27.7430 C.3      12 GLL5        0.0000 
     77 CA         20.8085   31.5577   27.5117 C.3       4 GLC5        0.0000 
     78 CA         20.3040   33.5310   27.9810 C.3      12 GLL5        0.0000 
     79 CA         21.3120   29.8520   26.4020 C.3       8 GLP5        0.0000 
@<TRIPOS>BOND
@<TRIPOS>SUBSTRUCTURE
     1 ALC1        4 GROUP        1 X    ALC  0     ROOT ALC X 1
     2 SEC2       10 GROUP        1 X    SEC  0     **** SEC X 2
     3 ASC3        1 GROUP        1 X    ASC  0     **** ASC X 3
     4 GLC5        7 GROUP        1 X    GLC  0     **** GLC X 6
     5 ALP1        6 GROUP        1 Y    ALP  0     ROOT ALP Y 8
     6 SEP2       12 GROUP        1 Y    SEP  0     **** SEP Y 9
     7 ASP3        3 GROUP        1 Y    ASP  0     **** ASP Y 10
     8 GLP5        9 GROUP        1 Y    GLP  0     **** GLP Y 13
     9 ALL1        5 GROUP        1 Z    ALL  0     ROOT ALL Z 15
    10 SEL2       11 GROUP        1 Z    SEL  0     **** SEL Z 16
    11 ASL3        2 GROUP        1 Z    ASL  0     **** ASL Z 17
    12 GLL5        8 GROUP        1 Z    GLL  0     **** GLL Z 20
@<TRIPOS>SET

