#    Name: 1qao_SAM_1_ligand
#    Modification time : Mon Mar 24 23:17:40 2014

@<TRIPOS>MOLECULE
1qao_SAM_1_ligand
   50    52     1     0     0
SMALL
NO_CHARGES


@<TRIPOS>ATOM
      1 N          12.3440   36.9960   22.8330 N.4       1 SAM245      0.0000 
      2 CA         13.0720   38.0390   22.1090 C.3       1 SAM245      0.0000 
      3 C          12.4650   38.3730   20.7490 C.2       1 SAM245      0.0000 
      4 O          11.9390   37.4350   20.1110 O.co2     1 SAM245      0.0000 
      5 OXT        12.5260   39.5660   20.3610 O.co2     1 SAM245      0.0000 
      6 CB         14.5550   37.6950   21.8430 C.3       1 SAM245      0.0000 
      7 CG         14.8710   36.1870   21.6290 C.3       1 SAM245      0.0000 
      8 SD         16.6290   35.8490   21.2340 S.3       1 SAM245      0.0000 
      9 CE         16.5800   34.5570   19.9620 C.3       1 SAM245      0.0000 
     10 C5'        17.3510   35.1390   22.7300 C.3       1 SAM245      0.0000 
     11 C4'        17.1930   36.0120   23.9810 C.3       1 SAM245      0.0000 
     12 O4'        17.5350   35.3120   25.1830 O.3       1 SAM245      0.0000 
     13 C3'        17.9950   37.3110   24.0150 C.3       1 SAM245      0.0000 
     14 O3'        17.2440   38.4330   24.4610 O.3       1 SAM245      0.0000 
     15 C2'        19.2130   36.8890   24.8080 C.3       1 SAM245      0.0000 
     16 O2'        19.8250   37.9650   25.5050 O.3       1 SAM245      0.0000 
     17 C1'        18.5700   35.9890   25.8710 C.3       1 SAM245      0.0000 
     18 N9         19.4470   34.9550   26.4430 N.pl3     1 SAM245      0.0000 
     19 C8         20.4710   34.2450   25.9320 C.2       1 SAM245      0.0000 
     20 N7         21.0230   33.3850   26.7990 N.2       1 SAM245      0.0000 
     21 C5         20.3040   33.5310   27.9810 C.ar      1 SAM245      0.0000 
     22 C6         20.3060   32.9960   29.2620 C.ar      1 SAM245      0.0000 
     23 N6         21.1920   32.0410   29.6350 N.pl3     1 SAM245      0.0000 
     24 N1         19.4080   33.4140   30.2030 N.ar      1 SAM245      0.0000 
     25 C2         18.5020   34.3620   29.8840 C.ar      1 SAM245      0.0000 
     26 N3         18.4340   34.9360   28.6630 N.ar      1 SAM245      0.0000 
     27 C4         19.3250   34.5180   27.7430 C.ar      1 SAM245      0.0000 
     28 H          13.0777   38.9781   22.6869 H         1 SAM245      0.0000 
     29 H          15.1622   38.0608   22.6913 H         1 SAM245      0.0000 
     30 H          14.8942   38.2518   20.9502 H         1 SAM245      0.0000 
     31 H          14.3626   35.7669   20.7833 H         1 SAM245      0.0000 
     32 H          14.7180   35.5962   22.5109 H         1 SAM245      0.0000 
     33 H          18.3811   34.9898   22.4445 H         1 SAM245      0.0000 
     34 H          16.8420   34.1904   22.8079 H         1 SAM245      0.0000 
     35 H          16.1208   36.3079   24.0533 H         1 SAM245      0.0000 
     36 H          18.3495   37.4383   22.9660 H         1 SAM245      0.0000 
     37 H          19.8421   36.3083   24.2295 H         1 SAM245      0.0000 
     38 H          18.1542   36.6110   26.6361 H         1 SAM245      0.0000 
     39 H          20.7895   34.3528   24.9863 H         1 SAM245      0.0000 
     40 H          21.8680   31.7754   28.9476 H         1 SAM245      0.0000 
     41 H          21.0914   31.6864   30.5645 H         1 SAM245      0.0000 
     42 H          17.8091   34.6720   30.6280 H         1 SAM245      0.0000 
     43 H          12.7629   36.7976   23.7190 H         1 SAM245      0.0000 
     44 H          11.3956   37.2594   23.0096 H         1 SAM245      0.0000 
     45 H          12.3193   36.1371   22.3215 H         1 SAM245      0.0000 
     46 H          17.4979   34.2881   19.6702 H         1 SAM245      0.0000 
     47 H          16.1227   33.7303   20.2898 H         1 SAM245      0.0000 
     48 H          16.0893   34.8589   19.1447 H         1 SAM245      0.0000 
     49 H          17.1893   38.3294   25.4541 H         1 SAM245      0.0000 
     50 H          19.6297   37.7922   26.4704 H         1 SAM245      0.0000 
@<TRIPOS>BOND
     1    2    1 1    
     2   43    1 1    
     3   44    1 1    
     4   45    1 1    
     5    3    2 1    
     6    6    2 1    
     7   28    2 1    
     8    4    3 ar   
     9    5    3 ar   
    10    7    6 1    
    11   29    6 1    
    12   30    6 1    
    13    8    7 1    
    14   31    7 1    
    15   32    7 1    
    16    9    8 1    
    17   10    8 1    
    18   46    9 1    
    19   47    9 1    
    20   48    9 1    
    21   11   10 1    
    22   33   10 1    
    23   34   10 1    
    24   12   11 1    
    25   13   11 1    
    26   35   11 1    
    27   17   12 1    
    28   14   13 1    
    29   15   13 1    
    30   36   13 1    
    31   49   14 1    
    32   16   15 1    
    33   17   15 1    
    34   37   15 1    
    35   50   16 1    
    36   18   17 1    
    37   38   17 1    
    38   19   18 1    
    39   27   18 1    
    40   20   19 2    
    41   39   19 1    
    42   21   20 1    
    43   22   21 ar   
    44   27   21 ar   
    45   23   22 1    
    46   24   22 ar   
    47   40   23 1    
    48   41   23 1    
    49   25   24 ar   
    50   26   25 ar   
    51   42   25 1    
    52   27   26 ar   
@<TRIPOS>SUBSTRUCTURE
     1 SAM245      1 GROUP   
@<TRIPOS>SET

