#    Name: 3owp_2SB_1_INTS_M
#    Modification time : Tue Mar 25 05:29:34 2014

@<TRIPOS>MOLECULE
3owp_2SB_1_INTS_M
   71     0    12     0     0
SMALL
NO_CHARGES


@<TRIPOS>ATOM
      1 OD1        23.4605   -8.0530   -0.7355 O.co2     3 ASC3        0.0000 
      2 OD1        23.4490   -8.5860    0.5120 O.co2    11 ASL3        0.0000 
      3 OD1        23.4720   -7.5200   -1.9830 O.co2     7 ASP3        0.0000 
      4 O          23.9020   -6.9330    0.7255 O.2       1 ALC1        0.0000 
      5 O          23.4490   -8.5860    0.5120 O.2       9 ALL1        0.0000 
      6 O          24.3550   -5.2800    0.9390 O.2       5 ALP1        0.0000 
      7 O          23.4605   -8.0530   -0.7355 O.2       1 ALC1        0.0000 
      8 O          23.4720   -7.5200   -1.9830 O.2       5 ALP1        0.0000 
      9 N          25.8820  -10.2465   -1.9035 N.am      2 SEC2        0.0000 
     10 N          25.9560   -9.3740   -0.5100 N.am     10 SEL2        0.0000 
     11 N          25.8080  -11.1190   -3.2970 N.am      6 SEP2        0.0000 
     12 CA         31.9870  -11.7790    6.2030 C.3       4 GLC5        0.0000 
     13 CA         32.3950   -9.9420    5.7230 C.3      12 GLL5        0.0000 
     14 CA         31.5790  -13.6160    6.6830 C.3       8 GLP5        0.0000 
     15 CA         33.8850  -11.0450    6.2115 C.3       4 GLC5        0.0000 
     16 CA         35.3750  -12.1480    6.7000 C.3       8 GLP5        0.0000 
     17 CA         34.3720   -8.9450    5.7435 C.3       4 GLC5        0.0000 
     18 CA         36.3490   -7.9480    5.7640 C.3       8 GLP5        0.0000 
     19 CA         31.6155   -8.1340    5.6915 C.3       4 GLC5        0.0000 
     20 CA         30.8360   -6.3260    5.6600 C.3       8 GLP5        0.0000 
     21 CA         32.2120   -9.6010    7.3165 C.3       4 GLC5        0.0000 
     22 CA         32.0290   -9.2600    8.9100 C.3       8 GLP5        0.0000 
     23 N          35.1155   -9.6195    4.1910 N.am      2 SEC2        0.0000 
     24 N          34.0400   -9.9680    3.2130 N.am     10 SEL2        0.0000 
     25 N          36.1910   -9.2710    5.1690 N.am      6 SEP2        0.0000 
     26 O          35.0185  -10.2585    2.3930 O.2       1 ALC1        0.0000 
     27 O          34.0400   -9.9680    3.2130 O.2       9 ALL1        0.0000 
     28 O          35.9970  -10.5490    1.5730 O.2       5 ALP1        0.0000 
     29 CA         29.4880   -8.1605    1.4805 C.3       4 GLC5        0.0000 
     30 CA         30.0090   -9.9580    2.4070 C.3      12 GLL5        0.0000 
     31 CA         28.9670   -6.3630    0.5540 C.3       8 GLP5        0.0000 
     32 CA         22.0815  -15.4565   -0.4035 C.3       4 GLC5        0.0000 
     33 CA         22.7490  -13.4390   -0.5100 C.3      12 GLL5        0.0000 
     34 CA         21.4140  -17.4740   -0.2970 C.3       8 GLP5        0.0000 
     35 CA         24.7665  -13.9835   -1.2050 C.3       4 GLC5        0.0000 
     36 CA         26.7840  -14.5280   -1.9000 C.3       8 GLP5        0.0000 
     37 CA         23.5230  -15.0670    1.6460 C.3       4 GLC5        0.0000 
     38 CA         23.1990  -13.3530    0.7950 C.3      12 GLL5        0.0000 
     39 CA         23.8470  -16.7810    2.4970 C.3       8 GLP5        0.0000 
     40 CA         33.4375   -9.1650    0.1775 C.3       4 GLC5        0.0000 
     41 CA         32.2460   -9.9800    1.5470 C.3      12 GLL5        0.0000 
     42 CA         34.6290   -8.3500   -1.1920 C.3       8 GLP5        0.0000 
     43 CA         30.4940   -8.2150    0.4450 C.3       4 GLC5        0.0000 
     44 CA         30.8630   -9.9750    1.3050 C.3      12 GLL5        0.0000 
     45 CA         30.1250   -6.4550   -0.4150 C.3       8 GLP5        0.0000 
     46 CA         29.7318  -11.9270    3.0638 C.3       4 GLC5        0.0000 
     47 CA         30.4640   -9.9440    3.6900 C.3      12 GLL5        0.0000 
     48 CA         29.2270  -13.9030    3.0790 C.3       8 GLP5        0.0000 
     49 CA         31.0338   -8.3425    3.2258 C.3       4 GLC5        0.0000 
     50 CA         31.8310   -6.7340    3.4030 C.3       8 GLP5        0.0000 
     51 CA         21.1822  -12.8615    0.3930 C.3       4 GLC5        0.0000 
     52 CA         22.7480  -12.3090   -1.3120 C.3      12 GLL5        0.0000 
     53 CA         19.6160  -12.8490    1.6970 C.3       8 GLP5        0.0000 
     54 CA         24.8310  -11.8673   -1.5717 C.3       4 GLC5        0.0000 
     55 CA         26.5710  -12.0530   -2.4050 C.3       8 GLP5        0.0000 
     56 CA         23.1812  -14.3190   -2.2485 C.3       4 GLC5        0.0000 
     57 CA         23.6140  -15.7640   -3.5860 C.3       8 GLP5        0.0000 
     58 CA         22.5868  -13.3738    2.8330 C.3       4 GLC5        0.0000 
     59 CA         21.7460  -13.9990    4.6210 C.3       8 GLP5        0.0000 
     60 CA         21.5217  -12.7988    1.3710 C.3       4 GLC5        0.0000 
     61 CA         25.2942  -13.1522    1.3870 C.3       4 GLC5        0.0000 
     62 CA         27.1610  -13.5560    1.7290 C.3       8 GLP5        0.0000 
     63 CA         32.1829  -11.6291    3.5476 C.3       4 GLC5        0.0000 
     64 CA         33.0830  -13.3130    2.8450 C.3       8 GLP5        0.0000 
     65 CA         32.0442   -8.3465    3.3930 C.3       4 GLC5        0.0000 
     66 CA         31.8080   -9.9510    3.8980 C.3      12 GLL5        0.0000 
     67 CA         31.1805  -11.1536    0.2177 C.3       4 GLC5        0.0000 
     68 CA         31.0200  -12.3340   -1.2660 C.3       8 GLP5        0.0000 
     69 CA         31.6928   -8.3558    2.4145 C.3       4 GLC5        0.0000 
     70 CA         32.3764  -11.6436    2.3006 C.3       4 GLC5        0.0000 
     71 CA         32.7070   -9.9670    2.8680 C.3      12 GLL5        0.0000 
@<TRIPOS>BOND
@<TRIPOS>SUBSTRUCTURE
     1 ALC1        4 GROUP        1 X    ALC  0     ROOT ALC X 1
     2 SEC2        9 GROUP        1 X    SEC  0     **** SEC X 2
     3 ASC3        1 GROUP        1 X    ASC  0     **** ASC X 3
     4 GLC5       12 GROUP        1 X    GLC  0     **** GLC X 6
     5 ALP1        6 GROUP        1 Y    ALP  0     ROOT ALP Y 8
     6 SEP2       11 GROUP        1 Y    SEP  0     **** SEP Y 9
     7 ASP3        3 GROUP        1 Y    ASP  0     **** ASP Y 10
     8 GLP5       14 GROUP        1 Y    GLP  0     **** GLP Y 13
     9 ALL1        5 GROUP        1 Z    ALL  0     ROOT ALL Z 15
    10 SEL2       10 GROUP        1 Z    SEL  0     **** SEL Z 16
    11 ASL3        2 GROUP        1 Z    ASL  0     **** ASL Z 17
    12 GLL5       13 GROUP        1 Z    GLL  0     **** GLL Z 20
@<TRIPOS>SET

