#    Name: 3owp_2SB_1_ligand
#    Modification time : Tue Mar 25 05:29:34 2014

@<TRIPOS>MOLECULE
3owp_2SB_1_ligand
   36    37     1     0     0
SMALL
NO_CHARGES


@<TRIPOS>ATOM
      1 C1         23.6580  -11.0120    0.4860 C.ar      1 2SB2001     0.0000 
      2 N1         23.4490   -8.5860    0.5120 N.4       1 2SB2001     0.0000 
      3 O1         25.9560   -9.3740   -0.5100 O.2       1 2SB2001     0.0000 
      4 BR1        32.3950   -9.9420    5.7230 Br        1 2SB2001     0.0000 
      5 C2         24.1600   -9.7150    1.0330 C.3       1 2SB2001     0.0000 
      6 N2         26.5450   -9.7990    1.6470 N.am      1 2SB2001     0.0000 
      7 O2         34.0400   -9.9680    3.2130 O.3       1 2SB2001     0.0000 
      8 C3         25.5900   -9.6030    0.6380 C.2       1 2SB2001     0.0000 
      9 N3         27.8470   -9.7290    1.3280 N.2       1 2SB2001     0.0000 
     10 C4         28.5400   -9.9630    2.3690 C.2       1 2SB2001     0.0000 
     11 C5         30.0090   -9.9580    2.4070 C.ar      1 2SB2001     0.0000 
     12 C6         23.2100  -11.0960   -0.8160 C.ar      1 2SB2001     0.0000 
     13 C7         22.7480  -12.3090   -1.3120 C.ar      1 2SB2001     0.0000 
     14 C8         22.7490  -13.4390   -0.5100 C.ar      1 2SB2001     0.0000 
     15 C9         23.1990  -13.3530    0.7950 C.ar      1 2SB2001     0.0000 
     16 C10        23.6560  -12.1440    1.2950 C.ar      1 2SB2001     0.0000 
     17 C11        30.4640   -9.9440    3.6900 C.ar      1 2SB2001     0.0000 
     18 C12        31.8080   -9.9510    3.8980 C.ar      1 2SB2001     0.0000 
     19 C13        32.7070   -9.9670    2.8680 C.ar      1 2SB2001     0.0000 
     20 C14        32.2460   -9.9800    1.5470 C.ar      1 2SB2001     0.0000 
     21 C15        30.8630   -9.9750    1.3050 C.ar      1 2SB2001     0.0000 
     22 H          24.1117   -9.7486    2.1099 H         1 2SB2001     0.0000 
     23 H          26.2254   -9.9909    2.6034 H         1 2SB2001     0.0000 
     24 H          28.0996  -10.1862    3.3173 H         1 2SB2001     0.0000 
     25 H          23.2161  -10.2643   -1.4226 H         1 2SB2001     0.0000 
     26 H          22.4029  -12.3668   -2.2824 H         1 2SB2001     0.0000 
     27 H          22.4164  -14.3371   -0.8845 H         1 2SB2001     0.0000 
     28 H          23.1949  -14.1894    1.3981 H         1 2SB2001     0.0000 
     29 H          23.9946  -12.0809    2.2648 H         1 2SB2001     0.0000 
     30 H          29.8086   -9.9285    4.4802 H         1 2SB2001     0.0000 
     31 H          32.9037   -9.9929    0.7692 H         1 2SB2001     0.0000 
     32 H          30.5028   -9.9835    0.3611 H         1 2SB2001     0.0000 
     33 H          23.8706   -8.2351   -0.3242 H         1 2SB2001     0.0000 
     34 H          22.5014   -8.8146    0.2889 H         1 2SB2001     0.0000 
     35 H          23.4219   -7.8300    1.1661 H         1 2SB2001     0.0000 
     36 H          34.5236  -10.2240    2.3760 H         1 2SB2001     0.0000 
@<TRIPOS>BOND
     1    5    1 1    
     2   12    1 ar   
     3   16    1 ar   
     4    5    2 1    
     5   33    2 1    
     6   34    2 1    
     7   35    2 1    
     8    8    3 2    
     9   18    4 1    
    10    8    5 1    
    11   22    5 1    
    12    8    6 am   
    13    9    6 1    
    14   23    6 1    
    15   19    7 1    
    16   36    7 1    
    17   10    9 2    
    18   11   10 1    
    19   24   10 1    
    20   17   11 ar   
    21   21   11 ar   
    22   13   12 ar   
    23   25   12 1    
    24   14   13 ar   
    25   26   13 1    
    26   15   14 ar   
    27   27   14 1    
    28   16   15 ar   
    29   28   15 1    
    30   29   16 1    
    31   18   17 ar   
    32   30   17 1    
    33   19   18 ar   
    34   20   19 ar   
    35   21   20 ar   
    36   31   20 1    
    37   32   21 1    
@<TRIPOS>SUBSTRUCTURE
     1 2SB2001     1 GROUP   
@<TRIPOS>SET

