#    Name: 3zky_WT4_1_INTS_M
#    Modification time : Tue Mar 25 03:38:11 2014

@<TRIPOS>MOLECULE
3zky_WT4_1_INTS_M
   50     0     9     0     0
SMALL
NO_CHARGES


@<TRIPOS>ATOM
      1 NZ         18.5780   35.9380    3.7770 N.4       2 LYC4        0.0000 
      2 NZ         17.1820   36.4280    4.1250 N.4       8 LYL4        0.0000 
      3 NZ         20.9960   35.6210    4.2160 N.4       5 LYP4        0.0000 
      4 N          18.5780   35.9380    3.7770 N.am      1 SEC2        0.0000 
      5 N          17.1820   36.4280    4.1250 N.am      7 SEL2        0.0000 
      6 N          19.9740   35.4480    3.4290 N.am      4 SEP2        0.0000 
      7 N          16.8275   35.1885    3.5375 N.am      1 SEC2        0.0000 
      8 N          16.4730   33.9490    2.9500 N.am      4 SEP2        0.0000 
      9 CA         11.4990   39.8745    8.6115 C.3       3 GLC5        0.0000 
     10 CA         12.9910   39.3840    7.0610 C.3       9 GLL5        0.0000 
     11 CA         10.0070   40.3650   10.1620 C.3       6 GLP5        0.0000 
     12 CA         14.2865   35.2525    5.7255 C.3       3 GLC5        0.0000 
     13 CA         15.5250   36.9790    5.7490 C.3       9 GLL5        0.0000 
     14 CA         13.0480   33.5260    5.7020 C.3       6 GLP5        0.0000 
     15 CA         16.2700   39.5815    4.8285 C.3       3 GLC5        0.0000 
     16 CA         14.9670   38.4290    5.4630 C.3       9 GLL5        0.0000 
     17 CA         17.5730   40.7340    4.1940 C.3       6 GLP5        0.0000 
     18 NZ         19.3985   36.6615    5.7610 N.4       2 LYC4        0.0000 
     19 NZ         18.0020   37.1890    6.0930 N.4       8 LYL4        0.0000 
     20 N          19.3985   36.6615    5.7610 N.am      1 SEC2        0.0000 
     21 N          18.0020   37.1890    6.0930 N.am      7 SEL2        0.0000 
     22 N          20.7950   36.1340    5.4290 N.am      4 SEP2        0.0000 
     23 CA          9.0370   41.8140    6.0965 C.3       3 GLC5        0.0000 
     24 CA          9.5560   40.3530    5.2450 C.3       9 GLL5        0.0000 
     25 CA          8.5180   43.2750    6.9480 C.3       6 GLP5        0.0000 
     26 CA         11.7860   41.8095    4.1995 C.3       3 GLC5        0.0000 
     27 CA         10.5810   40.4060    3.9850 C.3       9 GLL5        0.0000 
     28 CA         12.9910   43.2130    4.4140 C.3       6 GLP5        0.0000 
     29 CA          3.0595   39.0020    1.3960 C.3       3 GLC5        0.0000 
     30 CA          4.6640   39.2010    1.5730 C.3       9 GLL5        0.0000 
     31 CA          1.4550   38.8030    1.2190 C.3       6 GLP5        0.0000 
     32 CA          7.1920   36.0195    5.4665 C.3       3 GLC5        0.0000 
     33 CA          6.7640   37.3260    4.3350 C.3       9 GLL5        0.0000 
     34 CA          7.6200   34.7130    6.5980 C.3       6 GLP5        0.0000 
     35 N           4.4885   38.1580    7.0060 N.am      1 SEC2        0.0000 
     36 N           5.2850   38.2530    6.0160 N.am      7 SEL2        0.0000 
     37 N           3.6920   38.0630    7.9960 N.am      4 SEP2        0.0000 
     38 N           4.5605   35.3825    4.2660 N.am      1 SEC2        0.0000 
     39 N           4.4490   36.6930    4.6730 N.am      7 SEL2        0.0000 
     40 N           4.6720   34.0720    3.8590 N.am      4 SEP2        0.0000 
     41 CA          9.3277   41.8817    2.4815 C.3       3 GLC5        0.0000 
     42 CA          9.6360   40.0110    2.4930 C.3       9 GLL5        0.0000 
     43 CA          8.5470   43.5550    1.7240 C.3       6 GLP5        0.0000 
     44 CA         10.7818   38.5478    2.6675 C.3       3 GLC5        0.0000 
     45 CA         11.4550   36.8870    2.0960 C.3       6 GLP5        0.0000 
     46 CA          5.2785   40.5795    0.7198 C.3       3 GLC5        0.0000 
     47 CA          6.1960   39.4130    2.5500 C.3       9 GLL5        0.0000 
     48 CA          5.1270   41.8520   -0.6220 C.3       6 GLP5        0.0000 
     49 CA          4.0380   39.7770    3.2583 C.3       3 GLC5        0.0000 
     50 CA          2.6460   40.2470    4.4550 C.3       6 GLP5        0.0000 
@<TRIPOS>BOND
@<TRIPOS>SUBSTRUCTURE
     1 SEC2        4 GROUP        1 X    SEC  0     ROOT SEC X 2
     2 LYC4        1 GROUP        1 X    LYC  0     **** LYC X 4
     3 GLC5        9 GROUP        1 X    GLC  0     **** GLC X 6
     4 SEP2        6 GROUP        1 Y    SEP  0     ROOT SEP Y 9
     5 LYP4        3 GROUP        1 Y    LYP  0     **** LYP Y 11
     6 GLP5       11 GROUP        1 Y    GLP  0     **** GLP Y 13
     7 SEL2        5 GROUP        1 Z    SEL  0     ROOT SEL Z 16
     8 LYL4        2 GROUP        1 Z    LYL  0     **** LYL Z 18
     9 GLL5       10 GROUP        1 Z    GLL  0     **** GLL Z 20
@<TRIPOS>SET

