#    Name: 3zky_WT4_1_ligand
#    Modification time : Tue Mar 25 03:38:12 2014

@<TRIPOS>MOLECULE
3zky_WT4_1_ligand
   48    47     1     0     0
SMALL
NO_CHARGES


@<TRIPOS>ATOM
      1 C7         12.2790   39.5460    5.7570 C.2       1 WT41333     0.0000 
      2 O1         12.5820   40.4490    4.9800 O.2       1 WT41333     0.0000 
      3 O2         17.1820   36.4280    4.1250 O.co2     1 WT41333     0.0000 
      4 C8         12.9910   39.3840    7.0610 C.3       1 WT41333     0.0000 
      5 C12        17.0140   36.8560    5.2650 C.2       1 WT41333     0.0000 
      6 C11        15.5250   36.9790    5.7490 C.3       1 WT41333     0.0000 
      7 C10        14.9670   38.4290    5.4630 C.3       1 WT41333     0.0000 
      8 C9         14.4560   38.8460    6.8980 C.3       1 WT41333     0.0000 
      9 N2         15.2640   36.6040    7.1780 N.4       1 WT41333     0.0000 
     10 O3         18.0020   37.1890    6.0930 O.co2     1 WT41333     0.0000 
     11 N1         11.2870   38.6740    5.5150 N.am      1 WT41333     0.0000 
     12 C4          9.8950   38.9710    5.7820 C.3       1 WT41333     0.0000 
     13 C5          9.5560   40.3530    5.2450 C.3       1 WT41333     0.0000 
     14 C6         10.5810   40.4060    3.9850 C.3       1 WT41333     0.0000 
     15 S1          9.6360   40.0110    2.4930 S.3       1 WT41333     0.0000 
     16 C3          9.0590   37.9030    5.1020 C.2       1 WT41333     0.0000 
     17 O           9.5870   36.8810    4.6610 O.2       1 WT41333     0.0000 
     18 C           4.6640   39.2010    1.5730 C.3       1 WT41333     0.0000 
     19 N           7.7490   38.1740    4.9980 N.am      1 WT41333     0.0000 
     20 S           6.1960   39.4130    2.5500 S.3       1 WT41333     0.0000 
     21 C1          6.7040   37.7030    2.8410 C.3       1 WT41333     0.0000 
     22 C2          6.7640   37.3260    4.3350 C.3       1 WT41333     0.0000 
     23 O4          5.2850   38.2530    6.0160 O.co2     1 WT41333     0.0000 
     24 O5          4.4490   36.6930    4.6730 O.co2     1 WT41333     0.0000 
     25 C13         5.4430   37.4440    5.1040 C.2       1 WT41333     0.0000 
     26 H          12.4510   38.6810    7.7086 H         1 WT41333     0.0000 
     27 H          13.0487   40.3448    7.5889 H         1 WT41333     0.0000 
     28 H          14.9217   36.3091    5.0930 H         1 WT41333     0.0000 
     29 H          14.1583   38.3648    4.8147 H         1 WT41333     0.0000 
     30 H          15.7505   39.0501    5.1825 H         1 WT41333     0.0000 
     31 H          14.5801   37.9652    7.5728 H         1 WT41333     0.0000 
     32 H          15.1565   39.6181    7.2978 H         1 WT41333     0.0000 
     33 H          11.4837   37.7248    5.1154 H         1 WT41333     0.0000 
     34 H           9.6987   38.9442    6.8352 H         1 WT41333     0.0000 
     35 H           9.8399   41.0979    5.9046 H         1 WT41333     0.0000 
     36 H           8.5954   40.3876    4.8622 H         1 WT41333     0.0000 
     37 H          11.2904   39.6508    4.0418 H         1 WT41333     0.0000 
     38 H          10.9258   41.3703    3.8175 H         1 WT41333     0.0000 
     39 H           7.3516   39.0671    5.4173 H         1 WT41333     0.0000 
     40 H           7.6622   37.6562    2.3569 H         1 WT41333     0.0000 
     41 H           5.9675   37.1422    2.2953 H         1 WT41333     0.0000 
     42 H           7.1028   36.2859    4.4058 H         1 WT41333     0.0000 
     43 H          15.5129   35.6535    7.3639 H         1 WT41333     0.0000 
     44 H          15.7864   37.1733    7.8127 H         1 WT41333     0.0000 
     45 H          14.2988   36.7067    7.4186 H         1 WT41333     0.0000 
     46 H           4.8331   38.7086    0.7192 H         1 WT41333     0.0000 
     47 H           3.9708   38.6852    2.0765 H         1 WT41333     0.0000 
     48 H           4.2550   40.0801    1.3283 H         1 WT41333     0.0000 
@<TRIPOS>BOND
     1    2    1 2    
     2    4    1 1    
     3   11    1 am   
     4    5    3 ar   
     5    8    4 1    
     6   26    4 1    
     7   27    4 1    
     8    6    5 1    
     9   10    5 ar   
    10    7    6 1    
    11    9    6 1    
    12   28    6 1    
    13    8    7 1    
    14   29    7 1    
    15   30    7 1    
    16   31    8 1    
    17   32    8 1    
    18   43    9 1    
    19   44    9 1    
    20   45    9 1    
    21   12   11 1    
    22   33   11 1    
    23   13   12 1    
    24   16   12 1    
    25   34   12 1    
    26   14   13 1    
    27   35   13 1    
    28   36   13 1    
    29   15   14 1    
    30   37   14 1    
    31   38   14 1    
    32   17   16 2    
    33   19   16 am   
    34   20   18 1    
    35   46   18 1    
    36   47   18 1    
    37   48   18 1    
    38   22   19 1    
    39   39   19 1    
    40   21   20 1    
    41   22   21 1    
    42   40   21 1    
    43   41   21 1    
    44   25   22 1    
    45   42   22 1    
    46   25   23 ar   
    47   25   24 ar   
@<TRIPOS>SUBSTRUCTURE
     1 WT41333     1 GROUP   
@<TRIPOS>SET

