#    Name: 2I8C_2_CAVITY_N1_6.mol2
#    Modification time : Mon Mar 10 18:37:03 2014

@<TRIPOS>MOLECULE
2I8C_2_CAVITY_N1_6.mol2
   76     0     6     0     0
SMALL
NO_CHARGES


@<TRIPOS>ATOM
      1 NZ         22.2428   15.9779   36.1755 N.2       3 LYS4        0.0000 
      2 NZ         21.7472   14.9246   37.1215 N.2       3 LYS4        0.0000 
      3 CZ         21.2516   13.8713   38.0675 C.ar      4 PHE5        0.0000 
      4 DU         21.5562   16.7876   34.3389 H         6 CUB7        0.0000 
      5 DU         21.0606   15.7343   35.2849 H         6 CUB7        0.0000 
      6 CZ         20.5650   14.6810   36.2310 C.ar      4 PHE5        0.0000 
      7 DU         20.3740   16.5440   33.4484 H         6 CUB7        0.0000 
      8 DU         19.8784   15.4908   34.3944 H         6 CUB7        0.0000 
      9 CZ         19.3827   14.4375   35.3405 C.ar      4 PHE5        0.0000 
     10 CA         19.1917   16.3005   32.5579 C.3       5 GLY6        0.0000 
     11 CA         18.6961   15.2472   33.5039 C.3       5 GLY6        0.0000 
     12 OD1        18.2005   14.1939   34.4500 O.3       2 ASP3        0.0000 
     13 DU         20.6573   14.4509   33.6448 H         6 CUB7        0.0000 
     14 CZ         20.1616   13.3976   34.5908 C.ar      4 PHE5        0.0000 
     15 OD1        19.4750   14.2073   32.7543 O.3       2 ASP3        0.0000 
     16 CA         20.8760   16.1946   40.4574 C.3       5 GLY6        0.0000 
     17 N          20.3804   15.1414   41.4034 N.2       1 ALA2        0.0000 
     18 CA         21.6763   20.1641   35.7827 C.3       5 GLY6        0.0000 
     19 O          21.1807   19.1109   36.7287 O.2       1 ALA2        0.0000 
     20 CA         20.6850   18.0576   37.6748 C.3       5 GLY6        0.0000 
     21 CA         20.1894   17.0043   38.6208 C.3       5 GLY6        0.0000 
     22 DU         19.6938   15.9511   39.5669 H         6 CUB7        0.0000 
     23 N          19.1982   14.8978   40.5129 N.2       1 ALA2        0.0000 
     24 CZ         20.4940   19.9206   34.8922 C.ar      4 PHE5        0.0000 
     25 CZ         19.9984   18.8673   35.8382 C.ar      4 PHE5        0.0000 
     26 CZ         19.5028   17.8140   36.7843 C.ar      4 PHE5        0.0000 
     27 CZ         19.0072   16.7608   37.7303 C.ar      4 PHE5        0.0000 
     28 N          18.5116   15.7075   38.6764 N.2       1 ALA2        0.0000 
     29 N          18.0159   14.6543   39.6224 N.2       1 ALA2        0.0000 
     30 CZ         17.8249   16.5172   36.8398 C.ar      4 PHE5        0.0000 
     31 N          17.3293   15.4640   37.7859 N.2       1 ALA2        0.0000 
     32 CZ         16.1471   15.2204   36.8954 C.ar      4 PHE5        0.0000 
     33 O          23.1418   18.3145   36.8696 O.2       1 ALA2        0.0000 
     34 NZ         21.6549   15.1548   39.7077 N.2       3 LYS4        0.0000 
     35 N          21.1593   14.1015   40.6538 N.2       1 ALA2        0.0000 
     36 O          21.9595   18.0710   35.9791 O.2       1 ALA2        0.0000 
     37 CA         21.4639   17.0177   36.9251 C.3       5 GLY6        0.0000 
     38 CA         20.9683   15.9645   37.8712 C.3       5 GLY6        0.0000 
     39 CZ         20.4727   14.9112   38.8172 C.ar      4 PHE5        0.0000 
     40 CZ         19.9771   13.8579   39.7633 C.ar      4 PHE5        0.0000 
     41 CZ         21.2729   18.8807   34.1425 C.ar      4 PHE5        0.0000 
     42 CZ         20.7773   17.8274   35.0886 C.ar      4 PHE5        0.0000 
     43 CZ         20.2817   16.7742   36.0346 C.ar      4 PHE5        0.0000 
     44 CZ         19.7861   15.7209   36.9807 C.ar      4 PHE5        0.0000 
     45 CZ         19.2905   14.6676   37.9267 C.ar      4 PHE5        0.0000 
     46 CZ         19.5951   17.5839   34.1981 C.ar      4 PHE5        0.0000 
     47 CZ         19.0995   16.5306   35.1441 C.ar      4 PHE5        0.0000 
     48 CZ         18.6038   15.4774   36.0902 C.ar      4 PHE5        0.0000 
     49 CZ         17.9172   16.2871   34.2536 C.ar      4 PHE5        0.0000 
     50 CZ         17.4216   15.2338   35.1996 C.ar      4 PHE5        0.0000 
     51 CZ         16.9260   14.1805   36.1457 C.ar      4 PHE5        0.0000 
     52 OD1        17.8527   20.1239   40.8698 O.3       2 ASP3        0.0000 
     53 N          17.3571   19.0707   41.8159 N.2       1 ALA2        0.0000 
     54 OD1        16.6705   19.8804   39.9793 O.3       2 ASP3        0.0000 
     55 N          16.1749   18.8271   40.9254 N.2       1 ALA2        0.0000 
     56 OD1        15.8916   20.9202   40.7290 O.3       2 ASP3        0.0000 
     57 N          19.8139   19.3276   41.0107 N.2       1 ALA2        0.0000 
     58 DU         19.3182   18.2744   41.9567 H         6 CUB7        0.0000 
     59 O          18.8226   17.2211   42.9028 O.2       1 ALA2        0.0000 
     60 OD1        19.6229   21.1906   38.2281 O.3       2 ASP3        0.0000 
     61 OD1        19.1272   20.1373   39.1741 O.3       2 ASP3        0.0000 
     62 OD1        18.6316   19.0841   40.1202 O.3       2 ASP3        0.0000 
     63 N          18.1360   18.0308   41.0662 N.2       1 ALA2        0.0000 
     64 OD1        17.4494   18.8405   39.2296 O.3       2 ASP3        0.0000 
     65 CA         21.2794   17.4780   42.0975 C.3       5 GLY6        0.0000 
     66 CA         20.5928   18.2877   40.2610 C.3       5 GLY6        0.0000 
     67 CA         20.0971   17.2345   41.2070 C.3       5 GLY6        0.0000 
     68 CA         20.8974   21.2040   36.5324 C.3       5 GLY6        0.0000 
     69 N          20.4018   20.1507   37.4784 N.2       1 ALA2        0.0000 
     70 N          19.9061   19.0975   38.4244 N.2       1 ALA2        0.0000 
     71 CA         19.4105   18.0442   39.3705 C.3       5 GLY6        0.0000 
     72 N          18.9149   16.9909   40.3165 N.2       1 ALA2        0.0000 
     73 N          18.4193   15.9377   41.2626 N.2       1 ALA2        0.0000 
     74 CZ         19.2195   19.9072   36.5879 C.ar      4 PHE5        0.0000 
     75 CZ         18.2283   17.8006   38.4800 C.ar      4 PHE5        0.0000 
     76 N          16.5504   16.5038   38.5355 N.2       1 ALA2        0.0000 
@<TRIPOS>BOND
@<TRIPOS>SUBSTRUCTURE
     1 ALA2       17 GROUP   
     2 ASP3       12 GROUP   
     3 LYS4        1 GROUP   
     4 PHE5        3 GROUP   
     5 GLY6       10 GROUP   
     6 CUB7        4 GROUP   
@<TRIPOS>SET

