#    Name: 2i8c_ADP_2_INTS_M
#    Modification time : Tue Mar 25 17:32:52 2014

@<TRIPOS>MOLECULE
2i8c_ADP_2_INTS_M
   37     0    15     0     0
SMALL
NO_CHARGES


@<TRIPOS>ATOM
      1 Zn         24.6330   12.1335   30.9955 Zn        4 ZIC7        0.0000 
      2 Zn         24.6740   12.7590   30.1530 Zn       14 ZIL7        0.0000 
      3 Zn         24.5920   11.5080   31.8380 Zn        9 ZIP7        0.0000 
      4 NZ         18.5855   12.7280   31.7045 N.4       3 LYC4        0.0000 
      5 NZ         20.0910   12.4680   31.5500 N.4      13 LYL4        0.0000 
      6 NZ         17.0800   12.9880   31.8590 N.4       8 LYP4        0.0000 
      7 N          18.5855   12.7280   31.7045 N.am      2 SEC2        0.0000 
      8 N          20.0910   12.4680   31.5500 N.am     12 SEL2        0.0000 
      9 N          17.0800   12.9880   31.8590 N.am      7 SEP2        0.0000 
     10 N          20.2675   11.3675   32.6050 N.am      2 SEC2        0.0000 
     11 N          20.4440   10.2670   33.6600 N.am      7 SEP2        0.0000 
     12 Zn         23.5550   11.7840   32.0980 Zn        4 ZIC7        0.0000 
     13 Zn         22.5180   12.0600   32.3580 Zn       14 ZIL7        0.0000 
     14 N          21.4810   11.1635   33.0090 N.am      2 SEC2        0.0000 
     15 N          22.5180   12.0600   32.3580 N.am     12 SEL2        0.0000 
     16 CA         20.1835   13.3345   36.2320 C.3       5 GLC5        0.0000 
     17 CA         21.7460   14.6820   35.6190 C.3      15 GLL5        0.0000 
     18 CA         18.6210   11.9870   36.8450 C.3      10 GLP5        0.0000 
     19 N          17.4290   13.8240   32.9635 N.am      2 SEC2        0.0000 
     20 N          17.7780   14.6600   34.0680 N.am     12 SEL2        0.0000 
     21 CA         17.2310   14.6195   33.1510 C.3       5 GLC5        0.0000 
     22 CA         17.3800   15.0090   35.2910 C.3      15 GLL5        0.0000 
     23 CA         17.0820   14.2300   31.0110 C.3      10 GLP5        0.0000 
     24 CA         14.4780   15.7835   36.7375 C.3       5 GLC5        0.0000 
     25 CA         16.1170   14.9210   36.0510 C.3      15 GLL5        0.0000 
     26 CA         12.8390   16.6460   37.4240 C.3      10 GLP5        0.0000 
     27 CA         15.6615   13.8515   37.9530 C.3       5 GLC5        0.0000 
     28 CA         15.2060   12.7820   39.8550 C.3      10 GLP5        0.0000 
     29 O          13.5550   14.3005   35.8745 O.2       1 ALC1        0.0000 
     30 O          15.0190   14.4150   35.4970 O.2      11 ALL1        0.0000 
     31 O          12.0910   14.1860   36.2520 O.2       6 ALP1        0.0000 
     32 N          14.9115   15.3685   38.2985 N.am      2 SEC2        0.0000 
     33 N          16.0780   15.3720   37.3180 N.am     12 SEL2        0.0000 
     34 N          13.7450   15.3650   39.2790 N.am      7 SEP2        0.0000 
     35 CA         15.0145   16.2695   37.6540 C.3       5 GLC5        0.0000 
     36 CA         17.1900   15.8930   37.8840 C.3      15 GLL5        0.0000 
     37 CA         16.1980   14.3375   38.8695 C.3       5 GLC5        0.0000 
@<TRIPOS>BOND
@<TRIPOS>SUBSTRUCTURE
     1 ALC1       29 GROUP        1 X    ALC  0     ROOT ALC X 1
     2 SEC2        7 GROUP        1 X    SEC  0     **** SEC X 2
     3 LYC4        4 GROUP        1 X    LYC  0     **** LYC X 4
     4 ZIC7        1 GROUP        1 X    ZIC  0     **** ZIC X 5
     5 GLC5       16 GROUP        1 X    GLC  0     **** GLC X 6
     6 ALP1       31 GROUP        1 Y    ALP  0     ROOT ALP Y 8
     7 SEP2        9 GROUP        1 Y    SEP  0     **** SEP Y 9
     8 LYP4        6 GROUP        1 Y    LYP  0     **** LYP Y 11
     9 ZIP7        3 GROUP        1 Y    ZIP  0     **** ZIP Y 12
    10 GLP5       18 GROUP        1 Y    GLP  0     **** GLP Y 13
    11 ALL1       30 GROUP        1 Z    ALL  0     ROOT ALL Z 15
    12 SEL2        8 GROUP        1 Z    SEL  0     **** SEL Z 16
    13 LYL4        5 GROUP        1 Z    LYL  0     **** LYL Z 18
    14 ZIL7        2 GROUP        1 Z    ZIL  0     **** ZIL Z 19
    15 GLL5       17 GROUP        1 Z    GLL  0     **** GLL Z 20
@<TRIPOS>SET

