#    Name: 2i8c_ADP_2_ligand
#    Modification time : Tue Mar 25 17:32:52 2014

@<TRIPOS>MOLECULE
2i8c_ADP_2_ligand
   39    41     1     0     0
SMALL
NO_CHARGES


@<TRIPOS>ATOM
      1 PB         23.5010   13.0030   29.2090 P.3       1 ADP400      0.0000 
      2 O1B        23.5210   12.1810   27.9390 O.co2     1 ADP400      0.0000 
      3 O2B        24.6740   12.7590   30.1530 O.co2     1 ADP400      0.0000 
      4 O3B        23.3220   14.4750   28.9380 O.co2     1 ADP400      0.0000 
      5 PA         21.5860   12.7840   31.4160 P.3       1 ADP400      0.0000 
      6 O1A        20.0910   12.4680   31.5500 O.co2     1 ADP400      0.0000 
      7 O2A        22.5180   12.0600   32.3580 O.co2     1 ADP400      0.0000 
      8 O3A        22.1050   12.4860   29.9070 O.3       1 ADP400      0.0000 
      9 O5'        21.8190   14.4090   31.5620 O.3       1 ADP400      0.0000 
     10 C5'        22.9470   15.1180   32.1520 C.3       1 ADP400      0.0000 
     11 C4'        22.7810   15.6170   33.6190 C.3       1 ADP400      0.0000 
     12 O4'        21.5720   16.3620   33.9510 O.3       1 ADP400      0.0000 
     13 C3'        22.8120   14.4190   34.5640 C.3       1 ADP400      0.0000 
     14 O3'        24.1490   14.2020   35.0630 O.3       1 ADP400      0.0000 
     15 C2'        21.7460   14.6820   35.6190 C.3       1 ADP400      0.0000 
     16 O2'        22.4120   14.7650   36.8560 O.3       1 ADP400      0.0000 
     17 C1'        21.0030   15.9640   35.2190 C.3       1 ADP400      0.0000 
     18 N9         19.5820   15.5560   35.0750 N.pl3     1 ADP400      0.0000 
     19 C8         19.0970   14.9860   33.9440 C.2       1 ADP400      0.0000 
     20 N7         17.7780   14.6600   34.0680 N.2       1 ADP400      0.0000 
     21 C5         17.3800   15.0090   35.2910 C.ar      1 ADP400      0.0000 
     22 C6         16.1170   14.9210   36.0510 C.ar      1 ADP400      0.0000 
     23 N6         15.0190   14.4150   35.4970 N.pl3     1 ADP400      0.0000 
     24 N1         16.0780   15.3720   37.3180 N.ar      1 ADP400      0.0000 
     25 C2         17.1900   15.8930   37.8840 C.ar      1 ADP400      0.0000 
     26 N3         18.3820   16.0080   37.2470 N.ar      1 ADP400      0.0000 
     27 C4         18.5640   15.6000   35.9590 C.ar      1 ADP400      0.0000 
     28 H          23.2154   16.0153   31.5355 H         1 ADP400      0.0000 
     29 H          23.8687   14.4798   32.1317 H         1 ADP400      0.0000 
     30 H          23.6699   16.2150   33.8702 H         1 ADP400      0.0000 
     31 H          22.4722   13.5591   33.9672 H         1 ADP400      0.0000 
     32 H          21.0529   13.8586   35.5782 H         1 ADP400      0.0000 
     33 H          21.1301   16.6695   35.9712 H         1 ADP400      0.0000 
     34 H          19.6273   14.8255   33.1320 H         1 ADP400      0.0000 
     35 H          15.1091   14.0959   34.5536 H         1 ADP400      0.0000 
     36 H          14.2023   14.3993   36.0738 H         1 ADP400      0.0000 
     37 H          17.1278   16.2351   38.8935 H         1 ADP400      0.0000 
     38 H          24.3927   13.2813   34.7580 H         1 ADP400      0.0000 
     39 H          23.3544   14.4930   36.6612 H         1 ADP400      0.0000 
@<TRIPOS>BOND
     1    2    1 ar   
     2    3    1 ar   
     3    4    1 ar   
     4    8    1 1    
     5    6    5 ar   
     6    7    5 ar   
     7    8    5 1    
     8    9    5 1    
     9   10    9 1    
    10   11   10 1    
    11   28   10 1    
    12   29   10 1    
    13   12   11 1    
    14   13   11 1    
    15   30   11 1    
    16   17   12 1    
    17   14   13 1    
    18   15   13 1    
    19   31   13 1    
    20   38   14 1    
    21   16   15 1    
    22   17   15 1    
    23   32   15 1    
    24   39   16 1    
    25   18   17 1    
    26   33   17 1    
    27   19   18 1    
    28   27   18 1    
    29   20   19 2    
    30   34   19 1    
    31   21   20 1    
    32   22   21 ar   
    33   27   21 ar   
    34   23   22 1    
    35   24   22 ar   
    36   35   23 1    
    37   36   23 1    
    38   25   24 ar   
    39   26   25 ar   
    40   37   25 1    
    41   27   26 ar   
@<TRIPOS>SUBSTRUCTURE
     1 ADP400      1 GROUP   
@<TRIPOS>SET

