#    Name: 1nyx_DRF_1_INTS_M
#    Modification time : Mon Mar 24 19:12:35 2014

@<TRIPOS>MOLECULE
1nyx_DRF_1_INTS_M
   82     0     6     0     0
SMALL
NO_CHARGES


@<TRIPOS>ATOM
      1 N          17.7515   62.1435   21.9350 N.am      1 SEC2        0.0000 
      2 N          18.1290   63.1530   21.2310 N.am      5 SEL2        0.0000 
      3 N          17.3740   61.1340   22.6390 N.am      3 SEP2        0.0000 
      4 N          20.0465   61.7575   21.9390 N.am      1 SEC2        0.0000 
      5 N          19.9750   62.7220   20.8990 N.am      5 SEL2        0.0000 
      6 N          20.1180   60.7930   22.9790 N.am      3 SEP2        0.0000 
      7 N          21.1620   62.8220   18.9590 N.am      1 SEC2        0.0000 
      8 N          20.0370   63.7800   18.3210 N.am      5 SEL2        0.0000 
      9 N          22.2870   61.8640   19.5970 N.am      3 SEP2        0.0000 
     10 CA         22.5325   66.2465   17.0585 C.3       2 GLC5        0.0000 
     11 CA         21.1320   65.5140   17.1070 C.3       6 GLL5        0.0000 
     12 CA         23.9330   66.9790   17.0100 C.3       4 GLP5        0.0000 
     13 CA         17.8880   61.0430   20.0690 C.3       2 GLC5        0.0000 
     14 CA         18.2960   62.1510   18.1620 C.3       6 GLL5        0.0000 
     15 CA         17.4800   59.9350   21.9760 C.3       4 GLP5        0.0000 
     16 CA         18.4975   59.9235   17.9585 C.3       2 GLC5        0.0000 
     17 CA         18.6990   57.6960   17.7550 C.3       4 GLP5        0.0000 
     18 CA         18.0470   59.2890   13.8555 C.3       2 GLC5        0.0000 
     19 CA         18.4500   61.2540   14.5860 C.3       6 GLL5        0.0000 
     20 CA         17.6440   57.3240   13.1250 C.3       4 GLP5        0.0000 
     21 CA         20.0295   60.7725   13.4870 C.3       2 GLC5        0.0000 
     22 CA         21.6090   60.2910   12.3880 C.3       4 GLP5        0.0000 
     23 CA         14.4700   63.0710   12.8550 C.3       2 GLC5        0.0000 
     24 CA         16.2430   62.0960   12.3240 C.3       6 GLL5        0.0000 
     25 CA         12.6970   64.0460   13.3860 C.3       4 GLP5        0.0000 
     26 CA         14.5790   64.7125    7.9170 C.3       2 GLC5        0.0000 
     27 CA         14.4060   65.1380    9.8510 C.3       6 GLL5        0.0000 
     28 CA         14.7520   64.2870    5.9830 C.3       4 GLP5        0.0000 
     29 CA         15.7405   64.8520    7.8135 C.3       2 GLC5        0.0000 
     30 CA         16.7290   65.4170    9.6440 C.3       6 GLL5        0.0000 
     31 CA         21.1095   63.5790    8.0565 C.3       2 GLC5        0.0000 
     32 CA         19.2720   64.2820    9.1050 C.3       6 GLL5        0.0000 
     33 CA         22.9470   62.8760    7.0080 C.3       4 GLP5        0.0000 
     34 CA         17.6380   67.8110   10.6735 C.3       2 GLC5        0.0000 
     35 CA         17.8020   66.2370    9.2380 C.3       6 GLL5        0.0000 
     36 CA         17.4740   69.3850   12.1090 C.3       4 GLP5        0.0000 
     37 CA         16.6795   63.2950   18.4823 C.3       2 GLC5        0.0000 
     38 CA         14.8460   63.8960   18.4000 C.3       4 GLP5        0.0000 
     39 CA         19.8015   65.1743   15.5960 C.3       2 GLC5        0.0000 
     40 CA         19.8480   65.0350   17.7230 C.3       6 GLL5        0.0000 
     41 CA         19.1130   65.0740   13.7770 C.3       4 GLP5        0.0000 
     42 CA         19.0635   66.4497   17.2080 C.3       2 GLC5        0.0000 
     43 CA         17.6370   67.6250   17.0010 C.3       4 GLP5        0.0000 
     44 CA         18.6947   62.6110   14.6525 C.3       2 GLC5        0.0000 
     45 CA         17.8290   61.8270   16.8800 C.3       6 GLL5        0.0000 
     46 CA         19.0630   63.5250   12.9110 C.3       4 GLP5        0.0000 
     47 CA         16.0405   59.7933   13.5025 C.3       2 GLC5        0.0000 
     48 CA         17.0820   61.2000   14.2370 C.3       6 GLL5        0.0000 
     49 CA         15.4950   58.2580   12.2760 C.3       4 GLP5        0.0000 
     50 CA         17.6152   62.7655   12.2405 C.3       2 GLC5        0.0000 
     51 CA         15.8312   60.1320   11.9230 C.3       2 GLC5        0.0000 
     52 CA         13.3552   63.6673   11.6737 C.3       2 GLC5        0.0000 
     53 CA         13.4400   62.8660    9.9320 C.3       6 GLL5        0.0000 
     54 CA         13.5805   65.4015   11.6672 C.3       2 GLC5        0.0000 
     55 CA         13.4010   65.3960   13.5790 C.3       4 GLP5        0.0000 
     56 CA         17.5362   65.8675   11.5450 C.3       2 GLC5        0.0000 
     57 CA         17.8070   65.9080   13.6490 C.3       4 GLP5        0.0000 
     58 CA         18.3160   63.6232   11.2792 C.3       2 GLC5        0.0000 
     59 CA         16.9260   63.9950    9.7850 C.3       6 GLL5        0.0000 
     60 CA         16.7480   63.5213    7.7447 C.3       2 GLC5        0.0000 
     61 CA         18.2120   63.4480    9.5100 C.3       6 GLL5        0.0000 
     62 CA         15.9270   63.3210    5.8420 C.3       4 GLP5        0.0000 
     63 CA         20.6670   66.0980    8.8637 C.3       2 GLC5        0.0000 
     64 CA         22.1640   67.2180    8.6900 C.3       4 GLP5        0.0000 
     65 CA         19.1165   64.2515   10.9742 C.3       2 GLC5        0.0000 
     66 CA         19.0680   65.6740    8.9700 C.3       6 GLL5        0.0000 
     67 CA         19.9735   64.8995    7.2707 C.3       2 GLC5        0.0000 
     68 CA         20.7770   64.8210    5.5040 C.3       4 GLP5        0.0000 
     69 CA         11.6550   65.7255    8.0332 C.3       2 GLC5        0.0000 
     70 CA         11.9920   64.8180    9.6070 C.3       6 GLL5        0.0000 
     71 CA         10.7570   66.2040    6.4330 C.3       4 GLP5        0.0000 
     72 CA         11.6313   64.1773   11.4385 C.3       2 GLC5        0.0000 
     73 CA         11.1890   64.2370   13.2030 C.3       4 GLP5        0.0000 
     74 CA         17.9955   62.4335   13.8636 C.3       2 GLC5        0.0000 
     75 CA         15.7327   62.7616   17.1819 C.3       2 GLC5        0.0000 
     76 CA         16.0900   61.4570   15.2210 C.3       6 GLL5        0.0000 
     77 CA         15.6178   60.2286   16.7629 C.3       2 GLC5        0.0000 
     78 CA         16.4690   61.7680   16.5330 C.3       6 GLL5        0.0000 
     79 CA         14.6160   58.8300   17.5620 C.3       4 GLP5        0.0000 
     80 CA         13.1238   63.8964    7.9292 C.3       2 GLC5        0.0000 
     81 CA         12.1550   63.4170    9.7410 C.3       6 GLL5        0.0000 
     82 CA         13.4290   63.4930    6.1160 C.3       4 GLP5        0.0000 
@<TRIPOS>BOND
@<TRIPOS>SUBSTRUCTURE
     1 SEC2        1 GROUP        1 X    SEC  0     ROOT SEC X 2
     2 GLC5       10 GROUP        1 X    GLC  0     **** GLC X 6
     3 SEP2        3 GROUP        1 Y    SEP  0     ROOT SEP Y 9
     4 GLP5       12 GROUP        1 Y    GLP  0     **** GLP Y 13
     5 SEL2        2 GROUP        1 Z    SEL  0     ROOT SEL Z 16
     6 GLL5       11 GROUP        1 Z    GLL  0     **** GLL Z 20
@<TRIPOS>SET

