#    Name: 1nyx_DRF_1_ligand
#    Modification time : Mon Mar 24 19:12:35 2014

@<TRIPOS>MOLECULE
1nyx_DRF_1_ligand
   55    58     1     0     0
SMALL
NO_CHARGES


@<TRIPOS>ATOM
      1 O45        18.1290   63.1530   21.2310 O.co2     1 DRF101      0.0000 
      2 C44        18.9010   63.0530   20.2510 C.2       1 DRF101      0.0000 
      3 O55        19.9750   62.7220   20.8990 O.co2     1 DRF101      0.0000 
      4 C41        18.7300   63.2370   18.9670 C.3       1 DRF101      0.0000 
      5 O46        20.0370   63.7800   18.3210 O.3       1 DRF101      0.0000 
      6 C48        19.8480   65.0350   17.7230 C.3       1 DRF101      0.0000 
      7 C49        21.1320   65.5140   17.1070 C.3       1 DRF101      0.0000 
      8 C40        18.2960   62.1510   18.1620 C.3       1 DRF101      0.0000 
      9 C33        17.8290   61.8270   16.8800 C.ar      1 DRF101      0.0000 
     10 C34        18.8240   61.5670   15.9080 C.ar      1 DRF101      0.0000 
     11 C35        18.4500   61.2540   14.5860 C.ar      1 DRF101      0.0000 
     12 C30        17.0820   61.2000   14.2370 C.ar      1 DRF101      0.0000 
     13 O27        16.7120   60.9010   12.9320 O.3       1 DRF101      0.0000 
     14 C24        16.2430   62.0960   12.3240 C.3       1 DRF101      0.0000 
     15 C23        16.0920   61.9160   10.8160 C.3       1 DRF101      0.0000 
     16 N22        15.8650   63.2260   10.1840 N.pl3     1 DRF101      0.0000 
     17 C11        14.5870   63.7110    9.9910 C.ar      1 DRF101      0.0000 
     18 C16        14.4060   65.1380    9.8510 C.ar      1 DRF101      0.0000 
     19 O21        15.4990   65.9450    9.9100 O.3       1 DRF101      0.0000 
     20 C4         16.7290   65.4170    9.6440 C.ar      1 DRF101      0.0000 
     21 C3         16.9260   63.9950    9.7850 C.ar      1 DRF101      0.0000 
     22 C2         18.2120   63.4480    9.5100 C.ar      1 DRF101      0.0000 
     23 C1         19.2720   64.2820    9.1050 C.ar      1 DRF101      0.0000 
     24 C6         19.0680   65.6740    8.9700 C.ar      1 DRF101      0.0000 
     25 C5         17.8020   66.2370    9.2380 C.ar      1 DRF101      0.0000 
     26 C15        13.1140   65.6760    9.6600 C.ar      1 DRF101      0.0000 
     27 C14        11.9920   64.8180    9.6070 C.ar      1 DRF101      0.0000 
     28 C13        12.1550   63.4170    9.7410 C.ar      1 DRF101      0.0000 
     29 C12        13.4400   62.8660    9.9320 C.ar      1 DRF101      0.0000 
     30 C31        16.0900   61.4570   15.2210 C.ar      1 DRF101      0.0000 
     31 C32        16.4690   61.7680   16.5330 C.ar      1 DRF101      0.0000 
     32 H          18.0065   64.1031   18.7677 H         1 DRF101      0.0000 
     33 H          19.5181   65.7939   18.4531 H         1 DRF101      0.0000 
     34 H          19.0823   65.0020   16.9290 H         1 DRF101      0.0000 
     35 H          17.5038   61.5241   18.9331 H         1 DRF101      0.0000 
     36 H          19.1705   61.2583   18.3932 H         1 DRF101      0.0000 
     37 H          19.8103   61.6068   16.1667 H         1 DRF101      0.0000 
     38 H          19.1638   61.0666   13.8816 H         1 DRF101      0.0000 
     39 H          16.9337   62.9383   12.4906 H         1 DRF101      0.0000 
     40 H          15.2615   62.3999   12.7223 H         1 DRF101      0.0000 
     41 H          15.2518   61.2472   10.6294 H         1 DRF101      0.0000 
     42 H          17.0004   61.4539   10.4296 H         1 DRF101      0.0000 
     43 H          18.3597   62.4402    9.6096 H         1 DRF101      0.0000 
     44 H          20.1920   63.8818    8.9077 H         1 DRF101      0.0000 
     45 H          19.8420   66.2753    8.6767 H         1 DRF101      0.0000 
     46 H          17.6623   67.2464    9.1370 H         1 DRF101      0.0000 
     47 H          12.9902   66.6843    9.5602 H         1 DRF101      0.0000 
     48 H          11.0569   65.2091    9.4713 H         1 DRF101      0.0000 
     49 H          11.3372   62.8052    9.6988 H         1 DRF101      0.0000 
     50 H          13.5561   61.8551   10.0294 H         1 DRF101      0.0000 
     51 H          15.1025   61.4128   14.9627 H         1 DRF101      0.0000 
     52 H          15.7532   61.9534   17.2435 H         1 DRF101      0.0000 
     53 H          21.8603   65.6010   17.7868 H         1 DRF101      0.0000 
     54 H          21.4625   64.8865   16.4020 H         1 DRF101      0.0000 
     55 H          21.0254   66.4098   16.6754 H         1 DRF101      0.0000 
@<TRIPOS>BOND
     1    2    1 ar   
     2    3    2 ar   
     3    4    2 1    
     4    5    4 1    
     5    8    4 1    
     6   32    4 1    
     7    6    5 1    
     8    7    6 1    
     9   33    6 1    
    10   34    6 1    
    11   53    7 1    
    12   54    7 1    
    13   55    7 1    
    14    9    8 1    
    15   35    8 1    
    16   36    8 1    
    17   10    9 ar   
    18   31    9 ar   
    19   11   10 ar   
    20   37   10 1    
    21   12   11 ar   
    22   38   11 1    
    23   13   12 1    
    24   30   12 ar   
    25   14   13 1    
    26   15   14 1    
    27   39   14 1    
    28   40   14 1    
    29   16   15 1    
    30   41   15 1    
    31   42   15 1    
    32   17   16 1    
    33   21   16 1    
    34   18   17 ar   
    35   29   17 ar   
    36   19   18 1    
    37   26   18 ar   
    38   20   19 1    
    39   21   20 ar   
    40   25   20 ar   
    41   22   21 ar   
    42   23   22 ar   
    43   43   22 1    
    44   24   23 ar   
    45   44   23 1    
    46   25   24 ar   
    47   45   24 1    
    48   46   25 1    
    49   27   26 ar   
    50   47   26 1    
    51   28   27 ar   
    52   48   27 1    
    53   29   28 ar   
    54   49   28 1    
    55   50   29 1    
    56   31   30 ar   
    57   51   30 1    
    58   52   31 1    
@<TRIPOS>SUBSTRUCTURE
     1 DRF101      1 GROUP   
@<TRIPOS>SET

