#    Name: 3zme_QC5_1_INTS_M
#    Modification time : Tue Mar 25 03:41:25 2014

@<TRIPOS>MOLECULE
3zme_QC5_1_INTS_M
   55     0     3     0     0
SMALL
NO_CHARGES


@<TRIPOS>ATOM
      1 CA         89.0925   95.3245  -43.5790 C.3       1 GLC5        0.0000 
      2 CA         90.3740   96.3960  -44.0930 C.3       3 GLL5        0.0000 
      3 CA         87.8110   94.2530  -43.0650 C.3       2 GLP5        0.0000 
      4 CA         93.7120   97.5400  -43.7035 C.3       1 GLC5        0.0000 
      5 CA         92.6840   99.3180  -44.1370 C.3       3 GLL5        0.0000 
      6 CA         94.7400   95.7620  -43.2700 C.3       2 GLP5        0.0000 
      7 CA         94.3890   99.0150  -45.3995 C.3       1 GLC5        0.0000 
      8 CA         96.0940   98.7120  -46.6620 C.3       2 GLP5        0.0000 
      9 CA         93.9325   90.9920  -40.0810 C.3       1 GLC5        0.0000 
     10 CA         93.9410   90.9280  -42.0850 C.3       3 GLL5        0.0000 
     11 CA         93.9240   91.0560  -38.0770 C.3       2 GLP5        0.0000 
     12 CA         95.8055   89.9375  -42.6410 C.3       1 GLC5        0.0000 
     13 CA         97.6700   88.9470  -43.1970 C.3       2 GLP5        0.0000 
     14 CA         93.1605   89.3770  -40.3875 C.3       1 GLC5        0.0000 
     15 CA         92.8140   90.0910  -42.1410 C.3       3 GLL5        0.0000 
     16 CA         93.5070   88.6630  -38.6340 C.3       2 GLP5        0.0000 
     17 CA         94.1225   88.4140  -41.6145 C.3       1 GLC5        0.0000 
     18 CA         95.4310   86.7370  -41.0880 C.3       2 GLP5        0.0000 
     19 CA         92.3125   89.2970  -43.9150 C.3       1 GLC5        0.0000 
     20 CA         91.8110   90.7260  -42.8650 C.3       3 GLL5        0.0000 
     21 CA         92.8140   87.8680  -44.9650 C.3       2 GLP5        0.0000 
     22 CA         94.3315   92.6315  -44.7090 C.3       1 GLC5        0.0000 
     23 CA         93.6400   92.1010  -42.7670 C.3       3 GLL5        0.0000 
     24 CA         95.0230   93.1620  -46.6510 C.3       2 GLP5        0.0000 
     25 CA         89.0995   89.5725  -46.4355 C.3       1 GLC5        0.0000 
     26 CA         89.8940   90.7770  -48.1600 C.3       3 GLL5        0.0000 
     27 CA         88.3050   88.3680  -44.7110 C.3       2 GLP5        0.0000 
     28 CA         89.1020   91.9430  -45.5805 C.3       1 GLC5        0.0000 
     29 CA         91.0450   91.8840  -46.3480 C.3       3 GLL5        0.0000 
     30 CA         87.1590   92.0020  -44.8130 C.3       2 GLP5        0.0000 
     31 CA         91.7805   88.4525  -50.6895 C.3       1 GLC5        0.0000 
     32 CA         90.9280   88.9650  -49.2660 C.3       3 GLL5        0.0000 
     33 CA         92.6330   87.9400  -52.1130 C.3       2 GLP5        0.0000 
     34 CA         91.4365   94.0570  -47.0340 C.3       1 GLC5        0.0000 
     35 CA         91.0740   93.0000  -45.2980 C.3       3 GLL5        0.0000 
     36 CA         92.0670   94.4830  -48.6680 C.3       2 GLP5        0.0000 
     37 CA         93.0412   92.8020  -46.2370 C.3       1 GLC5        0.0000 
     38 CA         88.9825   92.8165  -45.1065 C.3       1 GLC5        0.0000 
     39 CA         89.3085   93.9420  -44.2325 C.3       1 GLC5        0.0000 
     40 CA         92.8740   96.2770  -43.6250 C.3       1 GLC5        0.0000 
     41 CA         95.2392   92.9327  -42.4720 C.3       1 GLC5        0.0000 
     42 CA         96.6880   94.3510  -42.5180 C.3       2 GLP5        0.0000 
     43 CA         93.8772   89.0863  -43.1730 C.3       1 GLC5        0.0000 
     44 CA         94.3770   87.6630  -44.2330 C.3       2 GLP5        0.0000 
     45 CA         90.9093   90.8527  -41.0710 C.3       1 GLC5        0.0000 
     46 CA         89.5060   91.2970  -39.6390 C.3       2 GLP5        0.0000 
     47 CA         90.9900   92.8785  -48.1680 C.3       1 GLC5        0.0000 
     48 CA         88.1630   91.3705  -47.3540 C.3       1 GLC5        0.0000 
     49 CA         89.9320   91.7710  -47.1760 C.3       3 GLL5        0.0000 
     50 CA         86.4130   91.4670  -47.0400 C.3       2 GLP5        0.0000 
     51 CA         91.8287   92.9673  -47.5515 C.3       1 GLC5        0.0000 
     52 CA         93.8767   91.1527  -46.8092 C.3       1 GLC5        0.0000 
     53 CA         92.1360   91.0190  -46.5220 C.3       3 GLL5        0.0000 
     54 CA         95.6370   91.7820  -46.6030 C.3       2 GLP5        0.0000 
     55 CA         92.3254   89.1808  -46.0917 C.3       1 GLC5        0.0000 
@<TRIPOS>BOND
@<TRIPOS>SUBSTRUCTURE
     1 GLC5        1 GROUP        1 X    GLC  0     ROOT GLC X 6
     2 GLP5        3 GROUP        1 Y    GLP  0     ROOT GLP Y 13
     3 GLL5        2 GROUP        1 Z    GLL  0     ROOT GLL Z 20
@<TRIPOS>SET

