#    Name: 3zme_QC5_1_ligand
#    Modification time : Tue Mar 25 03:41:25 2014

@<TRIPOS>MOLECULE
3zme_QC5_1_ligand
   42    44     1     0     0
SMALL
NO_CHARGES


@<TRIPOS>ATOM
      1 C1         91.6350   93.0120  -43.9920 C.2       1 QC51291     0.0000 
      2 C2         91.0740   93.0000  -45.2980 C.2       1 QC51291     0.0000 
      3 C3         90.5380   94.2620  -45.5020 C.2       1 QC51291     0.0000 
      4 N1         90.7630   95.0070  -44.3140 N.pl3     1 QC51291     0.0000 
      5 C4         90.3740   96.3960  -44.0930 C.3       1 QC51291     0.0000 
      6 C5         91.6420   97.1880  -43.8670 C.3       1 QC51291     0.0000 
      7 N2         91.4090   98.6190  -44.0060 N.4       1 QC51291     0.0000 
      8 C6         90.6070   98.8890  -45.1580 C.3       1 QC51291     0.0000 
      9 C7         92.6840   99.3180  -44.1370 C.3       1 QC51291     0.0000 
     10 N3         91.4300   94.2490  -43.4150 N.2       1 QC51291     0.0000 
     11 C8         93.9410   90.9280  -42.0850 C.2       1 QC51291     0.0000 
     12 C9         92.8140   90.0910  -42.1410 C.2       1 QC51291     0.0000 
     13 C10        91.8110   90.7260  -42.8650 C.2       1 QC51291     0.0000 
     14 N4         92.3230   91.9820  -43.2550 N.pl3     1 QC51291     0.0000 
     15 C11        93.6400   92.1010  -42.7670 C.2       1 QC51291     0.0000 
     16 C12        90.9780   89.9080  -48.3210 C.ar      1 QC51291     0.0000 
     17 C13        89.8940   90.7770  -48.1600 C.ar      1 QC51291     0.0000 
     18 C14        89.9320   91.7710  -47.1760 C.ar      1 QC51291     0.0000 
     19 C15        91.0450   91.8840  -46.3480 C.ar      1 QC51291     0.0000 
     20 C16        92.1360   91.0190  -46.5220 C.ar      1 QC51291     0.0000 
     21 C17        92.0970   90.0280  -47.5090 C.ar      1 QC51291     0.0000 
     22 F          90.9280   88.9650  -49.2660 F         1 QC51291     0.0000 
     23 H          90.1065   94.5815  -46.2685 H         1 QC51291     0.0000 
     24 H          89.7422   96.4882  -43.2171 H         1 QC51291     0.0000 
     25 H          89.8590   96.7979  -44.9579 H         1 QC51291     0.0000 
     26 H          92.3994   96.8460  -44.5899 H         1 QC51291     0.0000 
     27 H          92.0245   96.9529  -42.8613 H         1 QC51291     0.0000 
     28 H          90.9030   98.9855  -43.1114 H         1 QC51291     0.0000 
     29 H          94.7569   90.7216  -41.6564 H         1 QC51291     0.0000 
     30 H          92.7546   89.2284  -41.7440 H         1 QC51291     0.0000 
     31 H          90.9589   90.3956  -43.0619 H         1 QC51291     0.0000 
     32 H          94.2034   92.8440  -42.8872 H         1 QC51291     0.0000 
     33 H          89.0696   90.6857  -48.7642 H         1 QC51291     0.0000 
     34 H          89.1398   92.4133  -47.0677 H         1 QC51291     0.0000 
     35 H          92.9635   91.1148  -45.9232 H         1 QC51291     0.0000 
     36 H          92.8952   89.3950  -47.6279 H         1 QC51291     0.0000 
     37 H          90.4370   99.8679  -45.2711 H         1 QC51291     0.0000 
     38 H          91.0442   98.5684  -45.9983 H         1 QC51291     0.0000 
     39 H          89.7147   98.4411  -45.1026 H         1 QC51291     0.0000 
     40 H          93.2711   99.1719  -43.3408 H         1 QC51291     0.0000 
     41 H          93.1957   99.0099  -44.9390 H         1 QC51291     0.0000 
     42 H          92.5582  100.3056  -44.2312 H         1 QC51291     0.0000 
@<TRIPOS>BOND
     1    2    1 1    
     2   10    1 2    
     3   14    1 1    
     4    3    2 2    
     5   19    2 1    
     6    4    3 1    
     7   23    3 1    
     8    5    4 1    
     9   10    4 1    
    10    6    5 1    
    11   24    5 1    
    12   25    5 1    
    13    7    6 1    
    14   26    6 1    
    15   27    6 1    
    16    8    7 1    
    17    9    7 1    
    18   28    7 1    
    19   37    8 1    
    20   38    8 1    
    21   39    8 1    
    22   40    9 1    
    23   41    9 1    
    24   42    9 1    
    25   12   11 1    
    26   15   11 2    
    27   29   11 1    
    28   13   12 2    
    29   30   12 1    
    30   14   13 1    
    31   31   13 1    
    32   15   14 1    
    33   32   15 1    
    34   17   16 ar   
    35   21   16 ar   
    36   22   16 1    
    37   18   17 ar   
    38   33   17 1    
    39   19   18 ar   
    40   34   18 1    
    41   20   19 ar   
    42   21   20 ar   
    43   35   20 1    
    44   36   21 1    
@<TRIPOS>SUBSTRUCTURE
     1 QC51291     1 GROUP   
@<TRIPOS>SET

