#    Name: 4DDY_1_CAVITY_N1_ALL.mol2
#    Modification time : Mon Mar 10 13:47:06 2014

@<TRIPOS>MOLECULE
4DDY_1_CAVITY_N1_ALL.mol2
  101     0     6     0     0
SMALL
NO_CHARGES


@<TRIPOS>ATOM
      1 N          -6.4829   56.3022   12.7320 N.2       2 ALA2        0.0000 
      2 OG         -2.9181   53.0442    6.8009 O.2       1 SER1        0.0000 
      3 OG         -5.6566   54.5200   11.9315 O.2       1 SER1        0.0000 
      4 N          -6.3412   54.8889   13.2141 N.2       2 ALA2        0.0000 
      5 O          -7.0259   55.2578   14.4968 O.2       2 ALA2        0.0000 
      6 OG         -4.1456   52.3688    9.8484 O.2       1 SER1        0.0000 
      7 OG         -4.8303   52.7377   11.1310 O.2       1 SER1        0.0000 
      8 DU         -5.5149   53.1066   12.4136 H         6 CUB7        0.0000 
      9 DU         -6.1995   53.4756   13.6963 H         6 CUB7        0.0000 
     10 O          -6.8842   53.8445   14.9789 O.2       2 ALA2        0.0000 
     11 DU         -4.6886   51.3244   11.6132 H         6 CUB7        0.0000 
     12 CZ         -5.3732   51.6933   12.8958 C.ar      4 PHE5        0.0000 
     13 CZ         -6.0578   52.0623   14.1784 C.ar      4 PHE5        0.0000 
     14 CZ         -4.5469   49.9111   12.0953 C.ar      4 PHE5        0.0000 
     15 CA         -0.9063   53.0165    6.1285 C.3       5 GLY6        0.0000 
     16 OG         -1.5910   53.3855    7.4111 O.2       1 SER1        0.0000 
     17 OG         -4.3295   54.8612   12.5417 O.2       1 SER1        0.0000 
     18 OG         -5.0141   55.2301   13.8243 O.2       1 SER1        0.0000 
     19 CA         -0.7646   51.6032    6.6107 C.3       5 GLY6        0.0000 
     20 CA         -1.4493   51.9721    7.8933 C.3       5 GLY6        0.0000 
     21 OG         -2.1339   52.3411    9.1759 O.2       1 SER1        0.0000 
     22 OG         -2.8185   52.7100   10.4586 O.2       1 SER1        0.0000 
     23 OG         -3.5032   53.0789   11.7412 O.2       1 SER1        0.0000 
     24 OG         -4.1878   53.4479   13.0239 O.2       1 SER1        0.0000 
     25 OG         -4.8724   53.8168   14.3065 O.2       1 SER1        0.0000 
     26 O          -1.3076   50.5588    8.3754 O.2       2 ALA2        0.0000 
     27 DU         -1.9922   50.9278    9.6581 H         6 CUB7        0.0000 
     28 DU         -2.6768   51.2967   10.9407 H         6 CUB7        0.0000 
     29 DU         -3.3615   51.6656   12.2234 H         6 CUB7        0.0000 
     30 OG         -4.0461   52.0346   13.5060 O.2       1 SER1        0.0000 
     31 OG         -4.7307   52.4035   14.7886 O.2       1 SER1        0.0000 
     32 DU         -1.8505   49.5145   10.1402 H         6 CUB7        0.0000 
     33 DU         -2.5351   49.8834   11.4229 H         6 CUB7        0.0000 
     34 OG         -3.2198   50.2523   12.7055 O.2       1 SER1        0.0000 
     35 CZ         -3.9044   50.6213   13.9882 C.ar      4 PHE5        0.0000 
     36 OG         -2.3934   48.4701   11.9050 O.2       1 SER1        0.0000 
     37 CA         -0.2639   53.7267    8.0213 C.3       5 GLY6        0.0000 
     38 CA         -0.9485   54.0956    9.3040 C.3       5 GLY6        0.0000 
     39 OG         -1.6331   54.4646   10.5866 O.2       1 SER1        0.0000 
     40 CA         -0.1222   52.3134    8.5035 C.3       5 GLY6        0.0000 
     41 DU         -0.8068   52.6823    9.7861 H         6 CUB7        0.0000 
     42 OG         -1.4914   53.0513   11.0688 O.2       1 SER1        0.0000 
     43 OG         -2.1761   53.4202   12.3514 O.2       1 SER1        0.0000 
     44 OG         -2.8607   53.7891   13.6341 O.2       1 SER1        0.0000 
     45 O           0.0195   50.9001    8.9857 O.2       2 ALA2        0.0000 
     46 OG         -0.6651   51.2690   10.2683 O.2       1 SER1        0.0000 
     47 OG         -1.3497   51.6379   11.5509 O.2       1 SER1        0.0000 
     48 OG         -2.0344   52.0069   12.8336 O.2       1 SER1        0.0000 
     49 O           0.1613   49.4868    9.4678 O.2       2 ALA2        0.0000 
     50 CA         -0.5234   49.8557   10.7505 C.3       5 GLY6        0.0000 
     51 CA         -1.2080   50.2246   12.0331 C.3       5 GLY6        0.0000 
     52 CA         -1.8926   50.5936   13.3157 C.3       5 GLY6        0.0000 
     53 N           0.3786   54.4369    9.9142 N.2       2 ALA2        0.0000 
     54 CA          1.2049   52.6546    9.1137 C.3       5 GLY6        0.0000 
     55 CA          0.5203   53.0236   10.3964 C.3       5 GLY6        0.0000 
     56 N           1.3466   51.2413    9.5959 N.2       2 ALA2        0.0000 
     57 OG          0.6620   51.6103   10.8785 O.2       1 SER1        0.0000 
     58 NZ        -12.2165   59.1772    8.8446 N.2       3 LYS4        0.0000 
     59 NZ        -12.9011   59.5461   10.1273 N.2       3 LYS4        0.0000 
     60 CA        -14.1287   58.8707   13.1747 C.3       5 GLY6        0.0000 
     61 CA        -14.8133   59.2396   14.4574 C.3       5 GLY6        0.0000 
     62 O         -13.3023   57.0884   12.3742 O.2       2 ALA2        0.0000 
     63 NZ        -10.8894   59.5184    9.4549 N.2       3 LYS4        0.0000 
     64 NZ        -10.0630   57.7362    8.6544 N.2       3 LYS4        0.0000 
     65 NZ        -10.7477   58.1051    9.9370 N.2       3 LYS4        0.0000 
     66 N         -11.4323   58.4740   11.2196 N.2       2 ALA2        0.0000 
     67 N         -12.1169   58.8430   12.5023 N.2       2 ALA2        0.0000 
     68 DU         -9.9213   56.3229    9.1365 H         6 CUB7        0.0000 
     69 DU        -10.6059   56.6918   10.4192 H         6 CUB7        0.0000 
     70 O         -11.2906   57.0607   11.7018 O.2       2 ALA2        0.0000 
     71 CA        -11.9752   57.4297   12.9844 C.3       5 GLY6        0.0000 
     72 O         -10.1808   52.4519   11.8656 O.2       2 ALA2        0.0000 
     73 N         -10.0391   51.0386   12.3478 N.2       2 ALA2        0.0000 
     74 CA         -8.7359   58.0774    9.2646 C.3       5 GLY6        0.0000 
     75 CA        -10.1052   58.8153   11.8299 C.3       5 GLY6        0.0000 
     76 CA         -8.5942   56.6641    9.7467 C.3       5 GLY6        0.0000 
     77 CA         -9.2788   57.0330   11.0294 C.3       5 GLY6        0.0000 
     78 CA         -9.9635   57.4020   12.3120 C.3       5 GLY6        0.0000 
     79 DU         -8.4525   55.2508   10.2289 H         6 CUB7        0.0000 
     80 O          -9.1371   55.6197   11.5115 O.2       2 ALA2        0.0000 
     81 O          -9.8218   55.9887   12.7942 O.2       2 ALA2        0.0000 
     82 DU         -8.3108   53.8375   10.7111 H         6 CUB7        0.0000 
     83 O          -8.9954   54.2064   11.9937 O.2       2 ALA2        0.0000 
     84 DU         -8.1691   52.4242   11.1932 H         6 CUB7        0.0000 
     85 CA         -8.8537   52.7931   12.4759 C.3       5 GLY6        0.0000 
     86 O          -9.5384   53.1620   13.7585 O.2       2 ALA2        0.0000 
     87 CA         -8.7120   51.3798   12.9580 C.3       5 GLY6        0.0000 
     88 CA         -7.9517   57.3743   11.6396 C.3       5 GLY6        0.0000 
     89 N          -7.1254   55.5920   10.8391 N.2       2 ALA2        0.0000 
     90 N          -7.8100   55.9610   12.1217 N.2       2 ALA2        0.0000 
     91 O          -8.4947   56.3299   13.4044 O.2       2 ALA2        0.0000 
     92 OG         -6.2991   53.8098   10.0386 O.2       1 SER1        0.0000 
     93 OG         -6.9837   54.1787   11.3213 O.2       1 SER1        0.0000 
     94 DU         -7.6683   54.5476   12.6039 H         6 CUB7        0.0000 
     95 O          -8.3530   54.9166   13.8865 O.2       2 ALA2        0.0000 
     96 OG         -6.1574   52.3965   10.5208 O.2       1 SER1        0.0000 
     97 DU         -6.8420   52.7654   11.8034 H         6 CUB7        0.0000 
     98 CA         -7.5266   53.1343   13.0861 C.3       5 GLY6        0.0000 
     99 O          -8.2113   53.5033   14.3687 O.2       2 ALA2        0.0000 
    100 CZ         -6.7003   51.3521   12.2856 C.ar      4 PHE5        0.0000 
    101 CZ         -7.3849   51.7210   13.5682 C.ar      4 PHE5        0.0000 
@<TRIPOS>BOND
@<TRIPOS>SUBSTRUCTURE
     1 SER1        2 GROUP   
     2 ALA2        1 GROUP   
     3 LYS4       58 GROUP   
     4 PHE5       12 GROUP   
     5 GLY6       15 GROUP   
     6 CUB7        8 GROUP   
@<TRIPOS>SET

