#    Name: 4ddy_DN6_1_INTS_M
#    Modification time : Tue Mar 25 09:37:19 2014

@<TRIPOS>MOLECULE
4ddy_DN6_1_INTS_M
   46     0     9     0     0
SMALL
NO_CHARGES


@<TRIPOS>ATOM
      1 CA         -9.8140   61.0130   12.4960 C.3       3 GLC5        0.0000 
      2 CA        -11.6650   60.6230   12.0830 C.3       9 GLL5        0.0000 
      3 CA         -7.9630   61.4030   12.9090 C.3       6 GLP5        0.0000 
      4 CA        -12.7735   58.1345   14.0940 C.3       3 GLC5        0.0000 
      5 CA        -13.0950   59.0460   12.5880 C.3       9 GLL5        0.0000 
      6 CA        -12.4520   57.2230   15.6000 C.3       6 GLP5        0.0000 
      7 CA        -10.5130   59.9855    8.1565 C.3       3 GLC5        0.0000 
      8 CA        -11.1870   58.5210    9.6860 C.3       9 GLL5        0.0000 
      9 CA         -9.8390   61.4500    6.6270 C.3       6 GLP5        0.0000 
     10 CA        -11.5590   57.4780   13.7470 C.3       3 GLC5        0.0000 
     11 CA        -10.6660   57.7330   11.8940 C.3       9 GLL5        0.0000 
     12 CA         -9.4225   59.1320    7.7800 C.3       3 GLC5        0.0000 
     13 CA        -10.2940   57.6200    9.1320 C.3       9 GLL5        0.0000 
     14 CA         -8.5510   60.6440    6.4280 C.3       6 GLP5        0.0000 
     15 N         -10.6840   55.1375   13.5865 N.am      2 SEC2        0.0000 
     16 N          -9.3930   55.8160   13.5050 N.am      8 SEL2        0.0000 
     17 N         -11.9750   54.4590   13.6680 N.am      5 SEP2        0.0000 
     18 N          -9.2530   55.2530   14.9750 N.am      2 SEC2        0.0000 
     19 N          -9.1130   54.6900   16.4450 N.am      5 SEP2        0.0000 
     20 CA         -3.7925   52.2440   15.3260 C.3       3 GLC5        0.0000 
     21 CA         -5.2130   53.0540   14.2180 C.3       9 GLL5        0.0000 
     22 CA         -2.3720   51.4340   16.4340 C.3       6 GLP5        0.0000 
     23 N          -3.4140   54.6945   10.5010 N.am      2 SEC2        0.0000 
     24 N          -2.8540   54.2250   11.6950 N.am      8 SEL2        0.0000 
     25 N          -3.9740   55.1640    9.3070 N.am      5 SEP2        0.0000 
     26 N           0.1170   53.0125   12.9875 N.am      2 SEC2        0.0000 
     27 N          -1.1950   53.2680   12.7760 N.am      8 SEL2        0.0000 
     28 N           1.4290   52.7570   13.1990 N.am      5 SEP2        0.0000 
     29 O          -2.3550   52.9675   14.8285 O.2       1 ALC1        0.0000 
     30 O          -2.3690   53.0960   13.4750 O.2       7 ALL1        0.0000 
     31 O          -2.3410   52.8390   16.1820 O.2       4 ALP1        0.0000 
     32 CA        -12.6164   61.9011   11.4004 C.3       3 GLC5        0.0000 
     33 CA        -12.5770   63.8050   11.5500 C.3       6 GLP5        0.0000 
     34 CA        -12.4806   60.6479   13.8711 C.3       3 GLC5        0.0000 
     35 CA        -12.3990   61.7210   15.5270 C.3       6 GLP5        0.0000 
     36 CA         -9.4565   59.0240   12.1172 C.3       3 GLC5        0.0000 
     37 CA        -11.4100   58.5750   11.0490 C.3       9 GLL5        0.0000 
     38 CA         -7.8750   59.8940   12.7630 C.3       6 GLP5        0.0000 
     39 CA         -8.7637   58.3417   11.7250 C.3       3 GLC5        0.0000 
     40 CA         -9.7500   56.7960   11.3880 C.3       9 GLL5        0.0000 
     41 CA         -8.1537   58.1262    9.2890 C.3       3 GLC5        0.0000 
     42 CA         -9.5550   56.7830    9.9860 C.3       9 GLL5        0.0000 
     43 CA         -6.3830   59.0510    9.0190 C.3       6 GLP5        0.0000 
     44 CA         -8.0793   51.9625   14.7705 C.3       3 GLC5        0.0000 
     45 CA         -7.4730   53.7920   13.8030 C.3       9 GLL5        0.0000 
     46 CA         -9.1480   50.4870   15.3510 C.3       6 GLP5        0.0000 
@<TRIPOS>BOND
@<TRIPOS>SUBSTRUCTURE
     1 ALC1       29 GROUP        1 X    ALC  0     ROOT ALC X 1
     2 SEC2       15 GROUP        1 X    SEC  0     **** SEC X 2
     3 GLC5        1 GROUP        1 X    GLC  0     **** GLC X 6
     4 ALP1       31 GROUP        1 Y    ALP  0     ROOT ALP Y 8
     5 SEP2       17 GROUP        1 Y    SEP  0     **** SEP Y 9
     6 GLP5        3 GROUP        1 Y    GLP  0     **** GLP Y 13
     7 ALL1       30 GROUP        1 Z    ALL  0     ROOT ALL Z 15
     8 SEL2       16 GROUP        1 Z    SEL  0     **** SEL Z 16
     9 GLL5        2 GROUP        1 Z    GLL  0     **** GLL Z 20
@<TRIPOS>SET

