#    Name: 4ddy_DN6_1_ligand
#    Modification time : Tue Mar 25 09:37:19 2014

@<TRIPOS>MOLECULE
4ddy_DN6_1_ligand
   34    36     1     0     0
SMALL
NO_CHARGES


@<TRIPOS>ATOM
      1 F24       -11.6650   60.6230   12.0830 F         1 DN6301      0.0000 
      2 C7        -12.3940   59.5840   11.6020 C.3       1 DN6301      0.0000 
      3 F22       -13.2820   59.8910   10.6590 F         1 DN6301      0.0000 
      4 F23       -13.0950   59.0460   12.5880 F         1 DN6301      0.0000 
      5 C6        -11.4100   58.5750   11.0490 C.ar      1 DN6301      0.0000 
      6 C1        -11.1870   58.5210    9.6860 C.ar      1 DN6301      0.0000 
      7 C5        -10.6660   57.7330   11.8940 C.ar      1 DN6301      0.0000 
      8 C4         -9.7500   56.7960   11.3880 C.ar      1 DN6301      0.0000 
      9 C3         -9.5550   56.7830    9.9860 C.ar      1 DN6301      0.0000 
     10 C2        -10.2940   57.6200    9.1320 C.ar      1 DN6301      0.0000 
     11 C8         -8.9580   55.9070   12.3460 C.2       1 DN6301      0.0000 
     12 O21        -9.3930   55.8160   13.5050 O.2       1 DN6301      0.0000 
     13 N9         -7.8410   55.2870   11.8990 N.am      1 DN6301      0.0000 
     14 C10        -6.9980   54.5020   12.7140 C.ar      1 DN6301      0.0000 
     15 C15        -7.4730   53.7920   13.8030 C.ar      1 DN6301      0.0000 
     16 C14        -6.5480   53.0840   14.5770 C.ar      1 DN6301      0.0000 
     17 C13        -5.2130   53.0540   14.2180 C.ar      1 DN6301      0.0000 
     18 C12        -4.7610   53.7190   13.1030 C.ar      1 DN6301      0.0000 
     19 C11        -5.6600   54.4710   12.3580 C.ar      1 DN6301      0.0000 
     20 C16        -3.4010   53.6620   12.7650 C.2       1 DN6301      0.0000 
     21 N20        -2.8540   54.2250   11.6950 N.2       1 DN6301      0.0000 
     22 N19        -1.4790   54.0080   11.6210 N.2       1 DN6301      0.0000 
     23 N18        -1.1950   53.2680   12.7760 N.2       1 DN6301      0.0000 
     24 N17        -2.3690   53.0960   13.4750 N.pl3     1 DN6301      0.0000 
     25 H         -11.7033   59.1741    9.0594 H         1 DN6301      0.0000 
     26 H         -10.7975   57.8061   12.9197 H         1 DN6301      0.0000 
     27 H          -8.8517   56.1415    9.5849 H         1 DN6301      0.0000 
     28 H         -10.1673   57.5569    8.1226 H         1 DN6301      0.0000 
     29 H          -7.5634   55.3822   10.8820 H         1 DN6301      0.0000 
     30 H          -8.4589   53.7812   14.0378 H         1 DN6301      0.0000 
     31 H          -6.8703   52.5838   15.4189 H         1 DN6301      0.0000 
     32 H          -4.5415   52.5177   14.8044 H         1 DN6301      0.0000 
     33 H          -5.3302   55.0045   11.5418 H         1 DN6301      0.0000 
     34 H          -2.4518   52.6521   14.3216 H         1 DN6301      0.0000 
@<TRIPOS>BOND
     1    2    1 1    
     2    3    2 1    
     3    4    2 1    
     4    5    2 1    
     5    6    5 ar   
     6    7    5 ar   
     7   10    6 ar   
     8   25    6 1    
     9    8    7 ar   
    10   26    7 1    
    11    9    8 ar   
    12   11    8 1    
    13   10    9 ar   
    14   27    9 1    
    15   28   10 1    
    16   12   11 2    
    17   13   11 am   
    18   14   13 1    
    19   29   13 1    
    20   15   14 ar   
    21   19   14 ar   
    22   16   15 ar   
    23   30   15 1    
    24   17   16 ar   
    25   31   16 1    
    26   18   17 ar   
    27   32   17 1    
    28   19   18 ar   
    29   20   18 1    
    30   33   19 1    
    31   21   20 2    
    32   24   20 1    
    33   22   21 1    
    34   23   22 2    
    35   24   23 1    
    36   34   24 1    
@<TRIPOS>SUBSTRUCTURE
     1 DN6301      1 GROUP   
@<TRIPOS>SET

