#    Name: 2d3u_CCT_2_INTS_M
#    Modification time : Tue Mar 25 09:37:08 2014

@<TRIPOS>MOLECULE
2d3u_CCT_2_INTS_M
   57     0     6     0     0
SMALL
NO_CHARGES


@<TRIPOS>ATOM
      1 CA        -10.7200   32.7305  -28.0080 C.3       2 GLC5        0.0000 
      2 CA        -11.8840   31.3410  -28.7920 C.3       6 GLL5        0.0000 
      3 CA         -9.5560   34.1200  -27.2240 C.3       4 GLP5        0.0000 
      4 CA        -10.7990   31.7225  -31.6880 C.3       2 GLC5        0.0000 
      5 CA         -9.1930   31.9180  -30.4080 C.3       6 GLL5        0.0000 
      6 CA        -12.4050   31.5270  -32.9680 C.3       4 GLP5        0.0000 
      7 CA         -8.7635   31.4890  -27.0710 C.3       2 GLC5        0.0000 
      8 CA         -7.8730   30.7560  -28.5810 C.3       6 GLL5        0.0000 
      9 CA         -9.6540   32.2220  -25.5610 C.3       4 GLP5        0.0000 
     10 CA         -7.0210   29.4550  -27.6255 C.3       2 GLC5        0.0000 
     11 CA         -6.1690   28.1540  -26.6700 C.3       4 GLP5        0.0000 
     12 CA        -13.7150   30.2785  -25.0715 C.3       2 GLC5        0.0000 
     13 CA        -14.2490   29.0650  -26.8770 C.3       6 GLL5        0.0000 
     14 CA        -13.1810   31.4920  -23.2660 C.3       4 GLP5        0.0000 
     15 CA        -14.3835   28.1080  -25.1330 C.3       2 GLC5        0.0000 
     16 CA        -14.5180   27.1510  -23.3890 C.3       4 GLP5        0.0000 
     17 CA        -15.6240   30.2060  -26.0175 C.3       2 GLC5        0.0000 
     18 CA        -16.9990   31.3470  -25.1580 C.3       4 GLP5        0.0000 
     19 N          -3.9810   31.2035  -27.9215 N.am      1 SEC2        0.0000 
     20 N          -4.8810   31.0060  -28.9000 N.am      5 SEL2        0.0000 
     21 N          -3.0810   31.4010  -26.9430 N.am      3 SEP2        0.0000 
     22 N          -3.6880   32.5905  -29.9595 N.am      1 SEC2        0.0000 
     23 N          -4.9360   32.5740  -30.4470 N.am      5 SEL2        0.0000 
     24 N          -2.4400   32.6070  -29.4720 N.am      3 SEP2        0.0000 
     25 CA        -11.7315   34.6860  -31.4635 C.3       2 GLC5        0.0000 
     26 CA        -10.1660   35.6810  -30.8240 C.3       6 GLL5        0.0000 
     27 CA        -13.2970   33.6910  -32.1030 C.3       4 GLP5        0.0000 
     28 CA         -9.8735   38.9985  -27.9650 C.3       2 GLC5        0.0000 
     29 CA         -9.6700   37.4360  -29.1850 C.3       6 GLL5        0.0000 
     30 CA        -10.0770   40.5610  -26.7450 C.3       4 GLP5        0.0000 
     31 CA         -4.4145   35.7035  -30.8645 C.3       2 GLC5        0.0000 
     32 CA         -6.3130   36.2540  -30.6710 C.3       6 GLL5        0.0000 
     33 CA         -2.5160   35.1530  -31.0580 C.3       4 GLP5        0.0000 
     34 CA         -6.0615   35.6935  -28.7370 C.3       2 GLC5        0.0000 
     35 CA         -5.8100   35.1330  -26.8030 C.3       4 GLP5        0.0000 
     36 CA         -7.2325   37.9570  -31.5420 C.3       2 GLC5        0.0000 
     37 CA         -8.1520   39.6600  -32.4130 C.3       4 GLP5        0.0000 
     38 CA        -13.3938   32.6432  -28.5680 C.3       2 GLC5        0.0000 
     39 CA        -14.3100   34.1990  -28.6430 C.3       4 GLP5        0.0000 
     40 CA        -13.5527   31.3468  -30.1875 C.3       2 GLC5        0.0000 
     41 CA        -13.0710   30.8340  -28.1940 C.3       6 GLL5        0.0000 
     42 CA        -14.6280   31.6060  -31.8820 C.3       4 GLP5        0.0000 
     43 CA        -10.0697   28.0300  -26.7335 C.3       2 GLC5        0.0000 
     44 CA        -10.6560   29.3670  -27.9970 C.3       6 GLL5        0.0000 
     45 CA         -8.8940   26.9450  -25.7680 C.3       4 GLP5        0.0000 
     46 CA        -10.3011   31.0433  -26.8803 C.3       2 GLC5        0.0000 
     47 CA        -11.8350   28.8630  -27.4010 C.3       6 GLL5        0.0000 
     48 CA         -8.9227   35.0270  -28.9992 C.3       2 GLC5        0.0000 
     49 CA         -8.7710   35.5250  -31.1170 C.3       6 GLL5        0.0000 
     50 CA         -8.2208   37.7970  -31.5938 C.3       2 GLC5        0.0000 
     51 CA         -9.9730   35.1357  -28.7840 C.3       2 GLC5        0.0000 
     52 CA        -11.8425   36.9255  -28.6722 C.3       2 GLC5        0.0000 
     53 CA        -10.6140   36.6220  -29.8640 C.3       6 GLL5        0.0000 
     54 CA        -13.5430   36.8220  -27.8200 C.3       4 GLP5        0.0000 
     55 CA         -9.2650   35.7422  -28.2745 C.3       2 GLC5        0.0000 
     56 CA         -8.5630   38.5123  -30.8690 C.3       2 GLC5        0.0000 
     57 CA         -8.9490   32.9220  -28.6232 C.3       2 GLC5        0.0000 
@<TRIPOS>BOND
@<TRIPOS>SUBSTRUCTURE
     1 SEC2       19 GROUP        1 X    SEC  0     ROOT SEC X 2
     2 GLC5        1 GROUP        1 X    GLC  0     **** GLC X 6
     3 SEP2       21 GROUP        1 Y    SEP  0     ROOT SEP Y 9
     4 GLP5        3 GROUP        1 Y    GLP  0     **** GLP Y 13
     5 SEL2       20 GROUP        1 Z    SEL  0     ROOT SEL Z 16
     6 GLL5        2 GROUP        1 Z    GLL  0     **** GLL Z 20
@<TRIPOS>SET

