#    Name: 2d3u_CCT_2_ligand
#    Modification time : Tue Mar 25 09:37:08 2014

@<TRIPOS>MOLECULE
2d3u_CCT_2_ligand
   40    42     1     0     0
SMALL
NO_CHARGES


@<TRIPOS>ATOM
      1 C1        -13.0710   30.8340  -28.1940 C.ar      1 CCT2001     0.0000 
      2 C2        -13.0610   29.5860  -27.4910 C.ar      1 CCT2001     0.0000 
      3 C3        -11.8350   28.8630  -27.4010 C.ar      1 CCT2001     0.0000 
      4 C4        -10.6560   29.3670  -27.9970 C.ar      1 CCT2001     0.0000 
      5 C5        -10.6510   30.6140  -28.7000 C.ar      1 CCT2001     0.0000 
      6 C6        -11.8840   31.3410  -28.7920 C.ar      1 CCT2001     0.0000 
      7 C7         -6.9780   31.6370  -29.7230 C.2       1 CCT2001     0.0000 
      8 C8         -7.8100   32.2190  -30.6690 C.2       1 CCT2001     0.0000 
      9 C9         -9.1930   31.9180  -30.4080 C.2       1 CCT2001     0.0000 
     10 C10        -9.3870   31.1220  -29.2900 C.2       1 CCT2001     0.0000 
     11 S11        -7.8730   30.7560  -28.5810 S.3       1 CCT2001     0.0000 
     12 C12       -14.2490   29.0650  -26.8770 C.1       1 CCT2001     0.0000 
     13 N13       -15.2150   28.6290  -26.3500 N.1       1 CCT2001     0.0000 
     14 C14        -5.4960   31.7500  -29.6980 C.2       1 CCT2001     0.0000 
     15 O15        -4.8810   31.0060  -28.9000 O.co2     1 CCT2001     0.0000 
     16 O16        -4.9360   32.5740  -30.4470 O.co2     1 CCT2001     0.0000 
     17 N17        -7.3630   33.0270  -31.7910 N.pl3     1 CCT2001     0.0000 
     18 S18        -8.3330   34.3000  -32.3590 S.o2      1 CCT2001     0.0000 
     19 C19        -7.8080   36.3430  -30.4320 C.ar      1 CCT2001     0.0000 
     20 C20        -8.7710   35.5250  -31.1170 C.ar      1 CCT2001     0.0000 
     21 C21       -10.1660   35.6810  -30.8240 C.ar      1 CCT2001     0.0000 
     22 C22       -10.6140   36.6220  -29.8640 C.ar      1 CCT2001     0.0000 
     23 C23        -9.6700   37.4360  -29.1850 C.ar      1 CCT2001     0.0000 
     24 C24        -8.2780   37.2930  -29.4650 C.ar      1 CCT2001     0.0000 
     25 C25        -6.3130   36.2540  -30.6710 C.3       1 CCT2001     0.0000 
     26 O26        -9.5310   33.6920  -32.9120 O.2       1 CCT2001     0.0000 
     27 O27        -7.5350   34.9730  -33.3720 O.2       1 CCT2001     0.0000 
     28 H         -13.9421   31.3624  -28.2643 H         1 CCT2001     0.0000 
     29 H         -11.8139   27.9717  -26.8993 H         1 CCT2001     0.0000 
     30 H          -9.7811   28.8329  -27.9283 H         1 CCT2001     0.0000 
     31 H         -11.9046   32.2300  -29.2923 H         1 CCT2001     0.0000 
     32 H          -9.9079   32.2560  -30.9812 H         1 CCT2001     0.0000 
     33 H          -6.5318   32.9239  -32.2843 H         1 CCT2001     0.0000 
     34 H         -10.8462   35.0974  -31.3223 H         1 CCT2001     0.0000 
     35 H         -11.6059   36.7145  -29.6618 H         1 CCT2001     0.0000 
     36 H          -9.9811   38.1198  -28.5007 H         1 CCT2001     0.0000 
     37 H          -7.5999   37.8773  -28.9686 H         1 CCT2001     0.0000 
     38 H          -5.8064   36.8988  -30.0987 H         1 CCT2001     0.0000 
     39 H          -5.9583   35.3412  -30.4688 H         1 CCT2001     0.0000 
     40 H          -6.0761   36.4567  -31.6212 H         1 CCT2001     0.0000 
@<TRIPOS>BOND
     1    2    1 ar   
     2    6    1 ar   
     3   28    1 1    
     4    3    2 ar   
     5   12    2 1    
     6    4    3 ar   
     7   29    3 1    
     8    5    4 ar   
     9   30    4 1    
    10    6    5 ar   
    11   10    5 1    
    12   31    6 1    
    13    8    7 2    
    14   11    7 1    
    15   14    7 1    
    16    9    8 1    
    17   17    8 1    
    18   10    9 2    
    19   32    9 1    
    20   11   10 1    
    21   13   12 3    
    22   15   14 ar   
    23   16   14 ar   
    24   18   17 1    
    25   33   17 1    
    26   20   18 1    
    27   26   18 2    
    28   27   18 2    
    29   20   19 ar   
    30   24   19 ar   
    31   25   19 1    
    32   21   20 ar   
    33   22   21 ar   
    34   34   21 1    
    35   23   22 ar   
    36   35   22 1    
    37   24   23 ar   
    38   36   23 1    
    39   37   24 1    
    40   38   25 1    
    41   39   25 1    
    42   40   25 1    
@<TRIPOS>SUBSTRUCTURE
     1 CCT2001     1 GROUP   
@<TRIPOS>SET

