#    Name: 1p2y_NCT_1_INTS_M
#    Modification time : Mon Mar 24 21:03:20 2014

@<TRIPOS>MOLECULE
1p2y_NCT_1_INTS_M
   34     0     3     0     0
SMALL
NO_CHARGES


@<TRIPOS>ATOM
      1 CA         15.8060    9.6890   40.6800 C.3       1 GLC5        0.0000 
      2 CA         14.8480   11.5340   40.5560 C.3       3 GLL5        0.0000 
      3 CA         16.7640    7.8440   40.8040 C.3       2 GLP5        0.0000 
      4 CA         18.7750   11.9100   39.6055 C.3       1 GLC5        0.0000 
      5 CA         16.8250   12.4490   39.6380 C.3       3 GLL5        0.0000 
      6 CA         20.7250   11.3710   39.5730 C.3       2 GLP5        0.0000 
      7 CA         18.6910   11.7075   38.2525 C.3       1 GLC5        0.0000 
      8 CA         16.5230   11.8390   38.4340 C.3       3 GLL5        0.0000 
      9 CA         20.8590   11.5760   38.0710 C.3       2 GLP5        0.0000 
     10 CA         16.0580    9.4745   39.5780 C.3       1 GLC5        0.0000 
     11 CA         15.3520   11.1050   38.3520 C.3       3 GLL5        0.0000 
     12 CA         17.3630   16.5615   43.6810 C.3       1 GLC5        0.0000 
     13 CA         16.2810   15.0920   43.2200 C.3       3 GLL5        0.0000 
     14 CA         18.4450   18.0310   44.1420 C.3       2 GLP5        0.0000 
     15 CA         16.0605   16.3305   44.8255 C.3       1 GLC5        0.0000 
     16 CA         15.8400   17.5690   46.4310 C.3       2 GLP5        0.0000 
     17 CA         18.3955   16.0200   43.1705 C.3       1 GLC5        0.0000 
     18 CA         17.6370   14.3510   43.3350 C.3       3 GLL5        0.0000 
     19 CA         19.1540   17.6890   43.0060 C.3       2 GLP5        0.0000 
     20 CA         18.3435   12.4955   44.3255 C.3       1 GLC5        0.0000 
     21 CA         19.0500   10.6400   45.3160 C.3       2 GLP5        0.0000 
     22 CA         20.4690   12.0810   43.2210 C.3       1 GLC5        0.0000 
     23 CA         18.6320   12.3520   42.3570 C.3       3 GLL5        0.0000 
     24 CA         22.3060   11.8100   44.0850 C.3       2 GLP5        0.0000 
     25 CA         19.6785   11.8615   40.9650 C.3       1 GLC5        0.0000 
     26 CA         18.8410   11.4960   43.8365 C.3       1 GLC5        0.0000 
     27 CA         16.7882   10.0045   37.8250 C.3       1 GLC5        0.0000 
     28 CA         17.6390    8.5370   37.2570 C.3       2 GLP5        0.0000 
     29 CA         16.3680   13.3792   37.8900 C.3       1 GLC5        0.0000 
     30 CA         16.7230   15.1340   37.0860 C.3       2 GLP5        0.0000 
     31 CA         18.1740   14.7338   44.8293 C.3       1 GLC5        0.0000 
     32 CA         19.3890   14.7460   46.3810 C.3       2 GLP5        0.0000 
     33 CA         15.7069   13.2366   44.3976 C.3       1 GLC5        0.0000 
     34 CA         15.0000   12.3100   46.0860 C.3       2 GLP5        0.0000 
@<TRIPOS>BOND
@<TRIPOS>SUBSTRUCTURE
     1 GLC5        1 GROUP        1 X    GLC  0     ROOT GLC X 6
     2 GLP5        3 GROUP        1 Y    GLP  0     ROOT GLP Y 13
     3 GLL5        2 GROUP        1 Z    GLL  0     ROOT GLL Z 20
@<TRIPOS>SET

