#    Name: 1p2y_NCT_1_ligand
#    Modification time : Mon Mar 24 21:03:20 2014

@<TRIPOS>MOLECULE
1p2y_NCT_1_ligand
   27    28     1     0     0
SMALL
NO_CHARGES


@<TRIPOS>ATOM
      1 N1         14.5300   10.9590   39.3960 N.ar      1 NCT440      0.0000 
      2 C1         14.8480   11.5340   40.5560 C.ar      1 NCT440      0.0000 
      3 C2         15.9830   12.2950   40.7340 C.ar      1 NCT440      0.0000 
      4 C3         16.8250   12.4490   39.6380 C.ar      1 NCT440      0.0000 
      5 C4         16.5230   11.8390   38.4340 C.ar      1 NCT440      0.0000 
      6 C5         15.3520   11.1050   38.3520 C.ar      1 NCT440      0.0000 
      7 N2         17.6410   13.4010   42.2340 N.4       1 NCT440      0.0000 
      8 C6         16.2700   12.9520   42.0610 C.3       1 NCT440      0.0000 
      9 C7         15.4670   14.2580   42.2210 C.3       1 NCT440      0.0000 
     10 C8         16.2810   15.0920   43.2200 C.3       1 NCT440      0.0000 
     11 C9         17.6370   14.3510   43.3350 C.3       1 NCT440      0.0000 
     12 C10        18.6320   12.3520   42.3570 C.3       1 NCT440      0.0000 
     13 H          14.2080   11.4108   41.3944 H         1 NCT440      0.0000 
     14 H          17.6786   13.0219   39.7269 H         1 NCT440      0.0000 
     15 H          17.1424   11.9267   37.6322 H         1 NCT440      0.0000 
     16 H          15.1195   10.6552   37.4286 H         1 NCT440      0.0000 
     17 H          17.8893   14.0098   41.3062 H         1 NCT440      0.0000 
     18 H          15.9823   12.3134   42.8756 H         1 NCT440      0.0000 
     19 H          14.5123   14.0397   42.6291 H         1 NCT440      0.0000 
     20 H          15.4187   14.7612   41.2882 H         1 NCT440      0.0000 
     21 H          15.8007   15.0934   44.1652 H         1 NCT440      0.0000 
     22 H          16.4445   16.0643   42.8300 H         1 NCT440      0.0000 
     23 H          18.4204   15.0761   43.2409 H         1 NCT440      0.0000 
     24 H          17.6672   13.8603   44.2872 H         1 NCT440      0.0000 
     25 H          19.5535   12.7232   42.4709 H         1 NCT440      0.0000 
     26 H          18.4537   11.7632   43.1454 H         1 NCT440      0.0000 
     27 H          18.6512   11.7626   41.5494 H         1 NCT440      0.0000 
@<TRIPOS>BOND
     1    2    1 ar   
     2    6    1 ar   
     3    3    2 ar   
     4   13    2 1    
     5    4    3 ar   
     6    8    3 1    
     7    5    4 ar   
     8   14    4 1    
     9    6    5 ar   
    10   15    5 1    
    11   16    6 1    
    12    8    7 1    
    13   11    7 1    
    14   12    7 1    
    15   17    7 1    
    16    9    8 1    
    17   18    8 1    
    18   10    9 1    
    19   19    9 1    
    20   20    9 1    
    21   11   10 1    
    22   21   10 1    
    23   22   10 1    
    24   23   11 1    
    25   24   11 1    
    26   25   12 1    
    27   26   12 1    
    28   27   12 1    
@<TRIPOS>SUBSTRUCTURE
     1 NCT440      1 GROUP   
@<TRIPOS>SET

