#    Name: 3h0b_B35_1_INTS_M
#    Modification time : Tue Mar 25 13:21:22 2014

@<TRIPOS>MOLECULE
3h0b_B35_1_INTS_M
   56     0    12     0     0
SMALL
NO_CHARGES


@<TRIPOS>ATOM
      1 O           9.3940    3.2525   22.0765 O.2       1 ALC1        0.0000 
      2 O           8.6770    2.2460   21.7390 O.2       9 ALL1        0.0000 
      3 O          10.1110    4.2590   22.4140 O.2       5 ALP1        0.0000 
      4 CA         10.2845    6.5130   18.4965 C.3       4 GLC5        0.0000 
      5 CA          8.7770    7.5120   17.2400 C.3      12 GLL5        0.0000 
      6 CA         11.7920    5.5140   19.7530 C.3       8 GLP5        0.0000 
      7 CA          9.7910    9.2365   17.5260 C.3       4 GLC5        0.0000 
      8 CA         10.8050   10.9610   17.8120 C.3       8 GLP5        0.0000 
      9 CA          7.5260    8.8170   16.4860 C.3       4 GLC5        0.0000 
     10 CA          6.2750   10.1220   15.7320 C.3       8 GLP5        0.0000 
     11 N           6.2995    7.3295   16.6220 N.am      2 SEC2        0.0000 
     12 N           7.6560    6.6090   17.0760 N.am     10 SEL2        0.0000 
     13 N           4.9430    8.0500   16.1680 N.am      6 SEP2        0.0000 
     14 CA          6.0220    5.6135   15.1660 C.3       4 GLC5        0.0000 
     15 CA          5.7010    4.8720   16.7440 C.3      12 GLL5        0.0000 
     16 CA          6.3430    6.3550   13.5880 C.3       8 GLP5        0.0000 
     17 CA          4.3630    3.8220   16.1425 C.3       4 GLC5        0.0000 
     18 CA          3.0250    2.7720   15.5410 C.3       8 GLP5        0.0000 
     19 CA          4.6505    6.3160   16.4545 C.3       4 GLC5        0.0000 
     20 CA          3.6000    7.7600   16.1650 C.3       8 GLP5        0.0000 
     21 CA          4.3640    5.3095   17.7530 C.3       4 GLC5        0.0000 
     22 CA          3.0270    5.7470   18.7620 C.3       8 GLP5        0.0000 
     23 CA          5.8910    5.5375   22.1595 C.3       4 GLC5        0.0000 
     24 CA          6.1120    3.5820   22.5570 C.3      12 GLL5        0.0000 
     25 CA          5.6700    7.4930   21.7620 C.3       8 GLP5        0.0000 
     26 CA          7.9115    1.5210   25.0425 C.3       4 GLC5        0.0000 
     27 CA          5.7990    2.0000   24.4810 C.3      12 GLL5        0.0000 
     28 CA         10.0240    1.0420   25.6040 C.3       8 GLP5        0.0000 
     29 CA          2.3075    2.0445   20.3125 C.3       4 GLC5        0.0000 
     30 CA          2.0540    3.2420   21.8410 C.3      12 GLL5        0.0000 
     31 CA          2.5610    0.8470   18.7840 C.3       8 GLP5        0.0000 
     32 CA          2.5405    4.4945   20.3015 C.3       4 GLC5        0.0000 
     33 CA          2.3395    4.5875   23.1640 C.3       4 GLC5        0.0000 
     34 CA          2.6250    5.9330   24.4870 C.3       8 GLP5        0.0000 
     35 OD1        10.4380    2.6865   22.2625 O.co2     3 ASC3        0.0000 
     36 OD1         9.4860    1.1680   21.7100 O.co2    11 ASL3        0.0000 
     37 OD1        10.1110    4.2590   22.4140 O.co2     7 ASP3        0.0000 
     38 OD1        11.5670    3.1580   23.6250 O.co2     7 ASP3        0.0000 
     39 O          10.4380    2.6865   22.2625 O.2       1 ALC1        0.0000 
     40 O          10.7650    1.1140   22.1110 O.2       9 ALL1        0.0000 
     41 O          11.1660    2.1360   22.8680 O.2       1 ALC1        0.0000 
     42 O          11.5670    3.1580   23.6250 O.2       5 ALP1        0.0000 
     43 CA          6.7127    6.6315   20.2290 C.3       4 GLC5        0.0000 
     44 CA          8.0960    5.7570   19.3010 C.3      12 GLL5        0.0000 
     45 CA          9.8562    5.4068   19.7722 C.3       4 GLC5        0.0000 
     46 CA          6.4487    5.9418   20.9745 C.3       4 GLC5        0.0000 
     47 CA          7.7450    4.8420   20.2820 C.3      12 GLL5        0.0000 
     48 CA          6.4215    4.0393   24.3623 C.3       4 GLC5        0.0000 
     49 CA          7.1590    4.9610   25.7570 C.3       8 GLP5        0.0000 
     50 CA          6.2797    3.2648   25.3060 C.3       4 GLC5        0.0000 
     51 CA          1.6645    1.4210   25.0435 C.3       4 GLC5        0.0000 
     52 CA          3.6740    0.9060   24.8900 C.3      12 GLL5        0.0000 
     53 CA         -0.0810    1.6090   25.7510 C.3       8 GLP5        0.0000 
     54 CA          6.0290    1.0776   19.5889 C.3       4 GLC5        0.0000 
     55 CA          6.3670    2.9600   21.1830 C.3      12 GLL5        0.0000 
     56 CA          4.8440    0.6400   18.1090 C.3       8 GLP5        0.0000 
@<TRIPOS>BOND
@<TRIPOS>SUBSTRUCTURE
     1 ALC1        1 GROUP        1 X    ALC  0     ROOT ALC X 1
     2 SEC2       11 GROUP        1 X    SEC  0     **** SEC X 2
     3 ASC3       35 GROUP        1 X    ASC  0     **** ASC X 3
     4 GLC5        4 GROUP        1 X    GLC  0     **** GLC X 6
     5 ALP1        3 GROUP        1 Y    ALP  0     ROOT ALP Y 8
     6 SEP2       13 GROUP        1 Y    SEP  0     **** SEP Y 9
     7 ASP3       37 GROUP        1 Y    ASP  0     **** ASP Y 10
     8 GLP5        6 GROUP        1 Y    GLP  0     **** GLP Y 13
     9 ALL1        2 GROUP        1 Z    ALL  0     ROOT ALL Z 15
    10 SEL2       12 GROUP        1 Z    SEL  0     **** SEL Z 16
    11 ASL3       36 GROUP        1 Z    ASL  0     **** ASL Z 17
    12 GLL5        5 GROUP        1 Z    GLL  0     **** GLL Z 20
@<TRIPOS>SET

