#    Name: 3h0b_B35_1_ligand
#    Modification time : Tue Mar 25 13:21:22 2014

@<TRIPOS>MOLECULE
3h0b_B35_1_ligand
   47    49     1     0     0
SMALL
NO_CHARGES


@<TRIPOS>ATOM
      1 C1          7.4150    5.7830   18.0910 C.ar      1 B35449      0.0000 
      2 C2          8.0960    5.7570   19.3010 C.ar      1 B35449      0.0000 
      3 C3          7.7450    4.8420   20.2820 C.ar      1 B35449      0.0000 
      4 C4          6.7100    3.9390   20.0920 C.ar      1 B35449      0.0000 
      5 N           8.6770    2.2460   21.7390 N.pl3     1 B35449      0.0000 
      6 C5          6.0310    3.9570   18.8860 C.ar      1 B35449      0.0000 
      7 C6          8.7770    7.5120   17.2400 C.3       1 B35449      0.0000 
      8 C7          6.3670    2.9600   21.1830 C.3       1 B35449      0.0000 
      9 C8          7.4550    1.9290   21.2620 C.2       1 B35449      0.0000 
     10 C           6.3830    4.8740   17.9010 C.ar      1 B35449      0.0000 
     11 O           7.6560    6.6090   17.0760 O.3       1 B35449      0.0000 
     12 F           5.7010    4.8720   16.7440 F         1 B35449      0.0000 
     13 C9          6.1120    3.5820   22.5570 C.3       1 B35449      0.0000 
     14 C10         5.2560    2.6530   23.3780 C.ar      1 B35449      0.0000 
     15 C11         5.7990    2.0000   24.4810 C.ar      1 B35449      0.0000 
     16 C12         5.0020    1.1370   25.2290 C.ar      1 B35449      0.0000 
     17 C13         3.6740    0.9060   24.8900 C.ar      1 B35449      0.0000 
     18 C14         3.1460    1.5600   23.7820 C.ar      1 B35449      0.0000 
     19 C15         3.9310    2.4260   23.0260 C.ar      1 B35449      0.0000 
     20 O16         3.4930    3.0830   21.9570 O.3       1 B35449      0.0000 
     21 C17         2.0540    3.2420   21.8410 C.3       1 B35449      0.0000 
     22 C18         9.4860    1.1680   21.7100 C.cat     1 B35449      0.0000 
     23 N19         8.7630    0.1510   21.2020 N.pl3     1 B35449      0.0000 
     24 C20         7.5170    0.5860   20.9150 C.2       1 B35449      0.0000 
     25 N21        10.7650    1.1140   22.1110 N.pl3     1 B35449      0.0000 
     26 N22         5.5240    0.5180   26.2920 N.pl3     1 B35449      0.0000 
     27 O23         6.7180    1.0200   26.7920 O.2       1 B35449      0.0000 
     28 O24         4.8430   -0.5760   26.8120 O.2       1 B35449      0.0000 
     29 H           8.8663    6.4217   19.4699 H         1 B35449      0.0000 
     30 H           8.2694    4.8328   21.1798 H         1 B35449      0.0000 
     31 H           8.9380    3.1326   22.0601 H         1 B35449      0.0000 
     32 H           5.2636    3.2918   18.7147 H         1 B35449      0.0000 
     33 H           5.4440    2.4267   20.8806 H         1 B35449      0.0000 
     34 H           5.6057    4.5329   22.4261 H         1 B35449      0.0000 
     35 H           7.0632    3.7444   23.0536 H         1 B35449      0.0000 
     36 H           6.7780    2.1530   24.7409 H         1 B35449      0.0000 
     37 H           3.0991    0.2710   25.4414 H         1 B35449      0.0000 
     38 H           2.1601    1.4017   23.5165 H         1 B35449      0.0000 
     39 H           9.0860   -0.7553   21.0629 H         1 B35449      0.0000 
     40 H           6.7993    0.0833   20.5437 H         1 B35449      0.0000 
     41 H           9.6356    7.0175   17.3752 H         1 B35449      0.0000 
     42 H           8.9002    8.1001   16.4406 H         1 B35449      0.0000 
     43 H           8.6573    8.1129   18.0303 H         1 B35449      0.0000 
     44 H           1.8015    3.7467   21.0155 H         1 B35449      0.0000 
     45 H           1.5850    2.3598   21.8001 H         1 B35449      0.0000 
     46 H           1.6717    3.7415   22.6184 H         1 B35449      0.0000 
     47 H          10.9094    1.9570   22.6292 H         1 B35449      0.0000 
@<TRIPOS>BOND
     1    2    1 ar   
     2   10    1 ar   
     3   11    1 1    
     4    3    2 ar   
     5   29    2 1    
     6    4    3 ar   
     7   30    3 1    
     8    6    4 ar   
     9    8    4 1    
    10    9    5 1    
    11   22    5 ar   
    12   31    5 1    
    13   10    6 ar   
    14   32    6 1    
    15   11    7 1    
    16   41    7 1    
    17   42    7 1    
    18   43    7 1    
    19    9    8 1    
    20   13    8 1    
    21   33    8 1    
    22   24    9 2    
    23   12   10 1    
    24   14   13 1    
    25   34   13 1    
    26   35   13 1    
    27   15   14 ar   
    28   19   14 ar   
    29   16   15 ar   
    30   36   15 1    
    31   17   16 ar   
    32   26   16 1    
    33   18   17 ar   
    34   37   17 1    
    35   19   18 ar   
    36   38   18 1    
    37   20   19 1    
    38   21   20 1    
    39   44   21 1    
    40   45   21 1    
    41   46   21 1    
    42   23   22 ar   
    43   25   22 ar   
    44   24   23 1    
    45   39   23 1    
    46   40   24 1    
    47   47   25 1    
    48   27   26 2    
    49   28   26 2    
@<TRIPOS>SUBSTRUCTURE
     1 B35449      1 GROUP   
@<TRIPOS>SET

