#    Name: 4ezl_0SE_1_INTS_M
#    Modification time : Mon Mar 24 18:48:33 2014

@<TRIPOS>MOLECULE
4ezl_0SE_1_INTS_M
   81     0     9     0     0
SMALL
NO_CHARGES


@<TRIPOS>ATOM
      1 CA         17.0255   -0.1025   14.5600 C.3       3 GLC5        0.0000 
      2 CA         15.6120    0.6580   15.7090 C.3       9 GLL5        0.0000 
      3 CA         18.4390   -0.8630   13.4110 C.3       6 GLP5        0.0000 
      4 CA         15.8430   -2.7200   19.3765 C.3       3 GLC5        0.0000 
      5 CA         16.6150   -0.9740   19.3780 C.3       9 GLL5        0.0000 
      6 CA         15.0710   -4.4660   19.3750 C.3       6 GLP5        0.0000 
      7 CA         14.1845    2.9655   20.5335 C.3       3 GLC5        0.0000 
      8 CA         14.7440    1.1720   19.4580 C.3       9 GLL5        0.0000 
      9 CA         13.6250    4.7590   21.6090 C.3       6 GLP5        0.0000 
     10 CA         20.8015   -5.3800   20.1670 C.3       3 GLC5        0.0000 
     11 CA         22.2950   -4.3720   21.3300 C.3       9 GLL5        0.0000 
     12 CA         19.3080   -6.3880   19.0040 C.3       6 GLP5        0.0000 
     13 CA         25.0490   -5.0345   17.8975 C.3       3 GLC5        0.0000 
     14 CA         24.3970   -4.5580   19.9940 C.3       9 GLL5        0.0000 
     15 CA         25.7010   -5.5110   15.8010 C.3       6 GLP5        0.0000 
     16 N          26.1415   -4.3195   18.3775 N.am      2 SEC2        0.0000 
     17 N          25.5900   -5.0930   19.8040 N.am      8 SEL2        0.0000 
     18 N          26.6930   -3.5460   16.9510 N.am      5 SEP2        0.0000 
     19 CA         25.0605   -7.3400   19.9445 C.3       3 GLC5        0.0000 
     20 CA         26.0690   -6.0040   20.6420 C.3       9 GLL5        0.0000 
     21 CA         24.0520   -8.6760   19.2470 C.3       6 GLP5        0.0000 
     22 CA         26.9950   -5.3500   21.9965 C.3       3 GLC5        0.0000 
     23 CA         27.9210   -4.6960   23.3510 C.3       6 GLP5        0.0000 
     24 N          26.1015   -5.7190   22.9950 N.am      2 SEC2        0.0000 
     25 N          25.3800   -6.4150   21.7010 N.am      8 SEL2        0.0000 
     26 N          26.8230   -5.0230   24.2890 N.am      5 SEP2        0.0000 
     27 CA         24.1715   -5.1550   23.6295 C.3       3 GLC5        0.0000 
     28 CA         24.1760   -5.9280   21.9590 C.3       9 GLL5        0.0000 
     29 CA         24.1670   -4.3820   25.3000 C.3       6 GLP5        0.0000 
     30 CA         26.0485   -5.3120   22.6550 C.3       3 GLC5        0.0000 
     31 O          28.1050   -7.3135   21.4370 O.2       1 ALC1        0.0000 
     32 O          27.3230   -6.5370   20.4040 O.2       7 ALL1        0.0000 
     33 O          28.8870   -8.0900   22.4700 O.2       4 ALP1        0.0000 
     34 CA         19.5885   -4.6570   24.5045 C.3       3 GLC5        0.0000 
     35 CA         19.7610   -6.4180   23.6370 C.3       9 GLL5        0.0000 
     36 CA         19.4160   -2.8960   25.3720 C.3       6 GLP5        0.0000 
     37 CA         21.2940   -5.5665   24.7890 C.3       3 GLC5        0.0000 
     38 CA         22.8270   -4.7150   25.9410 C.3       6 GLP5        0.0000 
     39 CA         17.4015   -8.3560   23.2305 C.3       3 GLC5        0.0000 
     40 CA         18.6300   -7.2810   24.2040 C.3       9 GLL5        0.0000 
     41 CA         16.1730   -9.4310   22.2570 C.3       6 GLP5        0.0000 
     42 CA         17.8120   -8.2445   25.7385 C.3       3 GLC5        0.0000 
     43 CA         16.9940   -9.2080   27.2730 C.3       6 GLP5        0.0000 
     44 N          16.5925   -7.6505   24.4665 N.am      2 SEC2        0.0000 
     45 N          17.4340   -6.5110   24.3620 N.am      8 SEL2        0.0000 
     46 N          15.7510   -8.7900   24.5710 N.am      5 SEP2        0.0000 
     47 CA         15.5600   -6.9510   22.4165 C.3       3 GLC5        0.0000 
     48 CA         16.8820   -5.9750   23.1520 C.3       9 GLL5        0.0000 
     49 CA         14.2380   -7.9270   21.6810 C.3       6 GLP5        0.0000 
     50 CA         15.9340   -7.4090   24.4765 C.3       3 GLC5        0.0000 
     51 CA         14.9860   -8.8430   25.8010 C.3       6 GLP5        0.0000 
     52 CA         17.3915   -4.0190   24.0370 C.3       3 GLC5        0.0000 
     53 CA         17.9010   -2.0630   24.9220 C.3       6 GLP5        0.0000 
     54 CA         18.6490   -6.0315   20.5710 C.3       3 GLC5        0.0000 
     55 CA         17.9900   -5.6750   22.1380 C.3       9 GLL5        0.0000 
     56 CA         17.0815   -7.5530   22.1975 C.3       3 GLC5        0.0000 
     57 CA         18.7030   -4.2855   23.7550 C.3       3 GLC5        0.0000 
     58 CA         17.9943   -1.4830   18.0445 C.3       3 GLC5        0.0000 
     59 CA         19.3920   -2.4780   17.2940 C.3       6 GLP5        0.0000 
     60 CA         18.5703    0.0738   22.7732 C.3       3 GLC5        0.0000 
     61 CA         18.4680   -1.3940   21.4830 C.3       9 GLL5        0.0000 
     62 CA         19.3590    1.2440   23.9320 C.3       6 GLP5        0.0000 
     63 CA         17.8412   -1.5797   23.2683 C.3       3 GLC5        0.0000 
     64 CA         19.1792   -1.7545   19.2235 C.3       3 GLC5        0.0000 
     65 CA         19.7190    0.1487   22.3190 C.3       3 GLC5        0.0000 
     66 CA         19.4650   -0.6680   20.8230 C.3       9 GLL5        0.0000 
     67 CA         20.1010   -2.1778   19.0580 C.3       3 GLC5        0.0000 
     68 CA         20.6930   -1.2250   20.5890 C.3       9 GLL5        0.0000 
     69 CA         21.9625   -2.1562   22.4240 C.3       3 GLC5        0.0000 
     70 CA         23.1150   -2.4350   24.0260 C.3       6 GLP5        0.0000 
     71 CA         19.6625   -5.1377   20.4853 C.3       3 GLC5        0.0000 
     72 CA         19.8840   -3.2070   21.7290 C.3       9 GLL5        0.0000 
     73 CA         19.7165   -3.3918   23.6692 C.3       3 GLC5        0.0000 
     74 CA         20.1500   -4.5680   22.2040 C.3       9 GLL5        0.0000 
     75 CA         21.5660   -3.1612   22.9962 C.3       3 GLC5        0.0000 
     76 CA         23.0403   -3.5520   22.6195 C.3       3 GLC5        0.0000 
     77 CA         24.0741   -7.0105   20.2495 C.3       3 GLC5        0.0000 
     78 CA         23.6360   -4.9660   21.0960 C.3       9 GLL5        0.0000 
     79 CA         19.3963   -6.3773   25.9947 C.3       3 GLC5        0.0000 
     80 CA         19.5970   -5.9050   28.0690 C.3       6 GLP5        0.0000 
     81 CA         16.2535   -5.1455   21.0100 C.3       3 GLC5        0.0000 
@<TRIPOS>BOND
@<TRIPOS>SUBSTRUCTURE
     1 ALC1       31 GROUP        1 X    ALC  0     ROOT ALC X 1
     2 SEC2       16 GROUP        1 X    SEC  0     **** SEC X 2
     3 GLC5        1 GROUP        1 X    GLC  0     **** GLC X 6
     4 ALP1       33 GROUP        1 Y    ALP  0     ROOT ALP Y 8
     5 SEP2       18 GROUP        1 Y    SEP  0     **** SEP Y 9
     6 GLP5        3 GROUP        1 Y    GLP  0     **** GLP Y 13
     7 ALL1       32 GROUP        1 Z    ALL  0     ROOT ALL Z 15
     8 SEL2       17 GROUP        1 Z    SEL  0     **** SEL Z 16
     9 GLL5        2 GROUP        1 Z    GLL  0     **** GLL Z 20
@<TRIPOS>SET

