#    Name: 4ezl_0SE_1_ligand
#    Modification time : Mon Mar 24 18:48:33 2014

@<TRIPOS>MOLECULE
4ezl_0SE_1_ligand
   67    71     1     0     0
SMALL
NO_CHARGES


@<TRIPOS>ATOM
      1 C1         15.5400    2.7060   17.1270 C.3       1 0SE1201     0.0000 
      2 C2         14.9250    1.3210   16.9080 C.3       1 0SE1201     0.0000 
      3 C3         15.6120    0.6580   15.7090 C.3       1 0SE1201     0.0000 
      4 C4         15.1210    0.4450   18.1510 C.3       1 0SE1201     0.0000 
      5 C5         16.5780   -0.0020   18.2120 C.3       1 0SE1201     0.0000 
      6 C6         16.6150   -0.9740   19.3780 C.3       1 0SE1201     0.0000 
      7 N7         16.5400   -0.1260   20.5610 N.4       1 0SE1201     0.0000 
      8 C8         15.1610    0.3680   20.7070 C.3       1 0SE1201     0.0000 
      9 C9         14.7440    1.1720   19.4580 C.3       1 0SE1201     0.0000 
     10 C10        17.0950   -0.7990   21.7460 C.3       1 0SE1201     0.0000 
     11 C11        18.4680   -1.3940   21.4830 C.ar      1 0SE1201     0.0000 
     12 C12        19.4650   -0.6680   20.8230 C.ar      1 0SE1201     0.0000 
     13 C13        20.6930   -1.2250   20.5890 C.ar      1 0SE1201     0.0000 
     14 C14        20.9270   -2.5300   21.0550 C.ar      1 0SE1201     0.0000 
     15 C15        19.8840   -3.2070   21.7290 C.ar      1 0SE1201     0.0000 
     16 N16        18.7090   -2.6110   21.9100 N.ar      1 0SE1201     0.0000 
     17 C17        20.1500   -4.5680   22.2040 C.ar      1 0SE1201     0.0000 
     18 N18        21.3620   -5.0680   21.9820 N.ar      1 0SE1201     0.0000 
     19 C19        22.2950   -4.3720   21.3300 C.ar      1 0SE1201     0.0000 
     20 N20        22.0990   -3.1480   20.8840 N.ar      1 0SE1201     0.0000 
     21 C21        23.6360   -4.9660   21.0960 C.ar      1 0SE1201     0.0000 
     22 C22        24.3970   -4.5580   19.9940 C.ar      1 0SE1201     0.0000 
     23 N23        25.5900   -5.0930   19.8040 N.ar      1 0SE1201     0.0000 
     24 C24        26.0690   -6.0040   20.6420 C.ar      1 0SE1201     0.0000 
     25 N25        25.3800   -6.4150   21.7010 N.ar      1 0SE1201     0.0000 
     26 C26        24.1760   -5.9280   21.9590 C.ar      1 0SE1201     0.0000 
     27 N27        27.3230   -6.5370   20.4040 N.pl3     1 0SE1201     0.0000 
     28 N28        19.1890   -5.2880   22.8940 N.3       1 0SE1201     0.0000 
     29 C29        19.7610   -6.4180   23.6370 C.3       1 0SE1201     0.0000 
     30 C30        18.6300   -7.2810   24.2040 C.3       1 0SE1201     0.0000 
     31 O31        17.4340   -6.5110   24.3620 O.3       1 0SE1201     0.0000 
     32 C32        16.8820   -5.9750   23.1520 C.3       1 0SE1201     0.0000 
     33 C33        17.9900   -5.6750   22.1380 C.3       1 0SE1201     0.0000 
     34 O34        13.5280    1.4410   16.6360 O.3       1 0SE1201     0.0000 
     35 H          14.5026   -0.4370   18.0545 H         1 0SE1201     0.0000 
     36 H          17.2012    0.8338   18.4158 H         1 0SE1201     0.0000 
     37 H          16.8370   -0.5039   17.3122 H         1 0SE1201     0.0000 
     38 H          17.5370   -1.5204   19.3458 H         1 0SE1201     0.0000 
     39 H          15.7686   -1.6289   19.3115 H         1 0SE1201     0.0000 
     40 H          17.1866    0.7723   20.3477 H         1 0SE1201     0.0000 
     41 H          15.0720    1.0227   21.5760 H         1 0SE1201     0.0000 
     42 H          14.4609   -0.4613   20.8248 H         1 0SE1201     0.0000 
     43 H          13.6650    1.3281   19.4797 H         1 0SE1201     0.0000 
     44 H          15.2380    2.1439   19.4797 H         1 0SE1201     0.0000 
     45 H          16.4227   -1.6082   22.0762 H         1 0SE1201     0.0000 
     46 H          17.1787   -0.0886   22.5851 H         1 0SE1201     0.0000 
     47 H          19.2591    0.2979   20.5142 H         1 0SE1201     0.0000 
     48 H          21.4257   -0.7237   20.0944 H         1 0SE1201     0.0000 
     49 H          23.9994   -3.8468   19.3597 H         1 0SE1201     0.0000 
     50 H          23.6177   -6.2286   22.7715 H         1 0SE1201     0.0000 
     51 H          27.6195   -6.5549   19.4491 H         1 0SE1201     0.0000 
     52 H          27.8243   -6.8582   21.2074 H         1 0SE1201     0.0000 
     53 H          20.3737   -6.0671   24.4668 H         1 0SE1201     0.0000 
     54 H          20.3741   -7.0405   22.9861 H         1 0SE1201     0.0000 
     55 H          18.9756   -7.6946   25.1626 H         1 0SE1201     0.0000 
     56 H          18.4801   -8.1265   23.5170 H         1 0SE1201     0.0000 
     57 H          16.3364   -5.0390   23.3364 H         1 0SE1201     0.0000 
     58 H          16.1807   -6.6781   22.6813 H         1 0SE1201     0.0000 
     59 H          18.1706   -6.5661   21.5524 H         1 0SE1201     0.0000 
     60 H          17.6592   -4.8705   21.4953 H         1 0SE1201     0.0000 
     61 H          16.5206    2.6514   17.3151 H         1 0SE1201     0.0000 
     62 H          15.4275    3.2933   16.3255 H         1 0SE1201     0.0000 
     63 H          15.1194    3.1812   17.8998 H         1 0SE1201     0.0000 
     64 H          16.5952    0.5507   15.8569 H         1 0SE1201     0.0000 
     65 H          15.2420   -0.2528   15.5259 H         1 0SE1201     0.0000 
     66 H          15.4982    1.1942   14.8726 H         1 0SE1201     0.0000 
     67 H          14.1054    2.0184   17.2134 H         1 0SE1201     0.0000 
@<TRIPOS>BOND
     1    2    1 1    
     2   61    1 1    
     3   62    1 1    
     4   63    1 1    
     5    3    2 1    
     6    4    2 1    
     7   34    2 1    
     8   64    3 1    
     9   65    3 1    
    10   66    3 1    
    11    5    4 1    
    12    9    4 1    
    13   35    4 1    
    14    6    5 1    
    15   36    5 1    
    16   37    5 1    
    17    7    6 1    
    18   38    6 1    
    19   39    6 1    
    20    8    7 1    
    21   10    7 1    
    22   40    7 1    
    23    9    8 1    
    24   41    8 1    
    25   42    8 1    
    26   43    9 1    
    27   44    9 1    
    28   11   10 1    
    29   45   10 1    
    30   46   10 1    
    31   12   11 ar   
    32   16   11 ar   
    33   13   12 ar   
    34   47   12 1    
    35   14   13 ar   
    36   48   13 1    
    37   15   14 ar   
    38   20   14 ar   
    39   16   15 ar   
    40   17   15 ar   
    41   18   17 ar   
    42   28   17 1    
    43   19   18 ar   
    44   20   19 ar   
    45   21   19 1    
    46   22   21 ar   
    47   26   21 ar   
    48   23   22 ar   
    49   49   22 1    
    50   24   23 ar   
    51   25   24 ar   
    52   27   24 1    
    53   26   25 ar   
    54   50   26 1    
    55   51   27 1    
    56   52   27 1    
    57   29   28 1    
    58   33   28 1    
    59   30   29 1    
    60   53   29 1    
    61   54   29 1    
    62   31   30 1    
    63   55   30 1    
    64   56   30 1    
    65   32   31 1    
    66   33   32 1    
    67   57   32 1    
    68   58   32 1    
    69   59   33 1    
    70   60   33 1    
    71   67   34 1    
@<TRIPOS>SUBSTRUCTURE
     1 0SE1201     1 GROUP   
@<TRIPOS>SET

