#    Name: 3b6p_TMP_2_INTS_M
#    Modification time : Mon Mar 24 19:04:23 2014

@<TRIPOS>MOLECULE
3b6p_TMP_2_INTS_M
   41     0    12     0     0
SMALL
NO_CHARGES


@<TRIPOS>ATOM
      1 N           4.0135   -0.9265   30.6420 N.am      2 SEC2        0.0000 
      2 N           2.8650   -1.7950   31.4190 N.am     10 SEL2        0.0000 
      3 N           5.1620   -0.0580   29.8650 N.am      6 SEP2        0.0000 
      4 N           5.9765   -4.0090   31.0925 N.am      2 SEC2        0.0000 
      5 N           5.0880   -2.9550   30.7770 N.am     10 SEL2        0.0000 
      6 N           6.8650   -5.0630   31.4080 N.am      6 SEP2        0.0000 
      7 N           5.1250   -1.5065   30.3210 N.am      2 SEC2        0.0000 
      8 Zn          4.8075   -3.3505   33.5165 Zn        3 ZIC7        0.0000 
      9 Zn          3.9500   -3.4030   32.8600 Zn       11 ZIL7        0.0000 
     10 Zn          5.6650   -3.2980   34.1730 Zn        7 ZIP7        0.0000 
     11 CA          1.9975   -7.0455   31.3660 C.3       4 GLC5        0.0000 
     12 CA          3.1380   -5.5720   31.0020 C.3      12 GLL5        0.0000 
     13 CA          0.8570   -8.5190   31.7300 C.3       8 GLP5        0.0000 
     14 CA          2.0290   -7.6310   30.0755 C.3       4 GLC5        0.0000 
     15 CA          3.4160   -6.3940   29.7450 C.3      12 GLL5        0.0000 
     16 CA          0.6420   -8.8680   30.4060 C.3       8 GLP5        0.0000 
     17 CA          5.7495   -7.0565   30.6955 C.3       4 GLC5        0.0000 
     18 CA          4.7270   -6.0280   29.0670 C.3      12 GLL5        0.0000 
     19 CA          6.7720   -8.0850   32.3240 C.3       8 GLP5        0.0000 
     20 N           5.9675   -8.1135   29.9290 N.am      2 SEC2        0.0000 
     21 N           5.7900   -6.8700   29.5090 N.am     10 SEL2        0.0000 
     22 N           6.1450   -9.3570   30.3490 N.am      6 SEP2        0.0000 
     23 O           6.3275   -5.9665   30.4585 O.2       1 ALC1        0.0000 
     24 O           5.7900   -6.8700   29.5090 O.2       9 ALL1        0.0000 
     25 O           6.8650   -5.0630   31.4080 O.2       5 ALP1        0.0000 
     26 CA          5.4340   -6.7115   25.9445 C.3       4 GLC5        0.0000 
     27 CA          4.4670   -6.2550   27.5940 C.3      12 GLL5        0.0000 
     28 CA          6.4010   -7.1680   24.2950 C.3       8 GLP5        0.0000 
     29 CA          1.0270   -5.9550   26.8285 C.3       4 GLC5        0.0000 
     30 CA          2.9530   -6.1530   27.4430 C.3      12 GLL5        0.0000 
     31 CA         -0.8990   -5.7570   26.2140 C.3       8 GLP5        0.0000 
     32 CA          5.0920   -4.1947   27.5668 C.3       4 GLC5        0.0000 
     33 CA          5.5870   -2.2480   26.8030 C.3       8 GLP5        0.0000 
     34 CA          6.5425   -5.5907   28.4538 C.3       4 GLC5        0.0000 
     35 CA          8.4880   -5.0400   28.5770 C.3       8 GLP5        0.0000 
     36 CA          3.3995   -7.9255   26.2503 C.3       4 GLC5        0.0000 
     37 CA          3.0890   -9.6470   24.9820 C.3       8 GLP5        0.0000 
     38 CA          0.6010   -4.4842   26.6938 C.3       4 GLC5        0.0000 
     39 CA          2.2480   -3.8130   27.4890 C.3      12 GLL5        0.0000 
     40 CA          3.7897   -2.5802   27.0894 C.3       4 GLC5        0.0000 
     41 CA          1.9540   -2.6100   26.8580 C.3      12 GLL5        0.0000 
@<TRIPOS>BOND
@<TRIPOS>SUBSTRUCTURE
     1 ALC1       23 GROUP        1 X    ALC  0     ROOT ALC X 1
     2 SEC2        1 GROUP        1 X    SEC  0     **** SEC X 2
     3 ZIC7        8 GROUP        1 X    ZIC  0     **** ZIC X 5
     4 GLC5       11 GROUP        1 X    GLC  0     **** GLC X 6
     5 ALP1       25 GROUP        1 Y    ALP  0     ROOT ALP Y 8
     6 SEP2        3 GROUP        1 Y    SEP  0     **** SEP Y 9
     7 ZIP7       10 GROUP        1 Y    ZIP  0     **** ZIP Y 12
     8 GLP5       13 GROUP        1 Y    GLP  0     **** GLP Y 13
     9 ALL1       24 GROUP        1 Z    ALL  0     ROOT ALL Z 15
    10 SEL2        2 GROUP        1 Z    SEL  0     **** SEL Z 16
    11 ZIL7        9 GROUP        1 Z    ZIL  0     **** ZIL Z 19
    12 GLL5       12 GROUP        1 Z    GLL  0     **** GLL Z 20
@<TRIPOS>SET

