#    Name: 3b6p_TMP_2_ligand
#    Modification time : Mon Mar 24 19:04:23 2014

@<TRIPOS>MOLECULE
3b6p_TMP_2_ligand
   34    35     1     0     0
SMALL
NO_CHARGES


@<TRIPOS>ATOM
      1 P           3.7370   -3.0280   31.4430 P.3       1 TMP1000     0.0000 
      2 O1P         2.8650   -1.7950   31.4190 O.co2     1 TMP1000     0.0000 
      3 O2P         5.0880   -2.9550   30.7770 O.co2     1 TMP1000     0.0000 
      4 O3P         3.9500   -3.4030   32.8600 O.co2     1 TMP1000     0.0000 
      5 O5'         2.9120   -4.1960   30.6940 O.3       1 TMP1000     0.0000 
      6 C5'         3.1380   -5.5720   31.0020 C.3       1 TMP1000     0.0000 
      7 C4'         3.4160   -6.3940   29.7450 C.3       1 TMP1000     0.0000 
      8 O4'         2.3880   -6.2200   28.7610 O.3       1 TMP1000     0.0000 
      9 C3'         4.7270   -6.0280   29.0670 C.3       1 TMP1000     0.0000 
     10 O3'         5.7900   -6.8700   29.5090 O.3       1 TMP1000     0.0000 
     11 C2'         4.4670   -6.2550   27.5940 C.3       1 TMP1000     0.0000 
     12 C1'         2.9530   -6.1530   27.4430 C.3       1 TMP1000     0.0000 
     13 N1          2.6330   -4.8810   26.7670 N.am      1 TMP1000     0.0000 
     14 C2          2.7440   -4.7850   25.3510 C.2       1 TMP1000     0.0000 
     15 O2          3.1060   -5.7780   24.6760 O.2       1 TMP1000     0.0000 
     16 N3          2.4670   -3.6380   24.7070 N.am      1 TMP1000     0.0000 
     17 C4          2.0770   -2.5440   25.3770 C.2       1 TMP1000     0.0000 
     18 O4          1.8240   -1.4860   24.7580 O.2       1 TMP1000     0.0000 
     19 C5          1.9540   -2.6100   26.8580 C.2       1 TMP1000     0.0000 
     20 C5M         1.5200   -1.4140   27.6670 C.3       1 TMP1000     0.0000 
     21 C6          2.2480   -3.8130   27.4890 C.2       1 TMP1000     0.0000 
     22 H           2.2662   -6.0225   31.5086 H         1 TMP1000     0.0000 
     23 H           3.9999   -5.6992   31.6806 H         1 TMP1000     0.0000 
     24 H           3.4782   -7.4470   30.0266 H         1 TMP1000     0.0000 
     25 H           4.9126   -4.9957   29.2221 H         1 TMP1000     0.0000 
     26 H           4.7895   -7.2316   27.3115 H         1 TMP1000     0.0000 
     27 H           4.9362   -5.4903   27.0172 H         1 TMP1000     0.0000 
     28 H           2.6338   -6.9839   26.8410 H         1 TMP1000     0.0000 
     29 H           2.5582   -3.5996   23.6598 H         1 TMP1000     0.0000 
     30 H           2.1642   -3.8674   28.5221 H         1 TMP1000     0.0000 
     31 H           1.4842   -1.6202   28.6448 H         1 TMP1000     0.0000 
     32 H           2.1452   -0.6419   27.5530 H         1 TMP1000     0.0000 
     33 H           0.6100   -1.0961   27.4010 H         1 TMP1000     0.0000 
     34 H           6.2580   -6.3444   30.2194 H         1 TMP1000     0.0000 
@<TRIPOS>BOND
     1    2    1 ar   
     2    3    1 ar   
     3    4    1 ar   
     4    5    1 1    
     5    6    5 1    
     6    7    6 1    
     7   22    6 1    
     8   23    6 1    
     9    8    7 1    
    10    9    7 1    
    11   24    7 1    
    12   12    8 1    
    13   10    9 1    
    14   11    9 1    
    15   25    9 1    
    16   34   10 1    
    17   12   11 1    
    18   26   11 1    
    19   27   11 1    
    20   13   12 1    
    21   28   12 1    
    22   14   13 am   
    23   21   13 1    
    24   15   14 2    
    25   16   14 1    
    26   17   16 am   
    27   29   16 1    
    28   18   17 2    
    29   19   17 1    
    30   20   19 1    
    31   21   19 2    
    32   31   20 1    
    33   32   20 1    
    34   33   20 1    
    35   30   21 1    
@<TRIPOS>SUBSTRUCTURE
     1 TMP1000     1 GROUP   
@<TRIPOS>SET

