#    Name: 4b71_DJL_1_INTS_M
#    Modification time : Tue Mar 25 06:49:19 2014

@<TRIPOS>MOLECULE
4b71_DJL_1_INTS_M
   49     0     6     0     0
SMALL
NO_CHARGES


@<TRIPOS>ATOM
      1 CA          5.4170   15.9590  -38.2645 C.3       2 GLC5        0.0000 
      2 CA          5.1050   14.1660  -39.2150 C.3       6 GLL5        0.0000 
      3 CA          5.7290   17.7520  -37.3140 C.3       4 GLP5        0.0000 
      4 CA          3.4075   15.4525  -38.7295 C.3       2 GLC5        0.0000 
      5 CA          1.7100   16.7390  -38.2440 C.3       4 GLP5        0.0000 
      6 CA          7.5690   15.7750  -41.4115 C.3       2 GLC5        0.0000 
      7 CA          7.0530   13.7940  -40.5790 C.3       6 GLL5        0.0000 
      8 CA          8.0850   17.7560  -42.2440 C.3       4 GLP5        0.0000 
      9 CA          7.7965   13.5190  -42.2350 C.3       2 GLC5        0.0000 
     10 CA          8.5400   13.2440  -43.8910 C.3       4 GLP5        0.0000 
     11 CA          4.7365   19.3610  -40.2500 C.3       2 GLC5        0.0000 
     12 CA          4.6360   17.4580  -40.8330 C.3       6 GLL5        0.0000 
     13 CA          4.8370   21.2640  -39.6670 C.3       4 GLP5        0.0000 
     14 CA          6.3605   17.6070  -41.5385 C.3       2 GLC5        0.0000 
     15 CA          3.7615   17.7005  -42.8630 C.3       2 GLC5        0.0000 
     16 CA          2.8870   17.9430  -44.8930 C.3       4 GLP5        0.0000 
     17 CA          5.8780   17.8530  -39.6165 C.3       2 GLC5        0.0000 
     18 CA          7.1200   18.2480  -38.4000 C.3       4 GLP5        0.0000 
     19 CA          3.1730   17.0985  -39.5385 C.3       2 GLC5        0.0000 
     20 O           1.0590   11.9675  -40.8310 O.2       1 ALC1        0.0000 
     21 O           0.5340   12.2930  -42.1410 O.2       5 ALL1        0.0000 
     22 O           1.5840   11.6420  -39.5210 O.2       3 ALP1        0.0000 
     23 CA         -0.6660   16.7080  -45.1310 C.3       2 GLC5        0.0000 
     24 CA          0.1150   14.7410  -45.0340 C.3       6 GLL5        0.0000 
     25 CA         -1.4470   18.6750  -45.2280 C.3       4 GLP5        0.0000 
     26 CA          1.5010   16.3420  -44.9635 C.3       2 GLC5        0.0000 
     27 CA          1.6685   15.0390  -46.5205 C.3       2 GLC5        0.0000 
     28 CA          3.2220   15.3370  -48.0070 C.3       4 GLP5        0.0000 
     29 CA          4.4450   11.6535  -41.7500 C.3       2 GLC5        0.0000 
     30 CA          3.1500   12.9070  -42.5370 C.3       6 GLL5        0.0000 
     31 CA          5.7400   10.4000  -40.9630 C.3       4 GLP5        0.0000 
     32 CA          6.6015   11.9138  -39.8987 C.3       2 GLC5        0.0000 
     33 CA          7.7680   13.4270  -39.4550 C.3       6 GLL5        0.0000 
     34 CA          6.3225   15.2997  -37.1020 C.3       2 GLC5        0.0000 
     35 CA          7.1580   13.4280  -38.2140 C.3       6 GLL5        0.0000 
     36 CA          6.1520   16.9870  -36.0500 C.3       4 GLP5        0.0000 
     37 CA          4.0222   13.0143  -38.0267 C.3       2 GLC5        0.0000 
     38 CA          5.8280   13.7970  -38.0940 C.3       6 GLL5        0.0000 
     39 CA          2.5780   12.0470  -37.3990 C.3       4 GLP5        0.0000 
     40 CA          5.6033   12.1908  -39.8088 C.3       2 GLC5        0.0000 
     41 CA          6.0625   12.1898  -40.7422 C.3       2 GLC5        0.0000 
     42 CA          5.7170   14.1650  -40.4640 C.3       6 GLL5        0.0000 
     43 CA          3.2668   16.8053  -43.2332 C.3       2 GLC5        0.0000 
     44 CA          3.8310   15.0160  -41.7490 C.3       6 GLL5        0.0000 
     45 CA          2.6783   16.2033  -39.9087 C.3       2 GLC5        0.0000 
     46 CA          3.4620   16.3190  -41.3980 C.3       6 GLL5        0.0000 
     47 CA          1.6850   16.5258  -39.9775 C.3       2 GLC5        0.0000 
     48 CA          2.1500   16.7420  -41.4900 C.3       6 GLL5        0.0000 
     49 CA          2.2310   16.6944  -43.4470 C.3       2 GLC5        0.0000 
@<TRIPOS>BOND
@<TRIPOS>SUBSTRUCTURE
     1 ALC1       20 GROUP        1 X    ALC  0     ROOT ALC X 1
     2 GLC5        1 GROUP        1 X    GLC  0     **** GLC X 6
     3 ALP1       22 GROUP        1 Y    ALP  0     ROOT ALP Y 8
     4 GLP5        3 GROUP        1 Y    GLP  0     **** GLP Y 13
     5 ALL1       21 GROUP        1 Z    ALL  0     ROOT ALL Z 15
     6 GLL5        2 GROUP        1 Z    GLL  0     **** GLL Z 20
@<TRIPOS>SET

