#    Name: 4b71_DJL_1_ligand
#    Modification time : Tue Mar 25 06:49:19 2014

@<TRIPOS>MOLECULE
4b71_DJL_1_ligand
   35    36     1     0     0
SMALL
NO_CHARGES


@<TRIPOS>ATOM
      1 C1          7.7680   13.4270  -39.4550 C.ar      1 DJL1721     0.0000 
      2 C2          7.1580   13.4280  -38.2140 C.ar      1 DJL1721     0.0000 
      3 C3          5.8280   13.7970  -38.0940 C.ar      1 DJL1721     0.0000 
      4 C4          5.1050   14.1660  -39.2150 C.ar      1 DJL1721     0.0000 
      5 C5          5.7170   14.1650  -40.4640 C.ar      1 DJL1721     0.0000 
      6 C6          7.0530   13.7940  -40.5790 C.ar      1 DJL1721     0.0000 
      7 O7          5.1250   14.5100  -41.6870 O.3       1 DJL1721     0.0000 
      8 C8          3.8310   15.0160  -41.7490 C.ar      1 DJL1721     0.0000 
      9 C9          3.4620   16.3190  -41.3980 C.ar      1 DJL1721     0.0000 
     10 C10         2.1500   16.7420  -41.4900 C.ar      1 DJL1721     0.0000 
     11 C11         1.1700   15.8830  -41.9320 C.ar      1 DJL1721     0.0000 
     12 C12         1.4900   14.5790  -42.2910 C.ar      1 DJL1721     0.0000 
     13 C13         2.8320   14.1670  -42.1910 C.ar      1 DJL1721     0.0000 
     14 CL1         4.6360   17.4580  -40.8330 Cl        1 DJL1721     0.0000 
     15 N20         0.5340   12.2930  -42.1410 N.4       1 DJL1721     0.0000 
     16 C22         0.1150   14.7410  -45.0340 C.3       1 DJL1721     0.0000 
     17 C23         0.4300   13.4730  -44.2950 C.3       1 DJL1721     0.0000 
     18 F23         3.1500   12.9070  -42.5370 F         1 DJL1721     0.0000 
     19 C30         0.4080   13.6340  -42.7790 C.3       1 DJL1721     0.0000 
     20 H           8.7586   13.1517  -39.5413 H         1 DJL1721     0.0000 
     21 H           7.6927   13.1539  -37.3761 H         1 DJL1721     0.0000 
     22 H           5.3762   13.7965  -37.1669 H         1 DJL1721     0.0000 
     23 H           4.1181   14.4406  -39.1280 H         1 DJL1721     0.0000 
     24 H           7.5053   13.7943  -41.5042 H         1 DJL1721     0.0000 
     25 H           1.9050   17.7120  -41.2241 H         1 DJL1721     0.0000 
     26 H           0.1901   16.2030  -41.9995 H         1 DJL1721     0.0000 
     27 H           1.4266   13.1079  -44.5961 H         1 DJL1721     0.0000 
     28 H          -0.2957   12.6913  -44.5768 H         1 DJL1721     0.0000 
     29 H          -0.5653   14.0555  -42.5062 H         1 DJL1721     0.0000 
     30 H           1.1226   11.6831  -42.6716 H         1 DJL1721     0.0000 
     31 H           0.9264   12.3537  -41.2232 H         1 DJL1721     0.0000 
     32 H          -0.3528   11.8396  -42.0513 H         1 DJL1721     0.0000 
     33 H           0.7702   15.4664  -44.8230 H         1 DJL1721     0.0000 
     34 H           0.1342   14.6079  -46.0249 H         1 DJL1721     0.0000 
     35 H          -0.7932   15.0899  -44.8027 H         1 DJL1721     0.0000 
@<TRIPOS>BOND
     1    2    1 ar   
     2    6    1 ar   
     3   20    1 1    
     4    3    2 ar   
     5   21    2 1    
     6    4    3 ar   
     7   22    3 1    
     8    5    4 ar   
     9   23    4 1    
    10    6    5 ar   
    11    7    5 1    
    12   24    6 1    
    13    8    7 1    
    14    9    8 ar   
    15   13    8 ar   
    16   10    9 ar   
    17   14    9 1    
    18   11   10 ar   
    19   25   10 1    
    20   12   11 ar   
    21   26   11 1    
    22   13   12 ar   
    23   19   12 1    
    24   18   13 1    
    25   19   15 1    
    26   30   15 1    
    27   31   15 1    
    28   32   15 1    
    29   17   16 1    
    30   33   16 1    
    31   34   16 1    
    32   35   16 1    
    33   19   17 1    
    34   27   17 1    
    35   28   17 1    
    36   29   19 1    
@<TRIPOS>SUBSTRUCTURE
     1 DJL1721     1 GROUP   
@<TRIPOS>SET

