#    Name: 2ISL_8_CAVITY_N1_ALL.mol2
#    Modification time : Mon Mar 10 20:04:06 2014

@<TRIPOS>MOLECULE
2ISL_8_CAVITY_N1_ALL.mol2
   56     0     6     0     0
SMALL
NO_CHARGES


@<TRIPOS>ATOM
      1 CA         45.1653   49.5425    5.5915 C.3       5 GLY6        0.0000 
      2 NZ         45.8776   47.8333    4.5564 N.2       3 LYS4        0.0000 
      3 NZ         45.1633   49.0916    4.1609 N.2       3 LYS4        0.0000 
      4 N          45.8756   47.3825    3.1258 N.2       2 ALA2        0.0000 
      5 CA         45.1614   48.6408    2.7302 C.3       5 GLY6        0.0000 
      6 CA         44.4471   49.8991    2.3347 C.3       5 GLY6        0.0000 
      7 N          45.8736   46.9316    1.6951 N.2       2 ALA2        0.0000 
      8 CA         45.1594   48.1899    1.2996 C.3       5 GLY6        0.0000 
      9 OG         45.1574   47.7391   -0.1311 O.2       1 SER1        0.0000 
     10 NZ         44.5605   47.6034    6.2034 N.2       3 LYS4        0.0000 
     11 CA         43.8463   48.8617    5.8078 C.3       5 GLY6        0.0000 
     12 NZ         44.5586   47.1526    4.7728 N.2       3 LYS4        0.0000 
     13 CA         43.8443   48.4109    4.3772 C.3       5 GLY6        0.0000 
     14 N          43.1300   49.6692    3.9817 N.2       2 ALA2        0.0000 
     15 CA         44.5566   46.7017    3.3421 C.3       5 GLY6        0.0000 
     16 CA         43.8423   47.9601    2.9466 C.3       5 GLY6        0.0000 
     17 CA         44.5546   46.2509    1.9115 C.3       5 GLY6        0.0000 
     18 CA         43.8404   47.5092    1.5159 C.3       5 GLY6        0.0000 
     19 CA         41.2063   47.0495    4.8099 C.3       5 GLY6        0.0000 
     20 O          40.4920   48.3078    4.4143 O.2       2 ALA2        0.0000 
     21 CZ         41.2043   46.5986    3.3792 C.ar      4 PHE5        0.0000 
     22 OG         40.4900   47.8569    2.9837 O.2       1 SER1        0.0000 
     23 CZ         41.2023   46.1478    1.9486 C.ar      4 PHE5        0.0000 
     24 OG         40.4880   47.4061    1.5530 O.2       1 SER1        0.0000 
     25 O          46.4823   49.7723    3.9445 O.2       2 ALA2        0.0000 
     26 N          45.7681   51.0307    3.5490 N.2       2 ALA2        0.0000 
     27 N          47.1946   48.0632    2.9094 N.2       2 ALA2        0.0000 
     28 DU         46.4804   49.3215    2.5139 H         6 CUB7        0.0000 
     29 O          45.7661   50.5798    2.1183 O.2       2 ALA2        0.0000 
     30 N          47.1927   47.6123    1.4788 N.2       2 ALA2        0.0000 
     31 DU         46.4784   48.8707    1.0833 H         6 CUB7        0.0000 
     32 O          45.7641   50.1290    0.6877 O.2       2 ALA2        0.0000 
     33 OG         47.1907   47.1615    0.0482 O.2       1 SER1        0.0000 
     34 OG         46.4764   48.4198   -0.3474 O.2       1 SER1        0.0000 
     35 CA         49.8327   49.4246    2.4768 C.3       5 GLY6        0.0000 
     36 CA         49.1184   50.6829    2.0812 C.3       5 GLY6        0.0000 
     37 CA         49.8307   48.9738    1.0461 C.3       5 GLY6        0.0000 
     38 CA         49.1165   50.2321    0.6506 C.3       5 GLY6        0.0000 
     39 CA         42.5253   47.7302    4.5935 C.3       5 GLY6        0.0000 
     40 CA         43.2376   46.0210    3.5584 C.3       5 GLY6        0.0000 
     41 CZ         42.5233   47.2793    3.1629 C.ar      4 PHE5        0.0000 
     42 O          41.8090   48.5377    2.7673 O.2       2 ALA2        0.0000 
     43 CZ         42.5213   46.8285    1.7322 C.ar      4 PHE5        0.0000 
     44 O          41.8071   48.0868    1.3367 O.2       2 ALA2        0.0000 
     45 O          47.0871   51.7114    3.3327 O.2       2 ALA2        0.0000 
     46 NZ         48.5137   48.7439    2.6931 N.2       3 LYS4        0.0000 
     47 O          47.7994   50.0022    2.2976 O.2       2 ALA2        0.0000 
     48 O          47.0851   51.2605    1.9020 O.2       2 ALA2        0.0000 
     49 N          49.2260   47.0347    1.6580 N.2       2 ALA2        0.0000 
     50 CA         48.5117   48.2931    1.2625 C.3       5 GLY6        0.0000 
     51 CA         47.7974   49.5514    0.8669 C.3       5 GLY6        0.0000 
     52 CA         47.0832   50.8097    0.4714 C.3       5 GLY6        0.0000 
     53 CA         48.5097   47.8422   -0.1682 C.3       5 GLY6        0.0000 
     54 CA         47.7955   49.1005   -0.5637 C.3       5 GLY6        0.0000 
     55 CZ         39.8853   45.9179    3.5955 C.ar      4 PHE5        0.0000 
     56 CA         39.1710   47.1762    3.2000 C.3       5 GLY6        0.0000 
@<TRIPOS>BOND
@<TRIPOS>SUBSTRUCTURE
     1 SER1        9 GROUP   
     2 ALA2        4 GROUP   
     3 LYS4        2 GROUP   
     4 PHE5       21 GROUP   
     5 GLY6        1 GROUP   
     6 CUB7       28 GROUP   
@<TRIPOS>SET

