#    Name: 2isl_FNR_8_INTS_M
#    Modification time : Tue Mar 25 18:39:08 2014

@<TRIPOS>MOLECULE
2isl_FNR_8_INTS_M
   91     0    12     0     0
SMALL
NO_CHARGES


@<TRIPOS>ATOM
      1 O          48.0945   48.0870    4.5520 O.2       1 ALC1        0.0000 
      2 O          47.9400   48.3330    3.0650 O.2       9 ALL1        0.0000 
      3 O          48.2490   47.8410    6.0390 O.2       5 ALP1        0.0000 
      4 N          50.3240   48.8940    4.3910 N.am      2 SEC2        0.0000 
      5 N          50.1830   48.2810    2.9190 N.am     10 SEL2        0.0000 
      6 N          50.4650   49.5070    5.8630 N.am      6 SEP2        0.0000 
      7 O          50.5735   46.6330    1.6200 O.2       1 ALC1        0.0000 
      8 O          49.0390   47.2440    1.2190 O.2       9 ALL1        0.0000 
      9 O          52.1080   46.0220    2.0210 O.2       5 ALP1        0.0000 
     10 N          47.2855   45.0700   -0.6795 N.am      2 SEC2        0.0000 
     11 N          47.8670   46.1500   -0.4490 N.am     10 SEL2        0.0000 
     12 N          46.7040   43.9900   -0.9100 N.am      6 SEP2        0.0000 
     13 N          46.4055   46.1010   -1.2065 N.am      2 SEC2        0.0000 
     14 N          44.9440   46.0520   -1.9640 N.am      6 SEP2        0.0000 
     15 CA         47.3380   45.2140    1.1275 C.3       4 GLC5        0.0000 
     16 CA         46.5720   47.2020    1.3270 C.3      12 GLL5        0.0000 
     17 CA         48.1040   43.2260    0.9280 C.3       8 GLP5        0.0000 
     18 O          45.1535   46.4190   -0.5370 O.2       1 ALC1        0.0000 
     19 O          45.3630   46.7860    0.8900 O.2       9 ALL1        0.0000 
     20 O          44.9440   46.0520   -1.9640 O.2       5 ALP1        0.0000 
     21 CA         43.8485   48.3900    0.1060 C.3       4 GLC5        0.0000 
     22 CA         44.2400   47.0140    1.6500 C.3      12 GLL5        0.0000 
     23 CA         43.4570   49.7660   -1.4380 C.3       8 GLP5        0.0000 
     24 CA         40.9160   44.9030    0.1325 C.3       4 GLC5        0.0000 
     25 CA         40.5240   46.0300    1.5050 C.3      12 GLL5        0.0000 
     26 CA         41.3080   43.7760   -1.2400 C.3       8 GLP5        0.0000 
     27 CA         38.7360   45.4080    0.8425 C.3       4 GLC5        0.0000 
     28 CA         36.9480   44.7860    0.1800 C.3       8 GLP5        0.0000 
     29 CA         40.5780   44.3345    1.5825 C.3       4 GLC5        0.0000 
     30 CA         40.6320   42.6390    1.6600 C.3       8 GLP5        0.0000 
     31 CA         38.7480   48.2575    3.1650 C.3       4 GLC5        0.0000 
     32 CA         40.5510   47.8980    3.8360 C.3      12 GLL5        0.0000 
     33 CA         36.9450   48.6170    2.4940 C.3       8 GLP5        0.0000 
     34 CA         39.0375   46.7530    4.8465 C.3       4 GLC5        0.0000 
     35 CA         37.5240   45.6080    5.8570 C.3       8 GLP5        0.0000 
     36 N          42.3815   50.6355    5.6755 N.am      2 SEC2        0.0000 
     37 N          43.8020   50.2440    6.2730 N.am     10 SEL2        0.0000 
     38 N          40.9610   51.0270    5.0780 N.am      6 SEP2        0.0000 
     39 CA         44.3550   54.2540    5.0585 C.3       4 GLC5        0.0000 
     40 CA         44.5320   52.5060    5.8990 C.3      12 GLL5        0.0000 
     41 CA         44.1780   56.0020    4.2180 C.3       8 GLP5        0.0000 
     42 CA         43.5345   54.6115    6.7830 C.3       4 GLC5        0.0000 
     43 CA         44.4170   53.0130    7.3560 C.3      12 GLL5        0.0000 
     44 CA         42.6520   56.2100    6.2100 C.3       8 GLP5        0.0000 
     45 CA         45.0265   54.4030    8.3890 C.3       4 GLC5        0.0000 
     46 CA         45.6360   55.7930    9.4220 C.3       8 GLP5        0.0000 
     47 NZ         45.9485   52.4485   11.2015 N.4       3 LYC4        0.0000 
     48 NZ         45.9210   52.6140    9.7240 N.4      11 LYL4        0.0000 
     49 NZ         45.1920   52.9380   13.5260 N.4       7 LYP4        0.0000 
     50 N          45.9485   52.4485   11.2015 N.am      2 SEC2        0.0000 
     51 N          45.9210   52.6140    9.7240 N.am     10 SEL2        0.0000 
     52 N          45.9760   52.2830   12.6790 N.am      6 SEP2        0.0000 
     53 NZ         43.5190   50.4135   10.4185 N.4       3 LYC4        0.0000 
     54 NZ         45.1670   50.2760    9.5460 N.4      11 LYL4        0.0000 
     55 NZ         42.2660   48.6850   11.0490 N.4       7 LYP4        0.0000 
     56 N          46.0360   49.4180    9.9595 N.am      2 SEC2        0.0000 
     57 N          45.1670   50.2760    9.5460 N.am     10 SEL2        0.0000 
     58 N          46.9050   48.5600   10.3730 N.am      6 SEP2        0.0000 
     59 NZ         42.7580   50.8115   11.1710 N.4       3 LYC4        0.0000 
     60 NZ         43.9100   51.9210   10.7670 N.4      11 LYL4        0.0000 
     61 NZ         43.9085   52.5120   12.0150 N.4       3 LYC4        0.0000 
     62 N          42.7580   50.8115   11.1710 N.am      2 SEC2        0.0000 
     63 N          43.9100   51.9210   10.7670 N.am     10 SEL2        0.0000 
     64 N          41.6060   49.7020   11.5750 N.am      6 SEP2        0.0000 
     65 N          43.5190   50.4135   10.4185 N.am      2 SEC2        0.0000 
     66 N          43.1280   48.9060   10.0700 N.am      6 SEP2        0.0000 
     67 N          44.9430   52.1020   11.7230 N.am      2 SEC2        0.0000 
     68 N          43.9085   52.5120   12.0150 N.am      2 SEC2        0.0000 
     69 N          43.9070   53.1030   13.2630 N.am      6 SEP2        0.0000 
     70 CA         44.1465   45.6905   -0.3228 C.3       4 GLC5        0.0000 
     71 CA         44.6800   44.6670   -2.0950 C.3       8 GLP5        0.0000 
     72 CA         42.3233   48.3265    0.4878 C.3       4 GLC5        0.0000 
     73 CA         42.9860   46.4140    1.2490 C.3      12 GLL5        0.0000 
     74 CA         42.2500   50.1110   -0.6160 C.3       8 GLP5        0.0000 
     75 CA         42.0827   46.4300   -0.3092 C.3       4 GLC5        0.0000 
     76 CA         41.7690   46.3180   -2.2100 C.3       8 GLP5        0.0000 
     77 CA         44.2061   45.4501    2.9247 C.3       4 GLC5        0.0000 
     78 CA         44.7930   43.9750    4.1070 C.3       8 GLP5        0.0000 
     79 CA         42.7115   49.3225    1.9056 C.3       4 GLC5        0.0000 
     80 CA         41.8210   47.5500    3.0910 C.3      12 GLL5        0.0000 
     81 CA         42.6850   50.8840    0.6760 C.3       8 GLP5        0.0000 
     82 CA         41.6938   48.3567    5.3791 C.3       4 GLC5        0.0000 
     83 CA         43.0450   48.0850    3.5370 C.3      12 GLL5        0.0000 
     84 CA         41.2720   48.8090    7.2580 C.3       8 GLP5        0.0000 
     85 CA         41.3242   49.6672    3.6231 C.3       4 GLC5        0.0000 
     86 CA         40.5330   51.4300    3.7460 C.3       8 GLP5        0.0000 
     87 CA         46.0451   49.3391    6.5475 C.3       4 GLC5        0.0000 
     88 CA         44.9340   51.0090    5.8400 C.3      12 GLL5        0.0000 
     89 CA         46.8720   48.2930    7.9220 C.3       8 GLP5        0.0000 
     90 CA         46.4248   53.3422    6.0247 C.3       4 GLC5        0.0000 
     91 CA         48.3750   53.9250    5.4220 C.3       8 GLP5        0.0000 
@<TRIPOS>BOND
@<TRIPOS>SUBSTRUCTURE
     1 ALC1        1 GROUP        1 X    ALC  0     ROOT ALC X 1
     2 SEC2        4 GROUP        1 X    SEC  0     **** SEC X 2
     3 LYC4       47 GROUP        1 X    LYC  0     **** LYC X 4
     4 GLC5       15 GROUP        1 X    GLC  0     **** GLC X 6
     5 ALP1        3 GROUP        1 Y    ALP  0     ROOT ALP Y 8
     6 SEP2        6 GROUP        1 Y    SEP  0     **** SEP Y 9
     7 LYP4       49 GROUP        1 Y    LYP  0     **** LYP Y 11
     8 GLP5       17 GROUP        1 Y    GLP  0     **** GLP Y 13
     9 ALL1        2 GROUP        1 Z    ALL  0     ROOT ALL Z 15
    10 SEL2        5 GROUP        1 Z    SEL  0     **** SEL Z 16
    11 LYL4       48 GROUP        1 Z    LYL  0     **** LYL Z 18
    12 GLL5       16 GROUP        1 Z    GLL  0     **** GLL Z 20
@<TRIPOS>SET

