#    Name: 2isl_FNR_8_ligand
#    Modification time : Tue Mar 25 18:39:08 2014

@<TRIPOS>MOLECULE
2isl_FNR_8_ligand
   52    54     1     0     0
SMALL
NO_CHARGES


@<TRIPOS>ATOM
      1 C9A        44.2650   47.8590    2.8220 C.ar      1 FNR507      0.0000 
      2 N10        45.5460   48.2910    3.2660 N.pl3     1 FNR507      0.0000 
      3 CAA        46.7400   48.0060    2.5610 C.2       1 FNR507      0.0000 
      4 N1         47.9400   48.3330    3.0650 N.am      1 FNR507      0.0000 
      5 C2         49.1150   47.9810    2.4490 C.2       1 FNR507      0.0000 
      6 O2         50.1830   48.2810    2.9190 O.2       1 FNR507      0.0000 
      7 N3         49.0390   47.2440    1.2190 N.am      1 FNR507      0.0000 
      8 C4         47.8470   46.8050    0.6060 C.2       1 FNR507      0.0000 
      9 O4         47.8670   46.1500   -0.4490 O.2       1 FNR507      0.0000 
     10 C4A        46.5720   47.2020    1.3270 C.2       1 FNR507      0.0000 
     11 N5         45.3630   46.7860    0.8900 N.pl3     1 FNR507      0.0000 
     12 C5A        44.2400   47.0140    1.6500 C.ar      1 FNR507      0.0000 
     13 C6         42.9860   46.4140    1.2490 C.ar      1 FNR507      0.0000 
     14 C7         41.8070   46.6700    1.9340 C.ar      1 FNR507      0.0000 
     15 C7M        40.5240   46.0300    1.5050 C.3       1 FNR507      0.0000 
     16 C8         41.8210   47.5500    3.0910 C.ar      1 FNR507      0.0000 
     17 C8M        40.5510   47.8980    3.8360 C.3       1 FNR507      0.0000 
     18 C9         43.0450   48.0850    3.5370 C.ar      1 FNR507      0.0000 
     19 C1'        45.6390   49.0050    4.5460 C.3       1 FNR507      0.0000 
     20 C2'        45.3660   50.5180    4.4660 C.3       1 FNR507      0.0000 
     21 O2'        46.5280   51.2020    4.0350 O.3       1 FNR507      0.0000 
     22 C3'        44.9340   51.0090    5.8400 C.3       1 FNR507      0.0000 
     23 O3'        43.8020   50.2440    6.2730 O.3       1 FNR507      0.0000 
     24 C4'        44.5320   52.5060    5.8990 C.3       1 FNR507      0.0000 
     25 O4'        45.5150   53.2940    5.2410 O.3       1 FNR507      0.0000 
     26 C5'        44.4170   53.0130    7.3560 C.3       1 FNR507      0.0000 
     27 O5'        44.0700   51.9380    8.2210 O.3       1 FNR507      0.0000 
     28 P          44.8110   51.7010    9.5960 P.3       1 FNR507      0.0000 
     29 O1P        45.9210   52.6140    9.7240 O.co2     1 FNR507      0.0000 
     30 O2P        45.1670   50.2760    9.5460 O.co2     1 FNR507      0.0000 
     31 O3P        43.9100   51.9210   10.7670 O.co2     1 FNR507      0.0000 
     32 H          47.9961   48.8798    3.9659 H         1 FNR507      0.0000 
     33 H          49.9535   47.0176    0.7433 H         1 FNR507      0.0000 
     34 H          45.2706   46.2930   -0.0187 H         1 FNR507      0.0000 
     35 H          42.9953   45.7853    0.4321 H         1 FNR507      0.0000 
     36 H          43.0740   48.6526    4.3950 H         1 FNR507      0.0000 
     37 H          46.6486   48.8693    4.9922 H         1 FNR507      0.0000 
     38 H          44.9257   48.5737    5.2822 H         1 FNR507      0.0000 
     39 H          44.5385   50.6607    3.7848 H         1 FNR507      0.0000 
     40 H          45.7572   50.8650    6.5378 H         1 FNR507      0.0000 
     41 H          43.5673   52.6150    5.4339 H         1 FNR507      0.0000 
     42 H          43.6636   53.8095    7.3631 H         1 FNR507      0.0000 
     43 H          45.3820   53.4614    7.6199 H         1 FNR507      0.0000 
     44 H          40.2818   46.2762    0.5665 H         1 FNR507      0.0000 
     45 H          40.5762   45.0321    1.5420 H         1 FNR507      0.0000 
     46 H          39.7589   46.3053    2.0870 H         1 FNR507      0.0000 
     47 H          40.7283   48.5106    4.6063 H         1 FNR507      0.0000 
     48 H          39.8870   48.3554    3.2446 H         1 FNR507      0.0000 
     49 H          40.1025   47.0843    4.2058 H         1 FNR507      0.0000 
     50 H          46.4365   52.1263    4.4056 H         1 FNR507      0.0000 
     51 H          43.5631   50.6197    7.1684 H         1 FNR507      0.0000 
     52 H          45.0960   53.5577    4.3721 H         1 FNR507      0.0000 
@<TRIPOS>BOND
     1    2    1 1    
     2   12    1 ar   
     3   18    1 ar   
     4    3    2 1    
     5   19    2 1    
     6    4    3 1    
     7   10    3 2    
     8    5    4 am   
     9   32    4 1    
    10    6    5 2    
    11    7    5 am   
    12    8    7 am   
    13   33    7 1    
    14    9    8 2    
    15   10    8 1    
    16   11   10 1    
    17   12   11 1    
    18   34   11 1    
    19   13   12 ar   
    20   14   13 ar   
    21   35   13 1    
    22   15   14 1    
    23   16   14 ar   
    24   44   15 1    
    25   45   15 1    
    26   46   15 1    
    27   17   16 1    
    28   18   16 ar   
    29   47   17 1    
    30   48   17 1    
    31   49   17 1    
    32   36   18 1    
    33   20   19 1    
    34   37   19 1    
    35   38   19 1    
    36   21   20 1    
    37   22   20 1    
    38   39   20 1    
    39   50   21 1    
    40   23   22 1    
    41   24   22 1    
    42   40   22 1    
    43   51   23 1    
    44   25   24 1    
    45   26   24 1    
    46   41   24 1    
    47   52   25 1    
    48   27   26 1    
    49   42   26 1    
    50   43   26 1    
    51   28   27 1    
    52   29   28 ar   
    53   30   28 ar   
    54   31   28 ar   
@<TRIPOS>SUBSTRUCTURE
     1 FNR507      1 GROUP   
@<TRIPOS>SET

