#    Name: 4gh2_HK0_1_INTS_M
#    Modification time : Mon Mar 24 22:11:58 2014

@<TRIPOS>MOLECULE
4gh2_HK0_1_INTS_M
   75     0    12     0     0
SMALL
NO_CHARGES


@<TRIPOS>ATOM
      1 N          16.6750   -0.4760    8.2975 N.am      2 SEC2        0.0000 
      2 N          16.5070   -1.7250    8.8580 N.am     10 SEL2        0.0000 
      3 N          16.8430    0.7730    7.7370 N.am      6 SEP2        0.0000 
      4 CA         15.6490   -9.5860   11.2495 C.3       4 GLC5        0.0000 
      5 CA         14.7180   -7.9570   12.3860 C.3      12 GLL5        0.0000 
      6 CA         16.5800  -11.2150   10.1130 C.3       8 GLP5        0.0000 
      7 N           9.5175   -9.0980   14.0725 N.am      2 SEC2        0.0000 
      8 N          10.8310   -9.6040   14.2520 N.am     10 SEL2        0.0000 
      9 N           8.2040   -8.5920   13.8930 N.am      6 SEP2        0.0000 
     10 N           9.5045   -9.7215   15.3860 N.am      2 SEC2        0.0000 
     11 N           8.1780   -9.8390   16.5200 N.am      6 SEP2        0.0000 
     12 N          13.0565   -9.2385   16.3435 N.am      2 SEC2        0.0000 
     13 N          12.5840  -10.1410   15.1960 N.am     10 SEL2        0.0000 
     14 N          13.5290   -8.3360   17.4910 N.am      6 SEP2        0.0000 
     15 CA         10.1950   -7.7030   12.3080 C.3       4 GLC5        0.0000 
     16 CA         12.1310   -7.2280   13.1430 C.3      12 GLL5        0.0000 
     17 CA          8.2590   -8.1780   11.4730 C.3       8 GLP5        0.0000 
     18 CA         11.5480   -6.4275   15.0365 C.3       4 GLC5        0.0000 
     19 CA         10.9650   -5.6270   16.9300 C.3       8 GLP5        0.0000 
     20 N           9.5335   -7.7645   13.7355 N.am      2 SEC2        0.0000 
     21 N          10.8630   -6.9370   13.5780 N.am     10 SEL2        0.0000 
     22 CA          9.2565   -6.9520   12.3045 C.3       4 GLC5        0.0000 
     23 CA         10.2540   -5.7260   13.1360 C.3      12 GLL5        0.0000 
     24 CA          9.6490   -4.7985   11.5135 C.3       4 GLC5        0.0000 
     25 CA          9.0440   -3.8710    9.8910 C.3       8 GLP5        0.0000 
     26 CA         10.1265   -5.0985   14.8550 C.3       4 GLC5        0.0000 
     27 CA          9.9990   -4.4710   16.5740 C.3       8 GLP5        0.0000 
     28 O          18.8270   -5.7930   12.3085 O.2       1 ALC1        0.0000 
     29 O          18.5960   -4.9410   10.8130 O.2       9 ALL1        0.0000 
     30 O          19.0580   -6.6450   13.8040 O.2       5 ALP1        0.0000 
     31 O          19.0790   -1.3830    8.8240 O.2       1 ALC1        0.0000 
     32 O          18.5550   -2.5860    9.1070 O.2       9 ALL1        0.0000 
     33 O          19.6030   -0.1800    8.5410 O.2       5 ALP1        0.0000 
     34 CA         21.1835   -6.0300   12.6890 C.3       4 GLC5        0.0000 
     35 CA         21.8190   -7.2350   11.2550 C.3      12 GLL5        0.0000 
     36 CA         20.5480   -4.8250   14.1230 C.3       8 GLP5        0.0000 
     37 OD1        21.2065   -8.1985   13.8150 O.co2     3 ASC3        0.0000 
     38 OD1        21.7040   -9.4720   12.3960 O.co2    11 ASL3        0.0000 
     39 OD1        20.7090   -6.9250   15.2340 O.co2     7 ASP3        0.0000 
     40 CA         16.1680   -4.6525    7.9437 C.3       4 GLC5        0.0000 
     41 CA         16.5730   -3.8980    9.7600 C.3      12 GLL5        0.0000 
     42 CA         16.4520   -5.3650    6.2170 C.3       8 GLP5        0.0000 
     43 CA         15.8180   -2.8470   11.0392 C.3       4 GLC5        0.0000 
     44 CA         15.7520   -1.7540   12.4080 C.3       8 GLP5        0.0000 
     45 CA         13.8682   -3.8880    8.2880 C.3       4 GLC5        0.0000 
     46 CA         14.4360   -4.8760   10.3050 C.3      12 GLL5        0.0000 
     47 CA         12.9210   -3.3470    6.6330 C.3       8 GLP5        0.0000 
     48 CA         15.2400   -3.5323   11.5853 C.3       4 GLC5        0.0000 
     49 CA         13.9659   -6.2035    9.3122 C.3       4 GLC5        0.0000 
     50 CA         15.1950   -3.9820    9.5810 C.3      12 GLL5        0.0000 
     51 CA         13.0140   -7.3200    8.0430 C.3       8 GLP5        0.0000 
     52 CA         13.3970   -8.1638   10.9802 C.3       4 GLC5        0.0000 
     53 CA         14.1940   -6.7380   11.9550 C.3      12 GLL5        0.0000 
     54 CA         12.3380   -8.9800    9.7900 C.3       8 GLP5        0.0000 
     55 CA         12.8345   -8.8117   11.5680 C.3       4 GLC5        0.0000 
     56 CA         13.9760   -8.8280   13.1620 C.3      12 GLL5        0.0000 
     57 CA         12.4277   -7.8945   11.2715 C.3       4 GLC5        0.0000 
     58 CA         16.9462   -6.3658    9.1937 C.3       4 GLC5        0.0000 
     59 CA         16.4140   -5.7300   11.3280 C.3      12 GLL5        0.0000 
     60 CA         17.0850   -7.4550    7.4130 C.3       8 GLP5        0.0000 
     61 CA         16.2797   -3.5152   11.6913 C.3       4 GLC5        0.0000 
     62 CA         17.2010   -4.8230   10.6210 C.3      12 GLL5        0.0000 
     63 CA         19.1962   -5.1815    7.7212 C.3       4 GLC5        0.0000 
     64 CA         19.6500   -4.6700    9.8930 C.3      12 GLL5        0.0000 
     65 CA         18.7800   -6.2490    5.9730 C.3       8 GLP5        0.0000 
     66 CA         20.8968   -2.9905   10.2068 C.3       4 GLC5        0.0000 
     67 CA         19.5750   -3.5580    9.0460 C.3      12 GLL5        0.0000 
     68 CA         22.1810   -1.8670   10.9440 C.3       8 GLP5        0.0000 
     69 CA         20.3707   -4.9703   11.9957 C.3       4 GLC5        0.0000 
     70 CA         19.9672   -5.0267    7.0403 C.3       4 GLC5        0.0000 
     71 CA         20.6190   -3.3640    8.1350 C.3      12 GLL5        0.0000 
     72 CA         21.6677   -2.8357    9.5258 C.3       4 GLC5        0.0000 
     73 CA         20.0128   -5.8505    7.6780 C.3       4 GLC5        0.0000 
     74 CA         21.7540   -5.3430    8.9220 C.3      12 GLL5        0.0000 
     75 CA         21.7133   -3.6595   10.1635 C.3       4 GLC5        0.0000 
@<TRIPOS>BOND
@<TRIPOS>SUBSTRUCTURE
     1 ALC1       28 GROUP        1 X    ALC  0     ROOT ALC X 1
     2 SEC2        1 GROUP        1 X    SEC  0     **** SEC X 2
     3 ASC3       37 GROUP        1 X    ASC  0     **** ASC X 3
     4 GLC5        4 GROUP        1 X    GLC  0     **** GLC X 6
     5 ALP1       30 GROUP        1 Y    ALP  0     ROOT ALP Y 8
     6 SEP2        3 GROUP        1 Y    SEP  0     **** SEP Y 9
     7 ASP3       39 GROUP        1 Y    ASP  0     **** ASP Y 10
     8 GLP5        6 GROUP        1 Y    GLP  0     **** GLP Y 13
     9 ALL1       29 GROUP        1 Z    ALL  0     ROOT ALL Z 15
    10 SEL2        2 GROUP        1 Z    SEL  0     **** SEL Z 16
    11 ASL3       38 GROUP        1 Z    ASL  0     **** ASL Z 17
    12 GLL5        5 GROUP        1 Z    GLL  0     **** GLL Z 20
@<TRIPOS>SET

