#    Name: 4gh2_HK0_1_ligand
#    Modification time : Mon Mar 24 22:11:58 2014

@<TRIPOS>MOLECULE
4gh2_HK0_1_ligand
   63    67     1     0     0
SMALL
NO_CHARGES


@<TRIPOS>ATOM
      1 O6         16.5070   -1.7250    8.8580 O.2       1 HK0301      0.0000 
      2 C22        17.2130   -2.6770    9.1820 C.2       1 HK0301      0.0000 
      3 C10        16.5730   -3.8980    9.7600 C.ar      1 HK0301      0.0000 
      4 C11        15.1950   -3.9820    9.5810 C.ar      1 HK0301      0.0000 
      5 C12        14.4360   -4.8760   10.3050 C.ar      1 HK0301      0.0000 
      6 C13        15.0200   -5.7450   11.2200 C.ar      1 HK0301      0.0000 
      7 C15        14.1940   -6.7380   11.9550 C.ar      1 HK0301      0.0000 
      8 C21        14.7180   -7.9570   12.3860 C.ar      1 HK0301      0.0000 
      9 C20        13.9760   -8.8280   13.1620 C.ar      1 HK0301      0.0000 
     10 C19        12.6860   -8.4590   13.5300 C.ar      1 HK0301      0.0000 
     11 N3         11.9590   -9.3810   14.3130 N.pl3     1 HK0301      0.0000 
     12 O5         10.8310   -9.6040   14.2520 O.2       1 HK0301      0.0000 
     13 O4         12.5840  -10.1410   15.1960 O.2       1 HK0301      0.0000 
     14 C17        12.1310   -7.2280   13.1430 C.ar      1 HK0301      0.0000 
     15 O3         10.8630   -6.9370   13.5780 O.3       1 HK0301      0.0000 
     16 C18        10.2540   -5.7260   13.1360 C.3       1 HK0301      0.0000 
     17 C16        12.9040   -6.3900   12.3630 C.ar      1 HK0301      0.0000 
     18 C14        16.4140   -5.7300   11.3280 C.ar      1 HK0301      0.0000 
     19 C9         17.2010   -4.8230   10.6210 C.ar      1 HK0301      0.0000 
     20 N2         18.5960   -4.9410   10.8130 N.pl3     1 HK0301      0.0000 
     21 N4         18.5550   -2.5860    9.1070 N.am      1 HK0301      0.0000 
     22 C23        19.5750   -3.5580    9.0460 C.ar      1 HK0301      0.0000 
     23 C8         19.6500   -4.6700    9.8930 C.ar      1 HK0301      0.0000 
     24 C24        20.6190   -3.3640    8.1350 C.ar      1 HK0301      0.0000 
     25 C25        21.6900   -4.2450    8.0800 C.ar      1 HK0301      0.0000 
     26 C26        21.7540   -5.3430    8.9220 C.ar      1 HK0301      0.0000 
     27 C7         20.7370   -5.5610    9.8440 C.ar      1 HK0301      0.0000 
     28 O2         20.6350   -6.6450   10.6870 O.3       1 HK0301      0.0000 
     29 C6         21.8190   -7.2350   11.2550 C.3       1 HK0301      0.0000 
     30 C5         21.7080   -8.7410   11.1140 C.3       1 HK0301      0.0000 
     31 N1         21.7040   -9.4720   12.3960 N.4       1 HK0301      0.0000 
     32 C2         21.1470  -10.8290   12.2710 C.3       1 HK0301      0.0000 
     33 C1         22.1170  -11.7330   11.5540 C.3       1 HK0301      0.0000 
     34 C3         23.0280   -9.5310   13.0450 C.3       1 HK0301      0.0000 
     35 C4         23.9380  -10.5020   12.3250 C.3       1 HK0301      0.0000 
     36 O1         23.3630  -11.8040   12.2370 O.3       1 HK0301      0.0000 
     37 H          14.7372   -3.3583    8.8892 H         1 HK0301      0.0000 
     38 H          13.4059   -4.9054   10.1681 H         1 HK0301      0.0000 
     39 H          15.6886   -8.2111   12.1147 H         1 HK0301      0.0000 
     40 H          14.3626   -9.7233   13.4606 H         1 HK0301      0.0000 
     41 H          12.5186   -5.4673   12.0660 H         1 HK0301      0.0000 
     42 H          16.8765   -6.4188   11.9568 H         1 HK0301      0.0000 
     43 H          18.9113   -5.2836   11.7908 H         1 HK0301      0.0000 
     44 H          18.9610   -1.5398    9.0882 H         1 HK0301      0.0000 
     45 H          20.5877   -2.5519    7.4962 H         1 HK0301      0.0000 
     46 H          22.4527   -4.0778    7.3983 H         1 HK0301      0.0000 
     47 H          22.5466   -5.9929    8.8671 H         1 HK0301      0.0000 
     48 H          21.9163   -6.9955   12.3128 H         1 HK0301      0.0000 
     49 H          22.7175   -6.9068   10.7347 H         1 HK0301      0.0000 
     50 H          22.5485   -9.0946   10.4797 H         1 HK0301      0.0000 
     51 H          20.7821   -8.9705   10.5450 H         1 HK0301      0.0000 
     52 H          21.0252   -8.9114   13.0992 H         1 HK0301      0.0000 
     53 H          20.2055  -10.8035   11.7110 H         1 HK0301      0.0000 
     54 H          20.9384  -11.2473   13.2621 H         1 HK0301      0.0000 
     55 H          22.2431  -11.3502   10.5243 H         1 HK0301      0.0000 
     56 H          21.6499  -12.7311   11.4629 H         1 HK0301      0.0000 
     57 H          22.9256   -9.8511   14.0886 H         1 HK0301      0.0000 
     58 H          23.4968   -8.5399   13.0424 H         1 HK0301      0.0000 
     59 H          24.9044  -10.5244   12.8639 H         1 HK0301      0.0000 
     60 H          24.1504  -10.0871   11.3211 H         1 HK0301      0.0000 
     61 H          10.7831   -4.9228   13.4097 H         1 HK0301      0.0000 
     62 H          10.1685   -5.6952   12.1401 H         1 HK0301      0.0000 
     63 H           9.3345   -5.6136   13.5128 H         1 HK0301      0.0000 
@<TRIPOS>BOND
     1    2    1 2    
     2    3    2 1    
     3   21    2 am   
     4    4    3 ar   
     5   19    3 ar   
     6    5    4 ar   
     7   37    4 1    
     8    6    5 ar   
     9   38    5 1    
    10    7    6 1    
    11   18    6 ar   
    12    8    7 ar   
    13   17    7 ar   
    14    9    8 ar   
    15   39    8 1    
    16   10    9 ar   
    17   40    9 1    
    18   11   10 1    
    19   14   10 ar   
    20   12   11 2    
    21   13   11 2    
    22   15   14 1    
    23   17   14 ar   
    24   16   15 1    
    25   61   16 1    
    26   62   16 1    
    27   63   16 1    
    28   41   17 1    
    29   19   18 ar   
    30   42   18 1    
    31   20   19 1    
    32   23   20 1    
    33   43   20 1    
    34   22   21 1    
    35   44   21 1    
    36   23   22 ar   
    37   24   22 ar   
    38   27   23 ar   
    39   25   24 ar   
    40   45   24 1    
    41   26   25 ar   
    42   46   25 1    
    43   27   26 ar   
    44   47   26 1    
    45   28   27 1    
    46   29   28 1    
    47   30   29 1    
    48   48   29 1    
    49   49   29 1    
    50   31   30 1    
    51   50   30 1    
    52   51   30 1    
    53   32   31 1    
    54   34   31 1    
    55   52   31 1    
    56   33   32 1    
    57   53   32 1    
    58   54   32 1    
    59   36   33 1    
    60   55   33 1    
    61   56   33 1    
    62   35   34 1    
    63   57   34 1    
    64   58   34 1    
    65   36   35 1    
    66   59   35 1    
    67   60   35 1    
@<TRIPOS>SUBSTRUCTURE
     1 HK0301      1 GROUP   
@<TRIPOS>SET

