#    Name: 4bb2_STR_1_INTS_M
#    Modification time : Tue Mar 25 07:10:17 2014

@<TRIPOS>MOLECULE
4bb2_STR_1_INTS_M
   56     0     6     0     0
SMALL
NO_CHARGES


@<TRIPOS>ATOM
      1 CA        -29.5085   -6.5800    4.3415 C.3       2 GLC5        0.0000 
      2 CA        -30.6380   -7.5620    3.1480 C.3       6 GLL5        0.0000 
      3 CA        -28.3790   -5.5980    5.5350 C.3       4 GLP5        0.0000 
      4 CA        -30.6425   -9.5950    6.4590 C.3       2 GLC5        0.0000 
      5 CA        -29.3840   -9.2000    4.7130 C.3       6 GLL5        0.0000 
      6 CA        -31.9010   -9.9900    8.2050 C.3       4 GLP5        0.0000 
      7 CA        -28.1035   -9.6185    6.3600 C.3       2 GLC5        0.0000 
      8 CA        -26.8230  -10.0370    8.0070 C.3       4 GLP5        0.0000 
      9 CA        -27.2860  -10.4470    5.9815 C.3       2 GLC5        0.0000 
     10 CA        -27.7490  -10.8570    3.9560 C.3       6 GLL5        0.0000 
     11 CA        -26.2395  -11.6985    4.6545 C.3       2 GLC5        0.0000 
     12 CA        -24.7300  -12.5400    5.3530 C.3       4 GLP5        0.0000 
     13 CA        -26.7705  -12.9570    4.2870 C.3       2 GLC5        0.0000 
     14 CA        -28.0890  -12.1850    3.2840 C.3       6 GLL5        0.0000 
     15 CA        -25.4520  -13.7290    5.2900 C.3       4 GLP5        0.0000 
     16 CA        -26.7475  -11.2370    0.7640 C.3       2 GLC5        0.0000 
     17 CA        -28.4180  -12.0050    1.8040 C.3       6 GLL5        0.0000 
     18 CA        -25.0770  -10.4690   -0.2760 C.3       4 GLP5        0.0000 
     19 CA        -30.9155  -10.6545    3.0205 C.3       2 GLC5        0.0000 
     20 CA        -29.2490   -9.5640    2.2300 C.3       6 GLL5        0.0000 
     21 CA        -32.5820  -11.7450    3.8110 C.3       4 GLP5        0.0000 
     22 CA        -26.9615  -15.3290    2.8910 C.3       2 GLC5        0.0000 
     23 CA        -28.0950  -14.6140    1.3900 C.3       6 GLL5        0.0000 
     24 CA        -25.8280  -16.0440    4.3920 C.3       4 GLP5        0.0000 
     25 CA        -26.0350  -13.5345   -1.4295 C.3       2 GLC5        0.0000 
     26 CA        -27.9060  -12.9240   -1.1410 C.3       6 GLL5        0.0000 
     27 CA        -24.1640  -14.1450   -1.7180 C.3       4 GLP5        0.0000 
     28 CA        -26.4915  -11.6965   -0.7085 C.3       2 GLC5        0.0000 
     29 CA        -27.5855  -12.1070   -2.9255 C.3       2 GLC5        0.0000 
     30 CA        -27.2650  -11.2900   -4.7100 C.3       4 GLP5        0.0000 
     31 CA        -26.9195   -7.2080    2.1290 C.3       2 GLC5        0.0000 
     32 CA        -28.0960   -8.8020    1.5700 C.3       6 GLL5        0.0000 
     33 CA        -25.7430   -5.6140    2.6880 C.3       4 GLP5        0.0000 
     34 CA        -26.5865   -9.6355    0.6470 C.3       2 GLC5        0.0000 
     35 N         -27.3835  -16.5400   -2.5655 N.am      1 SEC2        0.0000 
     36 N         -28.7980  -15.8070   -2.4700 N.am      5 SEL2        0.0000 
     37 N         -25.9690  -17.2730   -2.6610 N.am      3 SEP2        0.0000 
     38 CA        -31.8555   -9.3455    3.4887 C.3       2 GLC5        0.0000 
     39 CA        -30.5220   -8.7000    2.1330 C.3       6 GLL5        0.0000 
     40 CA        -33.1310  -10.5600    4.3370 C.3       4 GLP5        0.0000 
     41 CA        -28.1438   -7.8018    4.4670 C.3       2 GLC5        0.0000 
     42 CA        -27.1810   -6.0870    4.7440 C.3       4 GLP5        0.0000 
     43 CA        -29.6899  -11.4324    4.8555 C.3       2 GLC5        0.0000 
     44 CA        -30.9520  -12.6780    5.6380 C.3       4 GLP5        0.0000 
     45 CA        -29.8788  -12.8735    2.9310 C.3       2 GLC5        0.0000 
     46 CA        -31.5040  -13.6520    3.3180 C.3       4 GLP5        0.0000 
     47 CA        -31.4700  -11.8450    1.3140 C.3       2 GLC5        0.0000 
     48 CA        -29.5140  -10.9350    1.5620 C.3       6 GLL5        0.0000 
     49 CA        -32.9750  -12.1660    2.5160 C.3       4 GLP5        0.0000 
     50 CA        -27.2250  -16.6685    0.8798 C.3       2 GLC5        0.0000 
     51 CA        -26.0480  -18.2620    0.9000 C.3       4 GLP5        0.0000 
     52 CA        -30.2790  -16.7975    0.2600 C.3       2 GLC5        0.0000 
     53 CA        -28.7090  -15.5360    0.3290 C.3       6 GLL5        0.0000 
     54 CA        -31.3890  -18.4930    0.6330 C.3       4 GLP5        0.0000 
     55 CA        -30.2998  -13.9798    1.7483 C.3       2 GLC5        0.0000 
     56 CA        -29.6290  -14.6680   -0.5550 C.3       6 GLL5        0.0000 
@<TRIPOS>BOND
@<TRIPOS>SUBSTRUCTURE
     1 SEC2       35 GROUP        1 X    SEC  0     ROOT SEC X 2
     2 GLC5        1 GROUP        1 X    GLC  0     **** GLC X 6
     3 SEP2       37 GROUP        1 Y    SEP  0     ROOT SEP Y 9
     4 GLP5        3 GROUP        1 Y    GLP  0     **** GLP Y 13
     5 SEL2       36 GROUP        1 Z    SEL  0     ROOT SEL Z 16
     6 GLL5        2 GROUP        1 Z    GLL  0     **** GLL Z 20
@<TRIPOS>SET

