#    Name: 4bb2_STR_1_ligand
#    Modification time : Tue Mar 25 07:10:17 2014

@<TRIPOS>MOLECULE
4bb2_STR_1_ligand
   53    56     1     0     0
SMALL
NO_CHARGES


@<TRIPOS>ATOM
      1 C1        -30.5220   -8.7000    2.1330 C.3       1 STR1384     0.0000 
      2 C2        -30.6380   -7.5620    3.1480 C.3       1 STR1384     0.0000 
      3 C3        -30.3490   -8.0960    4.5340 C.2       1 STR1384     0.0000 
      4 O3        -30.9020   -7.6230    5.5140 O.2       1 STR1384     0.0000 
      5 C4        -29.3840   -9.2000    4.7130 C.2       1 STR1384     0.0000 
      6 C5        -28.8290   -9.8330    3.6670 C.2       1 STR1384     0.0000 
      7 C6        -27.7490  -10.8570    3.9560 C.3       1 STR1384     0.0000 
      8 C7        -28.0890  -12.1850    3.2840 C.3       1 STR1384     0.0000 
      9 C8        -28.4180  -12.0050    1.8040 C.3       1 STR1384     0.0000 
     10 C9        -29.5140  -10.9350    1.5620 C.3       1 STR1384     0.0000 
     11 C10       -29.2490   -9.5640    2.2300 C.3       1 STR1384     0.0000 
     12 C11       -29.8880  -10.8250    0.0680 C.3       1 STR1384     0.0000 
     13 C12       -30.2290  -12.1680   -0.5910 C.3       1 STR1384     0.0000 
     14 C13       -29.1680  -13.2350   -0.3160 C.3       1 STR1384     0.0000 
     15 C14       -28.8900  -13.3260    1.1840 C.3       1 STR1384     0.0000 
     16 C15       -28.0950  -14.6140    1.3900 C.3       1 STR1384     0.0000 
     17 C16       -28.7090  -15.5360    0.3290 C.3       1 STR1384     0.0000 
     18 C17       -29.6290  -14.6680   -0.5550 C.3       1 STR1384     0.0000 
     19 C18       -27.9060  -12.9240   -1.1410 C.3       1 STR1384     0.0000 
     20 C19       -28.0960   -8.8020    1.5700 C.3       1 STR1384     0.0000 
     21 C20       -29.6780  -15.0840   -2.0140 C.2       1 STR1384     0.0000 
     22 O20       -28.7980  -15.8070   -2.4700 O.2       1 STR1384     0.0000 
     23 C21       -30.8250  -14.6120   -2.8740 C.3       1 STR1384     0.0000 
     24 H         -30.5792   -8.2749    1.1095 H         1 STR1384     0.0000 
     25 H         -31.4047   -9.3646    2.2369 H         1 STR1384     0.0000 
     26 H         -31.6423   -7.1559    3.1133 H         1 STR1384     0.0000 
     27 H         -29.9227   -6.7874    2.8967 H         1 STR1384     0.0000 
     28 H         -29.1666   -9.4503    5.6954 H         1 STR1384     0.0000 
     29 H         -27.6697  -11.0102    5.0297 H         1 STR1384     0.0000 
     30 H         -26.7954  -10.4984    3.5758 H         1 STR1384     0.0000 
     31 H         -28.9476  -12.6342    3.7905 H         1 STR1384     0.0000 
     32 H         -27.2387  -12.8652    3.3825 H         1 STR1384     0.0000 
     33 H         -27.5253  -11.6903    1.2747 H         1 STR1384     0.0000 
     34 H         -30.4505  -11.3477    2.0689 H         1 STR1384     0.0000 
     35 H         -29.0476  -10.3638   -0.4719 H         1 STR1384     0.0000 
     36 H         -30.7500  -10.1485   -0.0298 H         1 STR1384     0.0000 
     37 H         -30.3196  -12.0215   -1.6714 H         1 STR1384     0.0000 
     38 H         -31.1947  -12.5155   -0.2119 H         1 STR1384     0.0000 
     39 H         -29.9283  -13.5467    1.6288 H         1 STR1384     0.0000 
     40 H         -28.2816  -15.0027    2.3498 H         1 STR1384     0.0000 
     41 H         -27.0789  -14.4487    1.1723 H         1 STR1384     0.0000 
     42 H         -29.2925  -16.2973    0.8068 H         1 STR1384     0.0000 
     43 H         -27.9315  -15.9576   -0.2760 H         1 STR1384     0.0000 
     44 H         -30.6391  -14.7508   -0.1157 H         1 STR1384     0.0000 
     45 H         -27.5221  -12.0301   -0.9098 H         1 STR1384     0.0000 
     46 H         -27.1859  -13.6008   -0.9877 H         1 STR1384     0.0000 
     47 H         -28.0966  -12.9161   -2.1226 H         1 STR1384     0.0000 
     48 H         -27.2401   -9.3177    1.6080 H         1 STR1384     0.0000 
     49 H         -28.2807   -8.6112    0.6059 H         1 STR1384     0.0000 
     50 H         -27.9285   -7.9228    2.0160 H         1 STR1384     0.0000 
     51 H         -30.8667  -13.6140   -2.9225 H         1 STR1384     0.0000 
     52 H         -30.7482  -14.9481   -3.8127 H         1 STR1384     0.0000 
     53 H         -31.7068  -14.9254   -2.5217 H         1 STR1384     0.0000 
@<TRIPOS>BOND
     1    2    1 1    
     2   11    1 1    
     3   24    1 1    
     4   25    1 1    
     5    3    2 1    
     6   26    2 1    
     7   27    2 1    
     8    4    3 2    
     9    5    3 1    
    10    6    5 2    
    11   28    5 1    
    12    7    6 1    
    13   11    6 1    
    14    8    7 1    
    15   29    7 1    
    16   30    7 1    
    17    9    8 1    
    18   31    8 1    
    19   32    8 1    
    20   10    9 1    
    21   15    9 1    
    22   33    9 1    
    23   11   10 1    
    24   12   10 1    
    25   34   10 1    
    26   20   11 1    
    27   13   12 1    
    28   35   12 1    
    29   36   12 1    
    30   14   13 1    
    31   37   13 1    
    32   38   13 1    
    33   15   14 1    
    34   18   14 1    
    35   19   14 1    
    36   16   15 1    
    37   39   15 1    
    38   17   16 1    
    39   40   16 1    
    40   41   16 1    
    41   18   17 1    
    42   42   17 1    
    43   43   17 1    
    44   21   18 1    
    45   44   18 1    
    46   45   19 1    
    47   46   19 1    
    48   47   19 1    
    49   48   20 1    
    50   49   20 1    
    51   50   20 1    
    52   22   21 2    
    53   23   21 1    
    54   51   23 1    
    55   52   23 1    
    56   53   23 1    
@<TRIPOS>SUBSTRUCTURE
     1 STR1384     1 GROUP   
@<TRIPOS>SET

