#    Name: 3flz_FLZ_1_INTS_M
#    Modification time : Tue Mar 25 06:04:11 2014

@<TRIPOS>MOLECULE
3flz_FLZ_1_INTS_M
   54     0     9     0     0
SMALL
NO_CHARGES


@<TRIPOS>ATOM
      1 CA         23.0535   11.1465   29.3665 C.3       3 GLC5        0.0000 
      2 CA         22.7680   10.5920   31.4070 C.3       9 GLL5        0.0000 
      3 CA         23.3390   11.7010   27.3260 C.3       6 GLP5        0.0000 
      4 CA         21.5610    6.3940   31.5445 C.3       3 GLC5        0.0000 
      5 CA         21.6170    8.4990   31.1270 C.3       9 GLL5        0.0000 
      6 CA         21.5050    4.2890   31.9620 C.3       6 GLP5        0.0000 
      7 CA         22.3285    7.3520   29.4850 C.3       3 GLC5        0.0000 
      8 CA         23.0400    6.2050   27.8430 C.3       6 GLP5        0.0000 
      9 CA         24.1605    7.3000   29.9825 C.3       3 GLC5        0.0000 
     10 CA         23.9520    8.5480   31.3640 C.3       9 GLL5        0.0000 
     11 CA         24.3690    6.0520   28.6010 C.3       6 GLP5        0.0000 
     12 CA         20.3970   12.5520   33.4105 C.3       3 GLC5        0.0000 
     13 CA         20.3260   11.9800   31.2790 C.3       9 GLL5        0.0000 
     14 CA         20.4680   13.1240   35.5420 C.3       6 GLP5        0.0000 
     15 CA         14.3455   12.5805   29.5595 C.3       3 GLC5        0.0000 
     16 CA         15.7120   11.6200   30.4800 C.3       9 GLL5        0.0000 
     17 CA         12.9790   13.5410   28.6390 C.3       6 GLP5        0.0000 
     18 CA         19.0040   12.3165   34.0655 C.3       3 GLC5        0.0000 
     19 CA         17.5400   11.5090   32.5890 C.3       9 GLL5        0.0000 
     20 CA         18.5440    9.6325   33.2185 C.3       3 GLC5        0.0000 
     21 CA         19.5480    7.7560   33.8480 C.3       6 GLP5        0.0000 
     22 N          23.0705    6.4390   30.8855 N.am      2 SEC2        0.0000 
     23 N          22.7950    7.8540   31.1920 N.am      8 SEL2        0.0000 
     24 N          23.3460    5.0240   30.5790 N.am      5 SEP2        0.0000 
     25 O          25.5380    6.5880   31.4050 O.2       1 ALC1        0.0000 
     26 O          25.1410    7.9000   31.4280 O.2       7 ALL1        0.0000 
     27 O          25.9350    5.2760   31.3820 O.2       4 ALP1        0.0000 
     28 CA         29.0005   10.3810   29.1510 C.3       3 GLC5        0.0000 
     29 CA         28.4450    9.7260   30.9950 C.3       9 GLL5        0.0000 
     30 CA         29.5560   11.0360   27.3070 C.3       6 GLP5        0.0000 
     31 CA         20.4196    8.5615   32.5062 C.3       3 GLC5        0.0000 
     32 CA         21.5710    9.8890   31.2360 C.3       9 GLL5        0.0000 
     33 CA         19.3686    8.9035   30.7602 C.3       3 GLC5        0.0000 
     34 CA         17.4460    8.4400   30.3560 C.3       6 GLP5        0.0000 
     35 CA         16.8230   13.7480   32.0093 C.3       3 GLC5        0.0000 
     36 CA         17.8970   12.1240   31.3850 C.3       9 GLL5        0.0000 
     37 CA         16.2080   15.3420   33.1600 C.3       6 GLP5        0.0000 
     38 CA         17.4420   10.2970   30.6073 C.3       3 GLC5        0.0000 
     39 CA         16.4038   11.1090   28.7385 C.3       3 GLC5        0.0000 
     40 CA         16.9790   12.1840   30.3320 C.3       9 GLL5        0.0000 
     41 CA         16.4620   10.3160   27.0710 C.3       6 GLP5        0.0000 
     42 CA         14.5633    9.3323   32.8148 C.3       3 GLC5        0.0000 
     43 CA         15.3640   11.0020   31.6810 C.3       9 GLL5        0.0000 
     44 CA         13.3070    7.6910   33.4220 C.3       6 GLP5        0.0000 
     45 CA         16.4920    9.8755   30.7183 C.3       3 GLC5        0.0000 
     46 CA         16.5727   12.2520   34.0662 C.3       3 GLC5        0.0000 
     47 CA         16.2750   10.9450   32.7340 C.3       9 GLL5        0.0000 
     48 CA         16.2380   13.2770   35.4710 C.3       6 GLP5        0.0000 
     49 CA         14.1167   11.6625   32.5156 C.3       3 GLC5        0.0000 
     50 CA         12.3270   12.1970   33.1240 C.3       6 GLP5        0.0000 
     51 CA         17.1768    9.8335   31.5087 C.3       3 GLC5        0.0000 
     52 CA         28.9505    7.9915   29.9372 C.3       3 GLC5        0.0000 
     53 CA         27.1230    9.0740   30.5840 C.3       9 GLL5        0.0000 
     54 CA         30.1170    6.5830   29.0850 C.3       6 GLP5        0.0000 
@<TRIPOS>BOND
@<TRIPOS>SUBSTRUCTURE
     1 ALC1       25 GROUP        1 X    ALC  0     ROOT ALC X 1
     2 SEC2       22 GROUP        1 X    SEC  0     **** SEC X 2
     3 GLC5        1 GROUP        1 X    GLC  0     **** GLC X 6
     4 ALP1       27 GROUP        1 Y    ALP  0     ROOT ALP Y 8
     5 SEP2       24 GROUP        1 Y    SEP  0     **** SEP Y 9
     6 GLP5        3 GROUP        1 Y    GLP  0     **** GLP Y 13
     7 ALL1       26 GROUP        1 Z    ALL  0     ROOT ALL Z 15
     8 SEL2       23 GROUP        1 Z    SEL  0     **** SEL Z 16
     9 GLL5        2 GROUP        1 Z    GLL  0     **** GLL Z 20
@<TRIPOS>SET

