#    Name: 3flz_FLZ_1_ligand
#    Modification time : Tue Mar 25 06:04:11 2014

@<TRIPOS>MOLECULE
3flz_FLZ_1_ligand
   46    49     1     0     0
SMALL
NO_CHARGES


@<TRIPOS>ATOM
      1 O11        19.1410   12.6850   31.2200 O.3       1 FLZ361      0.0000 
      2 C10        20.3600   10.5810   31.1680 C.2       1 FLZ361      0.0000 
      3 C6         22.7680   10.5920   31.4070 C.ar      1 FLZ361      0.0000 
      4 C5         21.5710    9.8890   31.2360 C.ar      1 FLZ361      0.0000 
      5 C4         21.6170    8.4990   31.1270 C.ar      1 FLZ361      0.0000 
      6 C2         23.9520    8.5480   31.3640 C.ar      1 FLZ361      0.0000 
      7 C9         20.3260   11.9800   31.2790 C.2       1 FLZ361      0.0000 
      8 C12        17.8970   12.1240   31.3850 C.ar      1 FLZ361      0.0000 
      9 C14        24.0170   12.7450   31.7010 C.3       1 FLZ361      0.0000 
     10 C22        27.2290    7.7610   32.7410 C.3       1 FLZ361      0.0000 
     11 C15        16.9790   12.1840   30.3320 C.ar      1 FLZ361      0.0000 
     12 C17        15.3640   11.0020   31.6810 C.ar      1 FLZ361      0.0000 
     13 C16        15.7120   11.6200   30.4800 C.ar      1 FLZ361      0.0000 
     14 C18        16.2750   10.9450   32.7340 C.ar      1 FLZ361      0.0000 
     15 O13        21.4770   13.9380   31.5490 O.2       1 FLZ361      0.0000 
     16 C8         21.5150   12.6910   31.4520 C.2       1 FLZ361      0.0000 
     17 C19        17.5400   11.5090   32.5890 C.ar      1 FLZ361      0.0000 
     18 N1         22.7950    7.8540   31.1920 N.ar      1 FLZ361      0.0000 
     19 N7         22.7580   12.0050   31.5180 N.am      1 FLZ361      0.0000 
     20 N3         23.9290    9.9010   31.4670 N.ar      1 FLZ361      0.0000 
     21 N20        25.1410    7.9000   31.4280 N.pl3     1 FLZ361      0.0000 
     22 C21        26.3460    8.6170   31.8220 C.3       1 FLZ361      0.0000 
     23 C26        27.1230    9.0740   30.5840 C.3       1 FLZ361      0.0000 
     24 C25        28.4450    9.7260   30.9950 C.3       1 FLZ361      0.0000 
     25 O24        29.2180    8.8010   31.7700 O.3       1 FLZ361      0.0000 
     26 C23        28.5880    8.4170   33.0020 C.3       1 FLZ361      0.0000 
     27 H          19.4800   10.0620   31.0350 H         1 FLZ361      0.0000 
     28 H          20.7277    7.9822   30.9959 H         1 FLZ361      0.0000 
     29 H          27.3850    6.7847   32.2767 H         1 FLZ361      0.0000 
     30 H          26.7137    7.6122   33.6925 H         1 FLZ361      0.0000 
     31 H          17.2387   12.6428   29.4519 H         1 FLZ361      0.0000 
     32 H          14.4285   10.5857   31.7897 H         1 FLZ361      0.0000 
     33 H          15.0381   11.6596   29.7079 H         1 FLZ361      0.0000 
     34 H          16.0135   10.4877   33.6154 H         1 FLZ361      0.0000 
     35 H          18.2120   11.4746   33.3642 H         1 FLZ361      0.0000 
     36 H          25.2389    6.9033   31.2073 H         1 FLZ361      0.0000 
     37 H          26.0698    9.5189   32.3823 H         1 FLZ361      0.0000 
     38 H          26.5250    9.7924   30.0307 H         1 FLZ361      0.0000 
     39 H          27.3277    8.2146   29.9520 H         1 FLZ361      0.0000 
     40 H          28.2089   10.6318   31.5629 H         1 FLZ361      0.0000 
     41 H          28.9686   10.0254   30.0813 H         1 FLZ361      0.0000 
     42 H          29.2035    7.6984   33.5626 H         1 FLZ361      0.0000 
     43 H          28.4197    9.2848   33.6563 H         1 FLZ361      0.0000 
     44 H          24.4905   12.4710   32.5381 H         1 FLZ361      0.0000 
     45 H          24.6508   12.5929   30.9426 H         1 FLZ361      0.0000 
     46 H          23.8628   13.7312   31.7609 H         1 FLZ361      0.0000 
@<TRIPOS>BOND
     1    7    1 1    
     2    8    1 1    
     3    4    2 1    
     4    7    2 2    
     5   27    2 1    
     6    4    3 ar   
     7   19    3 1    
     8   20    3 ar   
     9    5    4 ar   
    10   18    5 ar   
    11   28    5 1    
    12   18    6 ar   
    13   20    6 ar   
    14   21    6 1    
    15   16    7 1    
    16   11    8 ar   
    17   17    8 ar   
    18   19    9 1    
    19   44    9 1    
    20   45    9 1    
    21   46    9 1    
    22   22   10 1    
    23   26   10 1    
    24   29   10 1    
    25   30   10 1    
    26   13   11 ar   
    27   31   11 1    
    28   13   12 ar   
    29   14   12 ar   
    30   32   12 1    
    31   33   13 1    
    32   17   14 ar   
    33   34   14 1    
    34   16   15 2    
    35   19   16 am   
    36   35   17 1    
    37   22   21 1    
    38   36   21 1    
    39   23   22 1    
    40   37   22 1    
    41   24   23 1    
    42   38   23 1    
    43   39   23 1    
    44   25   24 1    
    45   40   24 1    
    46   41   24 1    
    47   26   25 1    
    48   42   26 1    
    49   43   26 1    
@<TRIPOS>SUBSTRUCTURE
     1 FLZ361      1 GROUP   
@<TRIPOS>SET

