#    Name: 1g05_BBH_1_INTS_M
#    Modification time : Tue Mar 25 02:14:29 2014

@<TRIPOS>MOLECULE
1g05_BBH_1_INTS_M
   52     0    12     0     0
SMALL
NO_CHARGES


@<TRIPOS>ATOM
      1 CA          3.3690   46.0745   53.7455 C.3       4 GLC5        0.0000 
      2 CA          2.0350   47.4540   54.7570 C.3      12 GLL5        0.0000 
      3 CA          4.7030   44.6950   52.7340 C.3       8 GLP5        0.0000 
      4 CA          0.3345   47.2430   59.1545 C.3       4 GLC5        0.0000 
      5 CA          2.0440   47.4360   59.5530 C.3      12 GLL5        0.0000 
      6 CA         -1.3750   47.0500   58.7560 C.3       8 GLP5        0.0000 
      7 CA          0.6275   47.3250   61.1595 C.3       4 GLC5        0.0000 
      8 CA         -0.7890   47.2140   62.7660 C.3       8 GLP5        0.0000 
      9 CA          3.9240   46.5080   59.4360 C.3       4 GLC5        0.0000 
     10 CA          5.8040   45.5800   59.3190 C.3       8 GLP5        0.0000 
     11 N           3.9300   46.8500   51.4500 N.am      2 SEC2        0.0000 
     12 N           3.2850   47.7490   52.2610 N.am     10 SEL2        0.0000 
     13 N           4.5750   45.9510   50.6390 N.am      6 SEP2        0.0000 
     14 N           2.6920   46.2915   51.5645 N.am      2 SEC2        0.0000 
     15 N           2.0990   44.8340   50.8680 N.am      6 SEP2        0.0000 
     16 Zn          0.7105   50.3490   53.5900 Zn        3 ZIC7        0.0000 
     17 Zn          2.9710   50.1530   52.6980 Zn       11 ZIL7        0.0000 
     18 Zn         -1.5500   50.5450   54.4820 Zn        7 ZIP7        0.0000 
     19 CA          2.9880   50.1140   49.0325 C.3       4 GLC5        0.0000 
     20 CA          1.7270   50.8640   50.6150 C.3      12 GLL5        0.0000 
     21 CA          4.2490   49.3640   47.4500 C.3       8 GLP5        0.0000 
     22 O          -0.0570   47.8935   51.6410 O.2       1 ALC1        0.0000 
     23 O          -0.3340   49.0630   52.7690 O.2       9 ALL1        0.0000 
     24 O           0.2200   46.7240   50.5130 O.2       5 ALP1        0.0000 
     25 Zn         -1.5445   49.8795   53.9725 Zn        3 ZIC7        0.0000 
     26 Zn         -1.5390   49.2140   53.4630 Zn       11 ZIL7        0.0000 
     27 O          -1.5135   47.7110   53.9865 O.2       1 ALC1        0.0000 
     28 O          -1.5390   49.2140   53.4630 O.2       9 ALL1        0.0000 
     29 O          -1.4880   46.2080   54.5100 O.2       5 ALP1        0.0000 
     30 Zn         -0.6440   50.8830   53.9165 Zn        3 ZIC7        0.0000 
     31 Zn          0.2620   51.2210   53.3510 Zn       11 ZIL7        0.0000 
     32 CA          4.6532   47.0470   55.0643 C.3       4 GLC5        0.0000 
     33 CA          3.1000   48.3590   54.7670 C.3      12 GLL5        0.0000 
     34 CA          5.9440   45.4900   54.7480 C.3       8 GLP5        0.0000 
     35 CA          5.0150   48.1532   57.4013 C.3       4 GLC5        0.0000 
     36 CA          3.6250   48.8490   55.9940 C.3      12 GLL5        0.0000 
     37 CA          6.6760   47.6630   58.1860 C.3       8 GLP5        0.0000 
     38 CA          0.6400   48.1358   57.5742 C.3       4 GLC5        0.0000 
     39 CA          3.0830   48.4380   57.2390 C.3      12 GLL5        0.0000 
     40 CA         -1.2780   48.2940   57.9250 C.3       8 GLP5        0.0000 
     41 CA          0.1648   47.8713   55.9835 C.3       4 GLC5        0.0000 
     42 CA          1.5240   47.0430   55.9930 C.3      12 GLL5        0.0000 
     43 CA         -1.4500   48.4940   56.5920 C.3       8 GLP5        0.0000 
     44 CA          1.5779   45.4075   55.6464 C.3       4 GLC5        0.0000 
     45 CA          2.0330   47.5170   57.2080 C.3      12 GLL5        0.0000 
     46 CA          1.2490   43.4480   55.6140 C.3       8 GLP5        0.0000 
     47 CA          8.5317   49.9215   50.2410 C.3       4 GLC5        0.0000 
     48 CA          7.6170   51.2560   50.7680 C.3      12 GLL5        0.0000 
     49 CA          9.0160   48.3770   49.2010 C.3       8 GLP5        0.0000 
     50 CA          7.6370   53.3780   54.5230 C.3       4 GLC5        0.0000 
     51 CA          8.0870   52.6480   52.7270 C.3      12 GLL5        0.0000 
     52 CA          7.8250   53.8230   56.3850 C.3       8 GLP5        0.0000 
@<TRIPOS>BOND
@<TRIPOS>SUBSTRUCTURE
     1 ALC1       22 GROUP        1 X    ALC  0     ROOT ALC X 1
     2 SEC2       11 GROUP        1 X    SEC  0     **** SEC X 2
     3 ZIC7       16 GROUP        1 X    ZIC  0     **** ZIC X 5
     4 GLC5        1 GROUP        1 X    GLC  0     **** GLC X 6
     5 ALP1       24 GROUP        1 Y    ALP  0     ROOT ALP Y 8
     6 SEP2       13 GROUP        1 Y    SEP  0     **** SEP Y 9
     7 ZIP7       18 GROUP        1 Y    ZIP  0     **** ZIP Y 12
     8 GLP5        3 GROUP        1 Y    GLP  0     **** GLP Y 13
     9 ALL1       23 GROUP        1 Z    ALL  0     ROOT ALL Z 15
    10 SEL2       12 GROUP        1 Z    SEL  0     **** SEL Z 16
    11 ZIL7       17 GROUP        1 Z    ZIL  0     **** ZIL Z 19
    12 GLL5        2 GROUP        1 Z    GLL  0     **** GLL Z 20
@<TRIPOS>SET

