#    Name: 1g05_BBH_1_ligand
#    Modification time : Tue Mar 25 02:14:29 2014

@<TRIPOS>MOLECULE
1g05_BBH_1_ligand
   50    52     1     0     0
SMALL
NO_CHARGES


@<TRIPOS>ATOM
      1 C1          3.1000   48.3590   54.7670 C.ar      1 BBH901      0.0000 
      2 C2          3.6250   48.8490   55.9940 C.ar      1 BBH901      0.0000 
      3 C3          3.0830   48.4380   57.2390 C.ar      1 BBH901      0.0000 
      4 C4          2.0330   47.5170   57.2080 C.ar      1 BBH901      0.0000 
      5 C5          1.5240   47.0430   55.9930 C.ar      1 BBH901      0.0000 
      6 C6          2.0350   47.4540   54.7570 C.ar      1 BBH901      0.0000 
      7 O7          1.5140   47.0890   58.2610 O.3       1 BBH901      0.0000 
      8 C8          2.0440   47.4360   59.5530 C.3       1 BBH901      0.0000 
      9 S9          3.7060   48.7960   53.2200 S.o2      1 BBH901      0.0000 
     10 O10         3.2850   47.7490   52.2610 O.2       1 BBH901      0.0000 
     11 O11         5.1370   48.9360   53.3960 O.2       1 BBH901      0.0000 
     12 N12         2.9710   50.1530   52.6980 N.pl3     1 BBH901      0.0000 
     13 C13         1.7680   49.9490   51.8600 C.3       1 BBH901      0.0000 
     14 C14         1.7270   50.8640   50.6150 C.3       1 BBH901      0.0000 
     15 C15         2.4360   52.2120   50.7840 C.2       1 BBH901      0.0000 
     16 N16         3.5150   52.3660   51.7400 N.am      1 BBH901      0.0000 
     17 C17         3.5270   51.5110   52.9580 C.3       1 BBH901      0.0000 
     18 O18         2.0950   53.2940   50.0590 O.2       1 BBH901      0.0000 
     19 C           0.5180   50.0920   52.7010 C.2       1 BBH901      0.0000 
     20 NA         -0.3340   49.0630   52.7690 N.am      1 BBH901      0.0000 
     21 OA         -1.5390   49.2140   53.4630 O.3       1 BBH901      0.0000 
     22 OB          0.2620   51.2210   53.3510 O.2       1 BBH901      0.0000 
     23 C7          4.5440   53.4070   51.4590 C.3       1 BBH901      0.0000 
     24 C9          7.6170   51.2560   50.7680 C.ar      1 BBH901      0.0000 
     25 C10         6.3560   51.8210   50.6750 C.ar      1 BBH901      0.0000 
     26 C11         5.9420   52.8030   51.5780 C.ar      1 BBH901      0.0000 
     27 C12         6.8110   53.2180   52.5950 C.ar      1 BBH901      0.0000 
     28 C16         8.0870   52.6480   52.7270 C.ar      1 BBH901      0.0000 
     29 C18         8.4780   51.6760   51.7940 C.ar      1 BBH901      0.0000 
     30 H           4.4091   49.5110   55.9775 H         1 BBH901      0.0000 
     31 H           3.4463   48.8002   58.1015 H         1 BBH901      0.0000 
     32 H           0.7373   46.3605   56.0101 H         1 BBH901      0.0000 
     33 H           1.6487   47.1096   53.8916 H         1 BBH901      0.0000 
     34 H           1.7822   48.9020   51.4843 H         1 BBH901      0.0000 
     35 H           0.6713   51.0443   50.3479 H         1 BBH901      0.0000 
     36 H           2.1820   50.3225   49.7677 H         1 BBH901      0.0000 
     37 H           4.5609   51.4177   53.3311 H         1 BBH901      0.0000 
     38 H           2.9417   51.9994   53.7554 H         1 BBH901      0.0000 
     39 H          -0.1299   48.1550   52.3230 H         1 BBH901      0.0000 
     40 H           4.4549   54.2268   52.1706 H         1 BBH901      0.0000 
     41 H           4.4170   53.8002   50.4512 H         1 BBH901      0.0000 
     42 H           7.9238   50.5441   50.1045 H         1 BBH901      0.0000 
     43 H           5.7083   51.5153   49.9287 H         1 BBH901      0.0000 
     44 H           6.5115   53.9502   53.2547 H         1 BBH901      0.0000 
     45 H           8.7070   52.9305   53.4742 H         1 BBH901      0.0000 
     46 H           9.4224   51.2591   51.8635 H         1 BBH901      0.0000 
     47 H           2.9914   47.1341   59.6591 H         1 BBH901      0.0000 
     48 H           2.0324   48.4242   59.7060 H         1 BBH901      0.0000 
     49 H           1.5186   47.0184   60.2943 H         1 BBH901      0.0000 
     50 H          -1.6116   48.3976   54.0359 H         1 BBH901      0.0000 
@<TRIPOS>BOND
     1    2    1 ar   
     2    6    1 ar   
     3    9    1 1    
     4    3    2 ar   
     5   30    2 1    
     6    4    3 ar   
     7   31    3 1    
     8    5    4 ar   
     9    7    4 1    
    10    6    5 ar   
    11   32    5 1    
    12   33    6 1    
    13    8    7 1    
    14   47    8 1    
    15   48    8 1    
    16   49    8 1    
    17   10    9 2    
    18   11    9 2    
    19   12    9 1    
    20   13   12 1    
    21   17   12 1    
    22   14   13 1    
    23   19   13 1    
    24   34   13 1    
    25   15   14 1    
    26   35   14 1    
    27   36   14 1    
    28   16   15 am   
    29   18   15 2    
    30   17   16 1    
    31   23   16 1    
    32   37   17 1    
    33   38   17 1    
    34   20   19 am   
    35   22   19 2    
    36   21   20 1    
    37   39   20 1    
    38   50   21 1    
    39   26   23 1    
    40   40   23 1    
    41   41   23 1    
    42   25   24 ar   
    43   29   24 ar   
    44   42   24 1    
    45   26   25 ar   
    46   43   25 1    
    47   27   26 ar   
    48   28   27 ar   
    49   44   27 1    
    50   29   28 ar   
    51   45   28 1    
    52   46   29 1    
@<TRIPOS>SUBSTRUCTURE
     1 BBH901      1 GROUP   
@<TRIPOS>SET

