#    Name: 3gnq_NAD_6_INTS_M
#    Modification time : Tue Mar 25 12:44:36 2014

@<TRIPOS>MOLECULE
3gnq_NAD_6_INTS_M
   67     0     9     0     0
SMALL
NO_CHARGES


@<TRIPOS>ATOM
      1 N          48.5945  -42.9160   61.6325 N.am      2 SEC2        0.0000 
      2 N          48.6540  -41.4420   60.9460 N.am      8 SEL2        0.0000 
      3 N          48.5350  -44.3900   62.3190 N.am      5 SEP2        0.0000 
      4 N          47.6730  -41.1290   59.6695 N.am      2 SEC2        0.0000 
      5 N          46.6920  -40.8160   58.3930 N.am      5 SEP2        0.0000 
      6 CA         51.3750  -39.2870   65.4930 C.3       3 GLC5        0.0000 
      7 CA         49.6040  -39.6350   64.1580 C.3       9 GLL5        0.0000 
      8 CA         53.1460  -38.9390   66.8280 C.3       6 GLP5        0.0000 
      9 CA         49.6065  -40.6225   67.1215 C.3       3 GLC5        0.0000 
     10 CA         48.7270  -39.7880   65.3880 C.3       9 GLL5        0.0000 
     11 CA         50.4860  -41.4570   68.8550 C.3       6 GLP5        0.0000 
     12 CA         46.2770  -39.7010   63.4595 C.3       3 GLC5        0.0000 
     13 CA         47.2940  -39.3310   65.1350 C.3       9 GLL5        0.0000 
     14 CA         45.2600  -40.0710   61.7840 C.3       6 GLP5        0.0000 
     15 O          46.4825  -40.5200   66.8980 O.2       1 ALC1        0.0000 
     16 O          46.3640  -40.2980   65.5820 O.2       7 ALL1        0.0000 
     17 O          46.6010  -40.7420   68.2140 O.2       4 ALP1        0.0000 
     18 O          45.6660  -39.7980   67.0405 O.2       1 ALC1        0.0000 
     19 O          44.9680  -39.2980   68.4990 O.2       4 ALP1        0.0000 
     20 O          46.2320  -39.3365   67.3465 O.2       1 ALC1        0.0000 
     21 O          45.8630  -37.9310   66.4790 O.2       7 ALL1        0.0000 
     22 O          45.4155  -38.6145   67.4890 O.2       1 ALC1        0.0000 
     23 CA         49.3480  -39.8335   67.9235 C.3       3 GLC5        0.0000 
     24 CA         48.2100  -38.2100   66.9920 C.3       9 GLL5        0.0000 
     25 CA         49.8230  -34.2645   72.0405 C.3       3 GLC5        0.0000 
     26 CA         50.2140  -35.1200   70.1850 C.3       9 GLL5        0.0000 
     27 CA         49.4320  -33.4090   73.8960 C.3       6 GLP5        0.0000 
     28 CA         51.2740  -38.0060   70.1020 C.3       3 GLC5        0.0000 
     29 CA         49.9890  -37.3860   70.9780 C.3       9 GLL5        0.0000 
     30 CA         52.5590  -38.6260   69.2260 C.3       6 GLP5        0.0000 
     31 N          50.9790  -44.4740   62.3860 N.am      2 SEC2        0.0000 
     32 N          51.1280  -42.9860   62.1330 N.am      8 SEL2        0.0000 
     33 N          50.8300  -45.9620   62.6390 N.am      5 SEP2        0.0000 
     34 CA         53.6690  -43.5835   62.1875 C.3       3 GLC5        0.0000 
     35 CA         53.6770  -41.3860   62.5980 C.3       9 GLL5        0.0000 
     36 CA         53.6610  -45.7810   61.7770 C.3       6 GLP5        0.0000 
     37 CA         55.0605  -44.1605   61.3935 C.3       3 GLC5        0.0000 
     38 CA         56.4600  -42.5400   61.0100 C.3       9 GLL5        0.0000 
     39 CA         58.2730  -42.0640   61.8840 C.3       3 GLC5        0.0000 
     40 CA         60.0860  -41.5880   62.7580 C.3       6 GLP5        0.0000 
     41 CA         54.4005  -44.7885   60.5470 C.3       3 GLC5        0.0000 
     42 CA         55.1400  -43.7960   59.3170 C.3       9 GLL5        0.0000 
     43 N          53.5060  -46.2835   55.1200 N.am      2 SEC2        0.0000 
     44 N          54.0810  -45.4370   56.1780 N.am      8 SEL2        0.0000 
     45 N          52.9310  -47.1300   54.0620 N.am      5 SEP2        0.0000 
     46 CA         57.1225  -46.0595   56.9030 C.3       3 GLC5        0.0000 
     47 CA         56.0000  -45.8470   58.3890 C.3       9 GLL5        0.0000 
     48 CA         58.2450  -46.2720   55.4170 C.3       6 GLP5        0.0000 
     49 CA         57.7835  -46.8220   57.6965 C.3       3 GLC5        0.0000 
     50 CA         57.1320  -45.7110   59.1790 C.3       9 GLL5        0.0000 
     51 CA         58.4350  -47.9330   56.2140 C.3       6 GLP5        0.0000 
     52 CA         57.2275  -47.9045   59.4580 C.3       3 GLC5        0.0000 
     53 CA         57.3230  -50.0980   59.7370 C.3       6 GLP5        0.0000 
     54 CA         55.4550  -45.1995   60.8975 C.3       3 GLC5        0.0000 
     55 CA         57.2490  -44.6180   60.0180 C.3       9 GLL5        0.0000 
     56 CA         48.0569  -41.4886   64.7055 C.3       3 GLC5        0.0000 
     57 CA         47.8840  -43.4560   64.4570 C.3       6 GLP5        0.0000 
     58 CA         47.4047  -35.4405   68.6540 C.3       3 GLC5        0.0000 
     59 CA         49.2560  -36.8450   68.7930 C.3       9 GLL5        0.0000 
     60 CA         45.3610  -34.6980   68.4230 C.3       6 GLP5        0.0000 
     61 CA         51.0754  -37.3544   69.2065 C.3       3 GLC5        0.0000 
     62 CA         55.5055  -39.1928   63.1815 C.3       3 GLC5        0.0000 
     63 CA         55.1970  -41.4240   62.6070 C.3       9 GLL5        0.0000 
     64 CA         55.5220  -37.4810   64.2290 C.3       6 GLP5        0.0000 
     65 CA         55.0514  -46.2561   59.8157 C.3       3 GLC5        0.0000 
     66 CA         54.9990  -44.8840   58.4590 C.3       9 GLL5        0.0000 
     67 CA         53.7870  -46.9740   60.8300 C.3       6 GLP5        0.0000 
@<TRIPOS>BOND
@<TRIPOS>SUBSTRUCTURE
     1 ALC1       15 GROUP        1 X    ALC  0     ROOT ALC X 1
     2 SEC2        1 GROUP        1 X    SEC  0     **** SEC X 2
     3 GLC5        6 GROUP        1 X    GLC  0     **** GLC X 6
     4 ALP1       17 GROUP        1 Y    ALP  0     ROOT ALP Y 8
     5 SEP2        3 GROUP        1 Y    SEP  0     **** SEP Y 9
     6 GLP5        8 GROUP        1 Y    GLP  0     **** GLP Y 13
     7 ALL1       16 GROUP        1 Z    ALL  0     ROOT ALL Z 15
     8 SEL2        2 GROUP        1 Z    SEL  0     **** SEL Z 16
     9 GLL5        7 GROUP        1 Z    GLL  0     **** GLL Z 20
@<TRIPOS>SET

