#    Name: 3gnq_NAD_6_ligand
#    Modification time : Tue Mar 25 12:44:36 2014

@<TRIPOS>MOLECULE
3gnq_NAD_6_ligand
   70    74     1     0     0
SMALL
NO_CHARGES


@<TRIPOS>ATOM
      1 PA         49.4300  -40.3850   61.6240 P.3       1 NAD901      0.0000 
      2 O1A        49.0440  -39.0060   61.2000 O.co2     1 NAD901      0.0000 
      3 O2A        48.6540  -41.4420   60.9460 O.co2     1 NAD901      0.0000 
      4 O5B        49.1220  -40.5390   63.1960 O.3       1 NAD901      0.0000 
      5 C5B        49.6040  -39.6350   64.1580 C.3       1 NAD901      0.0000 
      6 C4B        48.7270  -39.7880   65.3880 C.3       1 NAD901      0.0000 
      7 O4B        49.2470  -38.9870   66.4270 O.3       1 NAD901      0.0000 
      8 C3B        47.2940  -39.3310   65.1350 C.3       1 NAD901      0.0000 
      9 O3B        46.3640  -40.2980   65.5820 O.3       1 NAD901      0.0000 
     10 C2B        47.1460  -38.0490   65.9190 C.3       1 NAD901      0.0000 
     11 O2B        45.8630  -37.9310   66.4790 O.3       1 NAD901      0.0000 
     12 C1B        48.2100  -38.2100   66.9920 C.3       1 NAD901      0.0000 
     13 N9A        48.7310  -36.9460   67.5320 N.pl3     1 NAD901      0.0000 
     14 C8A        48.7930  -35.7130   66.9440 C.2       1 NAD901      0.0000 
     15 N7A        49.3510  -34.8600   67.8360 N.2       1 NAD901      0.0000 
     16 C5A        49.6410  -35.5210   68.9770 C.ar      1 NAD901      0.0000 
     17 C6A        50.2140  -35.1200   70.1850 C.ar      1 NAD901      0.0000 
     18 N6A        50.9770  -34.0260   70.2170 N.pl3     1 NAD901      0.0000 
     19 N1A        50.3810  -36.0700   71.1780 N.ar      1 NAD901      0.0000 
     20 C2A        49.9890  -37.3860   70.9780 C.ar      1 NAD901      0.0000 
     21 N3A        49.4250  -37.7670   69.7740 N.ar      1 NAD901      0.0000 
     22 C4A        49.2560  -36.8450   68.7930 C.ar      1 NAD901      0.0000 
     23 O3         51.0020  -40.6210   61.3760 O.3       1 NAD901      0.0000 
     24 PN         51.6290  -42.0730   61.0880 P.3       1 NAD901      0.0000 
     25 O1N        51.5370  -42.3820   59.6370 O.co2     1 NAD901      0.0000 
     26 O2N        51.1280  -42.9860   62.1330 O.co2     1 NAD901      0.0000 
     27 O5D        53.1930  -41.7930   61.3270 O.3       1 NAD901      0.0000 
     28 C5D        53.6770  -41.3860   62.5980 C.3       1 NAD901      0.0000 
     29 C4D        55.1970  -41.4240   62.6070 C.3       1 NAD901      0.0000 
     30 O4D        55.6490  -42.6900   62.1600 O.3       1 NAD901      0.0000 
     31 C3D        55.7810  -40.3850   61.6610 C.3       1 NAD901      0.0000 
     32 O3D        56.9340  -39.8180   62.2410 O.3       1 NAD901      0.0000 
     33 C2D        56.1340  -41.1710   60.4210 C.3       1 NAD901      0.0000 
     34 O2D        57.2180  -40.6190   59.7090 O.3       1 NAD901      0.0000 
     35 C1D        56.4600  -42.5400   61.0100 C.3       1 NAD901      0.0000 
     36 N1N        56.2620  -43.6730   60.0790 N.pl3     1 NAD901      0.0000 
     37 C2N        55.1400  -43.7960   59.3170 C.ar      1 NAD901      0.0000 
     38 C3N        54.9990  -44.8840   58.4590 C.ar      1 NAD901      0.0000 
     39 C7N        53.8630  -44.9330   57.4720 C.2       1 NAD901      0.0000 
     40 O7N        54.0810  -45.4370   56.1780 O.2       1 NAD901      0.0000 
     41 N7N        52.6650  -44.5030   57.8480 N.am      1 NAD901      0.0000 
     42 C4N        56.0000  -45.8470   58.3890 C.ar      1 NAD901      0.0000 
     43 C5N        57.1320  -45.7110   59.1790 C.ar      1 NAD901      0.0000 
     44 C6N        57.2490  -44.6180   60.0180 C.ar      1 NAD901      0.0000 
     45 H          49.5378  -38.5999   63.8269 H         1 NAD901      0.0000 
     46 H          50.6309  -39.8470   64.4512 H         1 NAD901      0.0000 
     47 H          48.7046  -40.8260   65.6740 H         1 NAD901      0.0000 
     48 H          47.1995  -39.1020   64.0959 H         1 NAD901      0.0000 
     49 H          47.4329  -37.2416   65.2929 H         1 NAD901      0.0000 
     50 H          47.7423  -38.7864   67.8118 H         1 NAD901      0.0000 
     51 H          48.4940  -35.4992   66.0611 H         1 NAD901      0.0000 
     52 H          51.4109  -33.8176   71.0935 H         1 NAD901      0.0000 
     53 H          51.0464  -33.5128   69.3616 H         1 NAD901      0.0000 
     54 H          50.1193  -38.0795   71.7295 H         1 NAD901      0.0000 
     55 H          53.3202  -42.0443   63.4014 H         1 NAD901      0.0000 
     56 H          53.3655  -40.3624   62.8455 H         1 NAD901      0.0000 
     57 H          55.5481  -41.2123   63.5989 H         1 NAD901      0.0000 
     58 H          55.0258  -39.6865   61.4253 H         1 NAD901      0.0000 
     59 H          55.2386  -41.2835   59.8422 H         1 NAD901      0.0000 
     60 H          57.5159  -42.5074   61.3185 H         1 NAD901      0.0000 
     61 H          54.3873  -43.0914   59.3652 H         1 NAD901      0.0000 
     62 H          52.5930  -44.1664   58.7869 H         1 NAD901      0.0000 
     63 H          51.9426  -44.5545   57.1584 H         1 NAD901      0.0000 
     64 H          55.9006  -46.6490   57.7591 H         1 NAD901      0.0000 
     65 H          57.8760  -46.4172   59.1398 H         1 NAD901      0.0000 
     66 H          58.0995  -44.5194   60.6065 H         1 NAD901      0.0000 
     67 H          46.5049  -40.3549   66.5704 H         1 NAD901      0.0000 
     68 H          45.8489  -38.5867   67.2339 H         1 NAD901      0.0000 
     69 H          56.7561  -38.8342   62.2615 H         1 NAD901      0.0000 
     70 H          57.5714  -39.8924   60.2983 H         1 NAD901      0.0000 
@<TRIPOS>BOND
     1    2    1 ar   
     2    3    1 ar   
     3    4    1 1    
     4   23    1 1    
     5    5    4 1    
     6    6    5 1    
     7   45    5 1    
     8   46    5 1    
     9    7    6 1    
    10    8    6 1    
    11   47    6 1    
    12   12    7 1    
    13    9    8 1    
    14   10    8 1    
    15   48    8 1    
    16   67    9 1    
    17   11   10 1    
    18   12   10 1    
    19   49   10 1    
    20   68   11 1    
    21   13   12 1    
    22   50   12 1    
    23   14   13 1    
    24   22   13 1    
    25   15   14 2    
    26   51   14 1    
    27   16   15 1    
    28   17   16 ar   
    29   22   16 ar   
    30   18   17 1    
    31   19   17 ar   
    32   52   18 1    
    33   53   18 1    
    34   20   19 ar   
    35   21   20 ar   
    36   54   20 1    
    37   22   21 ar   
    38   24   23 1    
    39   25   24 ar   
    40   26   24 ar   
    41   27   24 1    
    42   28   27 1    
    43   29   28 1    
    44   55   28 1    
    45   56   28 1    
    46   30   29 1    
    47   31   29 1    
    48   57   29 1    
    49   35   30 1    
    50   32   31 1    
    51   33   31 1    
    52   58   31 1    
    53   69   32 1    
    54   34   33 1    
    55   35   33 1    
    56   59   33 1    
    57   70   34 1    
    58   36   35 1    
    59   60   35 1    
    60   37   36 ar   
    61   44   36 ar   
    62   38   37 ar   
    63   61   37 1    
    64   39   38 1    
    65   42   38 ar   
    66   40   39 2    
    67   41   39 am   
    68   62   41 1    
    69   63   41 1    
    70   43   42 ar   
    71   64   42 1    
    72   44   43 ar   
    73   65   43 1    
    74   66   44 1    
@<TRIPOS>SUBSTRUCTURE
     1 NAD901      1 GROUP   
@<TRIPOS>SET

