#    Name: 2ow1_7MR_1_INTS_M
#    Modification time : Mon Mar 24 17:54:08 2014

@<TRIPOS>MOLECULE
2ow1_7MR_1_INTS_M
   61     0    12     0     0
SMALL
NO_CHARGES


@<TRIPOS>ATOM
      1 CA         28.2605    4.5175   53.5535 C.3       4 GLC5        0.0000 
      2 CA         26.4370    3.4740   53.0330 C.3      12 GLL5        0.0000 
      3 CA         30.0840    5.5610   54.0740 C.3       8 GLP5        0.0000 
      4 CA         23.8050    1.2665   50.6165 C.3       4 GLC5        0.0000 
      5 CA         23.8500    2.8140   52.2360 C.3      12 GLL5        0.0000 
      6 CA         23.7600   -0.2810   48.9970 C.3       8 GLP5        0.0000 
      7 CA         25.9905    3.9725   49.7515 C.3       4 GLC5        0.0000 
      8 CA         24.6460    3.6210   51.4290 C.3      12 GLL5        0.0000 
      9 CA         27.3350    4.3240   48.0740 C.3       8 GLP5        0.0000 
     10 CA         27.0865    3.6260   50.2665 C.3       4 GLC5        0.0000 
     11 CA         25.9400    3.9490   51.8230 C.3      12 GLL5        0.0000 
     12 CA         28.2330    3.3030   48.7100 C.3       8 GLP5        0.0000 
     13 CA         24.6105    6.5815   53.1570 C.3       4 GLC5        0.0000 
     14 CA         25.5370    6.6930   51.5370 C.3      12 GLL5        0.0000 
     15 CA         23.6840    6.4700   54.7770 C.3       8 GLP5        0.0000 
     16 CA         25.2010    7.6265   53.4515 C.3       4 GLC5        0.0000 
     17 CA         25.4890    8.0840   51.5420 C.3      12 GLL5        0.0000 
     18 CA         24.9130    7.1690   55.3610 C.3       8 GLP5        0.0000 
     19 CA         28.7710    9.3575   52.2405 C.3       4 GLC5        0.0000 
     20 CA         27.7380    8.1630   50.6880 C.3      12 GLL5        0.0000 
     21 CA         29.8040   10.5520   53.7930 C.3       8 GLP5        0.0000 
     22 CA         27.6765    6.7920   49.0080 C.3       4 GLC5        0.0000 
     23 CA         27.6150    5.4210   47.3280 C.3       8 GLP5        0.0000 
     24 CA         27.3645    9.0785   53.1445 C.3       4 GLC5        0.0000 
     25 CA         26.5890    8.8210   51.1170 C.3      12 GLL5        0.0000 
     26 CA         28.1400    9.3360   55.1720 C.3       8 GLP5        0.0000 
     27 N          28.7270   11.9390   51.8345 N.am      2 SEC2        0.0000 
     28 N          27.9060   11.1240   50.9140 N.am     10 SEL2        0.0000 
     29 N          29.5480   12.7540   52.7550 N.am      6 SEP2        0.0000 
     30 N          29.5695   11.2520   50.9855 N.am      2 SEC2        0.0000 
     31 N          31.2330   11.3800   51.0570 N.am      6 SEP2        0.0000 
     32 CA         22.4985   10.2125   47.6320 C.3       4 GLC5        0.0000 
     33 CA         23.7670   11.5230   47.6760 C.3      12 GLL5        0.0000 
     34 CA         21.2300    8.9020   47.5880 C.3       8 GLP5        0.0000 
     35 CA         25.8840   14.7385   48.9965 C.3       4 GLC5        0.0000 
     36 CA         24.6640   13.4340   48.1500 C.3      12 GLL5        0.0000 
     37 CA         27.1040   16.0430   49.8430 C.3       8 GLP5        0.0000 
     38 Zn         25.9720    8.5825   46.9585 Zn        3 ZIC7        0.0000 
     39 Zn         25.5960    9.2490   47.7660 Zn       11 ZIL7        0.0000 
     40 Zn         26.3480    7.9160   46.1510 Zn        7 ZIP7        0.0000 
     41 O          28.8990   10.6625   47.9490 O.2       1 ALC1        0.0000 
     42 O          27.5830   10.2230   47.3130 O.2       9 ALL1        0.0000 
     43 O          30.2150   11.1020   48.5850 O.2       5 ALP1        0.0000 
     44 Zn         27.2140    8.4935   46.3990 Zn        3 ZIC7        0.0000 
     45 Zn         28.0800    9.0710   46.6470 Zn       11 ZIL7        0.0000 
     46 O          29.1290    8.3610   47.3795 O.2       1 ALC1        0.0000 
     47 O          28.0800    9.0710   46.6470 O.2       9 ALL1        0.0000 
     48 O          30.1780    7.6510   48.1120 O.2       5 ALP1        0.0000 
     49 CA         27.4410    1.8115   53.9605 C.3       4 GLC5        0.0000 
     50 CA         28.8430    0.5530   54.4840 C.3       8 GLP5        0.0000 
     51 CA         23.8918    4.5220   53.8083 C.3       4 GLC5        0.0000 
     52 CA         24.3490    2.3340   53.4430 C.3      12 GLL5        0.0000 
     53 CA         25.9505    1.7945   50.9605 C.3       4 GLC5        0.0000 
     54 CA         26.6080   -0.1960   50.2950 C.3       8 GLP5        0.0000 
     55 CA         24.8368    4.9897   53.7035 C.3       4 GLC5        0.0000 
     56 CA         27.2843    5.3625   49.4843 C.3       4 GLC5        0.0000 
     57 CA         26.6830    6.0300   51.1040 C.3      12 GLL5        0.0000 
     58 CA         23.4115    7.6947   51.8877 C.3       4 GLC5        0.0000 
     59 CA         21.3100    8.0010   52.2360 C.3       8 GLP5        0.0000 
     60 CA         29.5945    6.9058   51.4053 C.3       4 GLC5        0.0000 
     61 CA         31.4280    6.3440   52.1240 C.3       8 GLP5        0.0000 
@<TRIPOS>BOND
@<TRIPOS>SUBSTRUCTURE
     1 ALC1       41 GROUP        1 X    ALC  0     ROOT ALC X 1
     2 SEC2       27 GROUP        1 X    SEC  0     **** SEC X 2
     3 ZIC7       38 GROUP        1 X    ZIC  0     **** ZIC X 5
     4 GLC5        1 GROUP        1 X    GLC  0     **** GLC X 6
     5 ALP1       43 GROUP        1 Y    ALP  0     ROOT ALP Y 8
     6 SEP2       29 GROUP        1 Y    SEP  0     **** SEP Y 9
     7 ZIP7       40 GROUP        1 Y    ZIP  0     **** ZIP Y 12
     8 GLP5        3 GROUP        1 Y    GLP  0     **** GLP Y 13
     9 ALL1       42 GROUP        1 Z    ALL  0     ROOT ALL Z 15
    10 SEL2       28 GROUP        1 Z    SEL  0     **** SEL Z 16
    11 ZIL7       39 GROUP        1 Z    ZIL  0     **** ZIL Z 19
    12 GLL5        2 GROUP        1 Z    GLL  0     **** GLL Z 20
@<TRIPOS>SET

