#    Name: 2ow1_7MR_1_ligand
#    Modification time : Mon Mar 24 17:54:08 2014

@<TRIPOS>MOLECULE
2ow1_7MR_1_ligand
   40    41     1     0     0
SMALL
NO_CHARGES


@<TRIPOS>ATOM
      1 CAI        26.4370    3.4740   53.0330 C.ar      1 7MR501      0.0000 
      2 CAH        25.6410    2.6660   53.8410 C.ar      1 7MR501      0.0000 
      3 CAG        24.3490    2.3340   53.4430 C.ar      1 7MR501      0.0000 
      4 CAR        23.8500    2.8140   52.2360 C.ar      1 7MR501      0.0000 
      5 CAS        24.6460    3.6210   51.4290 C.ar      1 7MR501      0.0000 
      6 CAT        25.9400    3.9490   51.8230 C.ar      1 7MR501      0.0000 
      7 OAU        26.7340    4.6730   50.9870 O.3       1 7MR501      0.0000 
      8 CAV        26.6830    6.0300   51.1040 C.ar      1 7MR501      0.0000 
      9 CAJ        25.5370    6.6930   51.5370 C.ar      1 7MR501      0.0000 
     10 CAK        25.4890    8.0840   51.5420 C.ar      1 7MR501      0.0000 
     11 CAW        27.7840    6.7720   50.6850 C.ar      1 7MR501      0.0000 
     12 CAX        27.7380    8.1630   50.6880 C.ar      1 7MR501      0.0000 
     13 CAL        26.5890    8.8210   51.1170 C.ar      1 7MR501      0.0000 
     14 SAM        26.5350   10.5690   51.1670 S.o2      1 7MR501      0.0000 
     15 OAY        26.0720   10.9890   52.5300 O.2       1 7MR501      0.0000 
     16 OAC        27.9060   11.1240   50.9140 O.2       1 7MR501      0.0000 
     17 CAN        25.3590   11.2230   49.9250 C.3       1 7MR501      0.0000 
     18 CAO        25.9410   11.5080   48.5360 C.3       1 7MR501      0.0000 
     19 CAP        24.9000   12.2180   47.6670 C.3       1 7MR501      0.0000 
     20 FBA        25.3430   12.3120   46.4170 F         1 7MR501      0.0000 
     21 FAF        23.7670   11.5230   47.6760 F         1 7MR501      0.0000 
     22 FAQ        24.6640   13.4340   48.1500 F         1 7MR501      0.0000 
     23 NAZ        27.1140   12.3840   48.6790 N.3       1 7MR501      0.0000 
     24 CAE        26.3640   10.2070   47.8450 C.2       1 7MR501      0.0000 
     25 OAB        25.5960    9.2490   47.7660 O.2       1 7MR501      0.0000 
     26 NAD        27.5830   10.2230   47.3130 N.am      1 7MR501      0.0000 
     27 OAA        28.0800    9.0710   46.6470 O.3       1 7MR501      0.0000 
     28 H          27.3892    3.7187   53.3299 H         1 7MR501      0.0000 
     29 H          26.0092    2.3134   54.7349 H         1 7MR501      0.0000 
     30 H          23.7650    1.7355   54.0396 H         1 7MR501      0.0000 
     31 H          22.8961    2.5731   51.9414 H         1 7MR501      0.0000 
     32 H          24.2762    3.9773   50.5362 H         1 7MR501      0.0000 
     33 H          24.7211    6.1506   51.8550 H         1 7MR501      0.0000 
     34 H          24.6385    8.5670   51.8606 H         1 7MR501      0.0000 
     35 H          28.6380    6.2882   50.3708 H         1 7MR501      0.0000 
     36 H          28.5531    8.7048   50.3732 H         1 7MR501      0.0000 
     37 H          24.9797   12.1101   50.4230 H         1 7MR501      0.0000 
     38 H          24.5905   10.4560   49.9205 H         1 7MR501      0.0000 
     39 H          28.1986   11.0516   47.3624 H         1 7MR501      0.0000 
     40 H          28.7855    8.7054   47.2541 H         1 7MR501      0.0000 
@<TRIPOS>BOND
     1    2    1 ar   
     2    6    1 ar   
     3   28    1 1    
     4    3    2 ar   
     5   29    2 1    
     6    4    3 ar   
     7   30    3 1    
     8    5    4 ar   
     9   31    4 1    
    10    6    5 ar   
    11   32    5 1    
    12    7    6 1    
    13    8    7 1    
    14    9    8 ar   
    15   11    8 ar   
    16   10    9 ar   
    17   33    9 1    
    18   13   10 ar   
    19   34   10 1    
    20   12   11 ar   
    21   35   11 1    
    22   13   12 ar   
    23   36   12 1    
    24   14   13 1    
    25   15   14 2    
    26   16   14 2    
    27   17   14 1    
    28   18   17 1    
    29   37   17 1    
    30   38   17 1    
    31   19   18 1    
    32   23   18 1    
    33   24   18 1    
    34   20   19 1    
    35   21   19 1    
    36   22   19 1    
    37   25   24 2    
    38   26   24 am   
    39   27   26 1    
    40   39   26 1    
    41   40   27 1    
@<TRIPOS>SUBSTRUCTURE
     1 7MR501      1 GROUP   
@<TRIPOS>SET

