#    Name: 3v0o_4GW_1_INTS_M
#    Modification time : Mon Mar 24 23:50:06 2014

@<TRIPOS>MOLECULE
3v0o_4GW_1_INTS_M
   49     0    12     0     0
SMALL
NO_CHARGES


@<TRIPOS>ATOM
      1 N          -3.7260  -58.3765   25.5260 N.am      2 SEC2        0.0000 
      2 N          -3.4890  -57.8160   24.2910 N.am     10 SEL2        0.0000 
      3 N          -3.9630  -58.9370   26.7610 N.am      6 SEP2        0.0000 
      4 CA         -6.9865  -53.5900   25.3760 C.3       4 GLC5        0.0000 
      5 CA         -8.0780  -53.9760   24.0450 C.3      12 GLL5        0.0000 
      6 CA         -5.8950  -53.2040   26.7070 C.3       8 GLP5        0.0000 
      7 CA         -7.2490  -51.8425   24.7045 C.3       4 GLC5        0.0000 
      8 CA         -8.4170  -52.7190   23.5290 C.3      12 GLL5        0.0000 
      9 CA         -6.0810  -50.9660   25.8800 C.3       8 GLP5        0.0000 
     10 O         -10.3515  -54.0590   26.8865 O.2       1 ALC1        0.0000 
     11 O          -9.7810  -53.7460   25.6420 O.2       9 ALL1        0.0000 
     12 O         -10.9220  -54.3720   28.1310 O.2       5 ALP1        0.0000 
     13 N         -11.9680  -52.1755   26.6670 N.am      2 SEC2        0.0000 
     14 N         -11.1060  -51.8910   25.5670 N.am     10 SEL2        0.0000 
     15 N         -12.8300  -52.4600   27.7670 N.am      6 SEP2        0.0000 
     16 CA        -10.9130  -52.6525   22.9890 C.3       4 GLC5        0.0000 
     17 CA         -9.9560  -50.7880   23.4290 C.3      12 GLL5        0.0000 
     18 CA        -11.8700  -54.5170   22.5490 C.3       8 GLP5        0.0000 
     19 O         -11.2685  -48.6125   25.0590 O.2       1 ALC1        0.0000 
     20 O         -10.4400  -48.5870   24.0090 O.2       9 ALL1        0.0000 
     21 O         -12.0970  -48.6380   26.1090 O.2       5 ALP1        0.0000 
     22 CA         -7.1670  -50.1160   24.6440 C.3       4 GLC5        0.0000 
     23 CA         -8.2530  -49.2660   23.4080 C.3      12 GLL5        0.0000 
     24 N          -8.3820  -46.6750   24.4505 N.am      2 SEC2        0.0000 
     25 N          -7.8810  -47.9520   23.7110 N.am     10 SEL2        0.0000 
     26 N          -8.8830  -45.3980   25.1900 N.am      6 SEP2        0.0000 
     27 O          -6.6170  -47.2230   24.0305 O.2       1 ALC1        0.0000 
     28 O          -7.8810  -47.9520   23.7110 O.2       9 ALL1        0.0000 
     29 O          -5.3530  -46.4940   24.3500 O.2       5 ALP1        0.0000 
     30 N          -4.3980  -51.8780   23.9045 N.am      2 SEC2        0.0000 
     31 N          -4.4690  -51.3030   22.7260 N.am     10 SEL2        0.0000 
     32 N          -4.3270  -52.4530   25.0830 N.am      6 SEP2        0.0000 
     33 Zn         -4.8335  -47.9275   22.5605 Zn        3 ZIC7        0.0000 
     34 Zn         -5.2660  -48.8750   22.7590 Zn       11 ZIL7        0.0000 
     35 Zn         -4.4010  -46.9800   22.3620 Zn        7 ZIP7        0.0000 
     36 Zn         -3.7820  -47.3795   21.6225 Zn        3 ZIC7        0.0000 
     37 Zn         -3.1630  -47.7790   20.8830 Zn       11 ZIL7        0.0000 
     38 N          -5.5315  -47.8215   18.5570 N.am      2 SEC2        0.0000 
     39 N          -4.3500  -48.4890   18.7600 N.am     10 SEL2        0.0000 
     40 N          -6.7130  -47.1540   18.3540 N.am      6 SEP2        0.0000 
     41 CA        -10.0587  -53.9322   23.1680 C.3       4 GLC5        0.0000 
     42 CA         -8.4550  -50.4660   25.2350 C.3       4 GLC5        0.0000 
     43 CA         -7.1890  -50.7490   26.6880 C.3       8 GLP5        0.0000 
     44 CA         -8.9983  -48.5460   25.5307 C.3       4 GLC5        0.0000 
     45 CA         -9.4860  -49.5780   24.1350 C.3      12 GLL5        0.0000 
     46 CA         -9.1270  -47.6700   27.2900 C.3       8 GLP5        0.0000 
     47 CA         -6.2005  -56.4850   22.2829 C.3       4 GLC5        0.0000 
     48 CA         -4.8330  -54.9800   22.3130 C.3      12 GLL5        0.0000 
     49 CA         -6.6750  -57.6600   21.1930 C.3       8 GLP5        0.0000 
@<TRIPOS>BOND
@<TRIPOS>SUBSTRUCTURE
     1 ALC1       10 GROUP        1 X    ALC  0     ROOT ALC X 1
     2 SEC2        1 GROUP        1 X    SEC  0     **** SEC X 2
     3 ZIC7       33 GROUP        1 X    ZIC  0     **** ZIC X 5
     4 GLC5        4 GROUP        1 X    GLC  0     **** GLC X 6
     5 ALP1       12 GROUP        1 Y    ALP  0     ROOT ALP Y 8
     6 SEP2        3 GROUP        1 Y    SEP  0     **** SEP Y 9
     7 ZIP7       35 GROUP        1 Y    ZIP  0     **** ZIP Y 12
     8 GLP5        6 GROUP        1 Y    GLP  0     **** GLP Y 13
     9 ALL1       11 GROUP        1 Z    ALL  0     ROOT ALL Z 15
    10 SEL2        2 GROUP        1 Z    SEL  0     **** SEL Z 16
    11 ZIL7       34 GROUP        1 Z    ZIL  0     **** ZIL Z 19
    12 GLL5        5 GROUP        1 Z    GLL  0     **** GLL Z 20
@<TRIPOS>SET

