#    Name: 3v0o_4GW_1_ligand
#    Modification time : Mon Mar 24 23:50:07 2014

@<TRIPOS>MOLECULE
3v0o_4GW_1_ligand
   45    47     1     0     0
SMALL
NO_CHARGES


@<TRIPOS>ATOM
      1 CBD        -3.5280  -56.9780   23.2270 C.2       1 4GW402      0.0000 
      2 OAD        -3.4890  -57.8160   24.2910 O.2       1 4GW402      0.0000 
      3 CBE        -4.6590  -56.0130   23.2330 C.2       1 4GW402      0.0000 
      4 SBB        -5.9940  -55.9730   24.2880 S.3       1 4GW402      0.0000 
      5 CAP        -4.8330  -54.9800   22.3130 C.2       1 4GW402      0.0000 
      6 CAQ        -6.0310  -54.2200   22.4950 C.2       1 4GW402      0.0000 
      7 CBF        -6.8190  -54.6540   23.5660 C.2       1 4GW402      0.0000 
      8 CBG        -8.0780  -53.9760   24.0450 C.2       1 4GW402      0.0000 
      9 CAR        -8.4170  -52.7190   23.5290 C.2       1 4GW402      0.0000 
     10 CBH        -8.7310  -54.4360   25.1910 C.2       1 4GW402      0.0000 
     11 OAE        -8.4180  -55.5080   25.7130 O.2       1 4GW402      0.0000 
     12 NAV        -9.7810  -53.7460   25.6420 N.am      1 4GW402      0.0000 
     13 CBI       -10.1540  -52.5830   25.0900 C.2       1 4GW402      0.0000 
     14 OAF       -11.1060  -51.8910   25.5670 O.2       1 4GW402      0.0000 
     15 NBS        -9.5000  -52.1010   24.0370 N.am      1 4GW402      0.0000 
     16 C1'        -9.9560  -50.7880   23.4290 C.3       1 4GW402      0.0000 
     17 O4'        -9.4850  -50.6100   22.0160 O.3       1 4GW402      0.0000 
     18 C2'        -9.4860  -49.5780   24.1350 C.3       1 4GW402      0.0000 
     19 O2'       -10.4400  -48.5870   24.0090 O.3       1 4GW402      0.0000 
     20 C3'        -8.2530  -49.2660   23.4080 C.3       1 4GW402      0.0000 
     21 O3'        -7.8810  -47.9520   23.7110 O.3       1 4GW402      0.0000 
     22 C4'        -8.6520  -49.4810   21.9800 C.3       1 4GW402      0.0000 
     23 C5'        -7.4520  -49.7730   21.0930 C.3       1 4GW402      0.0000 
     24 O5'        -6.5220  -50.7330   21.5450 O.3       1 4GW402      0.0000 
     25 PBT        -5.1130  -50.1910   22.0030 P.3       1 4GW402      0.0000 
     26 OAN        -4.4690  -51.3030   22.7260 O.co2     1 4GW402      0.0000 
     27 OAG        -5.2660  -48.8750   22.7590 O.co2     1 4GW402      0.0000 
     28 OBA        -4.3040  -50.0380   20.6400 O.3       1 4GW402      0.0000 
     29 PBU        -3.4860  -48.9200   19.9600 P.3       1 4GW402      0.0000 
     30 OAO        -2.3010  -49.6450   19.4250 O.co2     1 4GW402      0.0000 
     31 OAH        -3.1630  -47.7790   20.8830 O.co2     1 4GW402      0.0000 
     32 O1         -4.3500  -48.4890   18.7600 O.co2     1 4GW402      0.0000 
     33 H          -2.8911  -56.9573   22.4777 H         1 4GW402      0.0000 
     34 H          -4.1964  -54.7763   21.5930 H         1 4GW402      0.0000 
     35 H          -6.2634  -53.4685   21.9150 H         1 4GW402      0.0000 
     36 H          -7.8455  -52.3064   22.7921 H         1 4GW402      0.0000 
     37 H         -10.3365  -54.1263   26.4591 H         1 4GW402      0.0000 
     38 H         -11.0531  -50.7650   23.4049 H         1 4GW402      0.0000 
     39 H          -9.2528  -49.8443   25.1342 H         1 4GW402      0.0000 
     40 H          -7.5165  -49.9940   23.6705 H         1 4GW402      0.0000 
     41 H          -9.1656  -48.6230   21.6239 H         1 4GW402      0.0000 
     42 H          -6.9444  -48.7794   20.8953 H         1 4GW402      0.0000 
     43 H          -7.8614  -50.0542   20.0744 H         1 4GW402      0.0000 
     44 H         -10.6603  -48.3192   24.9470 H         1 4GW402      0.0000 
     45 H          -6.9054  -47.9035   23.4970 H         1 4GW402      0.0000 
@<TRIPOS>BOND
     1    2    1 2    
     2    3    1 1    
     3   33    1 1    
     4    4    3 1    
     5    5    3 2    
     6    7    4 1    
     7    6    5 1    
     8   34    5 1    
     9    7    6 2    
    10   35    6 1    
    11    8    7 1    
    12    9    8 2    
    13   10    8 1    
    14   15    9 1    
    15   36    9 1    
    16   11   10 2    
    17   12   10 1    
    18   13   12 1    
    19   37   12 1    
    20   14   13 2    
    21   15   13 1    
    22   16   15 1    
    23   17   16 1    
    24   18   16 1    
    25   38   16 1    
    26   22   17 1    
    27   19   18 1    
    28   20   18 1    
    29   39   18 1    
    30   44   19 1    
    31   21   20 1    
    32   22   20 1    
    33   40   20 1    
    34   45   21 1    
    35   23   22 1    
    36   41   22 1    
    37   24   23 1    
    38   42   23 1    
    39   43   23 1    
    40   25   24 1    
    41   26   25 ar   
    42   27   25 ar   
    43   28   25 1    
    44   29   28 1    
    45   30   29 ar   
    46   31   29 ar   
    47   32   29 ar   
@<TRIPOS>SUBSTRUCTURE
     1 4GW402      1 GROUP   
@<TRIPOS>SET

