#    Name: 2ze5_AMP_1_INTS_M
#    Modification time : Tue Mar 25 10:38:32 2014

@<TRIPOS>MOLECULE
2ze5_AMP_1_INTS_M
   59     0    12     0     0
SMALL
NO_CHARGES


@<TRIPOS>ATOM
      1 NZ         59.2065   53.4395   16.9410 N.4       3 LYC4        0.0000 
      2 NZ         60.0210   54.0210   15.9220 N.4      11 LYL4        0.0000 
      3 NZ         58.4790   51.5420   18.0420 N.4       7 LYP4        0.0000 
      4 N          59.6655   52.4570   16.5625 N.am      2 SEC2        0.0000 
      5 N          60.0210   54.0210   15.9220 N.am     10 SEL2        0.0000 
      6 N          59.3100   50.8930   17.2030 N.am      6 SEP2        0.0000 
      7 N          59.2065   53.4395   16.9410 N.am      2 SEC2        0.0000 
      8 N          58.3920   52.8580   17.9600 N.am      6 SEP2        0.0000 
      9 N          59.3100   55.1770   15.9880 N.am      2 SEC2        0.0000 
     10 N          58.5990   56.3330   16.0540 N.am      6 SEP2        0.0000 
     11 N          60.0290   55.2155   13.1205 N.am      2 SEC2        0.0000 
     12 N          60.8060   54.0640   13.5320 N.am     10 SEL2        0.0000 
     13 N          59.2520   56.3670   12.7090 N.am      6 SEP2        0.0000 
     14 N          57.6460   54.1540   13.6465 N.am      2 SEC2        0.0000 
     15 N          58.4910   53.1630   14.2030 N.am     10 SEL2        0.0000 
     16 N          56.8010   55.1450   13.0900 N.am      6 SEP2        0.0000 
     17 N          57.3645   53.2985   14.8400 N.am      2 SEC2        0.0000 
     18 N          56.2380   53.4340   15.4770 N.am      6 SEP2        0.0000 
     19 N          59.9240   51.3915   16.0020 N.am      2 SEC2        0.0000 
     20 N          60.5380   51.8900   14.8010 N.am     10 SEL2        0.0000 
     21 O          63.1740   47.5140   15.7540 O.2       1 ALC1        0.0000 
     22 O          61.8570   48.5820   15.4970 O.2       9 ALL1        0.0000 
     23 O          64.4910   46.4460   16.0110 O.2       5 ALP1        0.0000 
     24 CA         63.7375   50.6635   17.3265 C.3       4 GLC5        0.0000 
     25 CA         63.8990   49.7370   15.3780 C.3      12 GLL5        0.0000 
     26 CA         63.5760   51.5900   19.2750 C.3       8 GLP5        0.0000 
     27 CA         65.4345   48.4910   16.1570 C.3       4 GLC5        0.0000 
     28 CA         66.9700   47.2450   16.9360 C.3       8 GLP5        0.0000 
     29 N          65.3215   47.2705   14.0060 N.am      2 SEC2        0.0000 
     30 N          64.4920   48.5630   14.7960 N.am     10 SEL2        0.0000 
     31 N          66.1510   45.9780   13.2160 N.am      6 SEP2        0.0000 
     32 O          64.4915   47.5045   15.4035 O.2       1 ALC1        0.0000 
     33 O          64.4920   48.5630   14.7960 O.2       9 ALL1        0.0000 
     34 CA         65.0150   53.1905   18.2075 C.3       4 GLC5        0.0000 
     35 CA         65.5550   53.6530   16.4580 C.3      12 GLL5        0.0000 
     36 CA         64.4750   52.7280   19.9570 C.3       8 GLP5        0.0000 
     37 CA         66.2955   53.1145   18.7515 C.3       4 GLC5        0.0000 
     38 CA         66.7490   54.0850   17.2360 C.3      12 GLL5        0.0000 
     39 CA         65.8420   52.1440   20.2670 C.3       8 GLP5        0.0000 
     40 CA         68.2260   54.2030   18.7595 C.3       4 GLC5        0.0000 
     41 CA         69.7030   54.3210   20.2830 C.3       8 GLP5        0.0000 
     42 O          65.4530   55.8055   18.7690 O.2       1 ALC1        0.0000 
     43 O          66.8280   55.2530   17.9150 O.2       9 ALL1        0.0000 
     44 O          64.0780   56.3580   19.6230 O.2       5 ALP1        0.0000 
     45 O          65.8140   56.3905   17.9535 O.2       1 ALC1        0.0000 
     46 O          64.8000   57.5280   17.9920 O.2       5 ALP1        0.0000 
     47 O          67.8635   55.7905   18.5560 O.2       1 ALC1        0.0000 
     48 O          68.8990   56.3280   19.1970 O.2       5 ALP1        0.0000 
     49 CA         66.8370   52.0795   18.4505 C.3       4 GLC5        0.0000 
     50 CA         67.8320   52.0150   16.6340 C.3      12 GLL5        0.0000 
     51 CA         67.7605   50.5775   17.6325 C.3       4 GLC5        0.0000 
     52 CA         67.6890   49.1400   18.6310 C.3       8 GLP5        0.0000 
     53 CA         68.4195   51.0940   15.0960 C.3       4 GLC5        0.0000 
     54 CA         69.0070   50.1730   13.5580 C.3       8 GLP5        0.0000 
     55 N          67.5130   50.1155   15.6680 N.am      2 SEC2        0.0000 
     56 N          66.7750   51.5640   15.9570 N.am     10 SEL2        0.0000 
     57 N          68.2510   48.6670   15.3790 N.am      6 SEP2        0.0000 
     58 CA         64.6045   51.9525   17.5685 C.3       4 GLC5        0.0000 
     59 CA         65.6330   52.3150   15.8620 C.3      12 GLL5        0.0000 
@<TRIPOS>BOND
@<TRIPOS>SUBSTRUCTURE
     1 ALC1       21 GROUP        1 X    ALC  0     ROOT ALC X 1
     2 SEC2        4 GROUP        1 X    SEC  0     **** SEC X 2
     3 LYC4        1 GROUP        1 X    LYC  0     **** LYC X 4
     4 GLC5       24 GROUP        1 X    GLC  0     **** GLC X 6
     5 ALP1       23 GROUP        1 Y    ALP  0     ROOT ALP Y 8
     6 SEP2        6 GROUP        1 Y    SEP  0     **** SEP Y 9
     7 LYP4        3 GROUP        1 Y    LYP  0     **** LYP Y 11
     8 GLP5       26 GROUP        1 Y    GLP  0     **** GLP Y 13
     9 ALL1       22 GROUP        1 Z    ALL  0     ROOT ALL Z 15
    10 SEL2        5 GROUP        1 Z    SEL  0     **** SEL Z 16
    11 LYL4        2 GROUP        1 Z    LYL  0     **** LYL Z 18
    12 GLL5       25 GROUP        1 Z    GLL  0     **** GLL Z 20
@<TRIPOS>SET

