#    Name: 2ze5_AMP_1_ligand
#    Modification time : Tue Mar 25 10:38:32 2014

@<TRIPOS>MOLECULE
2ze5_AMP_1_ligand
   35    37     1     0     0
SMALL
NO_CHARGES


@<TRIPOS>ATOM
      1 P          59.9160   53.3700   14.4940 P.3       1 AMP401      0.0000 
      2 O1P        60.0210   54.0210   15.9220 O.co2     1 AMP401      0.0000 
      3 O2P        60.8060   54.0640   13.5320 O.co2     1 AMP401      0.0000 
      4 O3P        58.4910   53.1630   14.2030 O.co2     1 AMP401      0.0000 
      5 O5'        60.5380   51.8900   14.8010 O.3       1 AMP401      0.0000 
      6 C5'        60.6770   50.8980   13.7930 C.3       1 AMP401      0.0000 
      7 C4'        62.0680   50.2380   13.8340 C.3       1 AMP401      0.0000 
      8 O4'        63.0800   51.1860   13.6000 O.3       1 AMP401      0.0000 
      9 C3'        62.4130   49.7990   15.2370 C.3       1 AMP401      0.0000 
     10 O3'        61.8570   48.5820   15.4970 O.3       1 AMP401      0.0000 
     11 C2'        63.8990   49.7370   15.3780 C.3       1 AMP401      0.0000 
     12 O2'        64.4920   48.5630   14.7960 O.3       1 AMP401      0.0000 
     13 C1'        64.1840   50.9250   14.4730 C.3       1 AMP401      0.0000 
     14 N9         64.4570   52.1130   15.2720 N.pl3     1 AMP401      0.0000 
     15 C8         63.6390   53.1600   15.4590 C.2       1 AMP401      0.0000 
     16 N7         64.3090   54.0970   16.1960 N.2       1 AMP401      0.0000 
     17 C5         65.5550   53.6530   16.4580 C.ar      1 AMP401      0.0000 
     18 C6         66.7490   54.0850   17.2360 C.ar      1 AMP401      0.0000 
     19 N6         66.8280   55.2530   17.9150 N.pl3     1 AMP401      0.0000 
     20 N1         67.7930   53.2030   17.2780 N.ar      1 AMP401      0.0000 
     21 C2         67.8320   52.0150   16.6340 C.ar      1 AMP401      0.0000 
     22 N3         66.7750   51.5640   15.9570 N.ar      1 AMP401      0.0000 
     23 C4         65.6330   52.3150   15.8620 C.ar      1 AMP401      0.0000 
     24 H          60.5458   51.3181   12.7808 H         1 AMP401      0.0000 
     25 H          59.9310   50.0920   13.9027 H         1 AMP401      0.0000 
     26 H          62.1178   49.4200   13.1908 H         1 AMP401      0.0000 
     27 H          62.0475   50.5733   15.9146 H         1 AMP401      0.0000 
     28 H          64.1835   49.9797   16.3317 H         1 AMP401      0.0000 
     29 H          65.0736   50.6822   13.8861 H         1 AMP401      0.0000 
     30 H          62.7370   53.2502   15.1373 H         1 AMP401      0.0000 
     31 H          66.0030   55.8181   17.9159 H         1 AMP401      0.0000 
     32 H          67.7044   55.4475   18.3556 H         1 AMP401      0.0000 
     33 H          68.7136   51.4432   16.6722 H         1 AMP401      0.0000 
     34 H          62.6079   47.9286   15.4003 H         1 AMP401      0.0000 
     35 H          64.8293   48.0314   15.5728 H         1 AMP401      0.0000 
@<TRIPOS>BOND
     1    2    1 ar   
     2    3    1 ar   
     3    4    1 ar   
     4    5    1 1    
     5    6    5 1    
     6    7    6 1    
     7   24    6 1    
     8   25    6 1    
     9    8    7 1    
    10    9    7 1    
    11   26    7 1    
    12   13    8 1    
    13   10    9 1    
    14   11    9 1    
    15   27    9 1    
    16   34   10 1    
    17   12   11 1    
    18   13   11 1    
    19   28   11 1    
    20   35   12 1    
    21   14   13 1    
    22   29   13 1    
    23   15   14 1    
    24   23   14 1    
    25   16   15 2    
    26   30   15 1    
    27   17   16 1    
    28   18   17 ar   
    29   23   17 ar   
    30   19   18 1    
    31   20   18 ar   
    32   31   19 1    
    33   32   19 1    
    34   21   20 ar   
    35   22   21 ar   
    36   33   21 1    
    37   23   22 ar   
@<TRIPOS>SUBSTRUCTURE
     1 AMP401      1 GROUP   
@<TRIPOS>SET

