#    Name: 3fpz_AHZ_1_INTS_M
#    Modification time : Tue Mar 25 06:13:26 2014

@<TRIPOS>MOLECULE
3fpz_AHZ_1_INTS_M
  104     0    12     0     0
SMALL
NO_CHARGES


@<TRIPOS>ATOM
      1 N          53.3010   59.0580  -24.5155 N.am      2 SEC2        0.0000 
      2 N          53.7000   57.4220  -24.4910 N.am     10 SEL2        0.0000 
      3 N          52.9020   60.6940  -24.5400 N.am      6 SEP2        0.0000 
      4 O          52.5920   57.4015  -25.1945 O.2       1 ALC1        0.0000 
      5 O          53.7000   57.4220  -24.4910 O.2       9 ALL1        0.0000 
      6 O          51.4840   57.3810  -25.8980 O.2       5 ALP1        0.0000 
      7 CA         53.7140   53.7525  -24.2590 C.3       4 GLC5        0.0000 
      8 CA         53.3680   55.3340  -23.1990 C.3      12 GLL5        0.0000 
      9 CA         54.0600   52.1710  -25.3190 C.3       8 GLP5        0.0000 
     10 N          52.5420   54.7805  -25.7375 N.am      2 SEC2        0.0000 
     11 N          52.5450   54.9640  -24.3460 N.am     10 SEL2        0.0000 
     12 N          52.5390   54.5970  -27.1290 N.am      6 SEP2        0.0000 
     13 O          51.3440   55.6265  -24.4375 O.2       1 ALC1        0.0000 
     14 O          52.5450   54.9640  -24.3460 O.2       9 ALL1        0.0000 
     15 O          50.1430   56.2890  -24.5290 O.2       5 ALP1        0.0000 
     16 CA         50.8370   56.9085  -21.5775 C.3       4 GLC5        0.0000 
     17 CA         52.5000   57.4010  -22.3330 C.3      12 GLL5        0.0000 
     18 CA         49.1740   56.4160  -20.8220 C.3       8 GLP5        0.0000 
     19 CA         50.1305   61.1475  -19.3370 C.3       4 GLC5        0.0000 
     20 CA         51.7080   61.9180  -20.4780 C.3      12 GLL5        0.0000 
     21 CA         48.5530   60.3770  -18.1960 C.3       8 GLP5        0.0000 
     22 N          49.7260   63.4505  -21.0425 N.am      2 SEC2        0.0000 
     23 N          50.4930   62.0880  -21.0360 N.am     10 SEL2        0.0000 
     24 N          48.9590   64.8130  -21.0490 N.am      6 SEP2        0.0000 
     25 CA         49.2490   60.7480  -19.9945 C.3       4 GLC5        0.0000 
     26 CA         49.9450   61.1190  -21.7930 C.3      12 GLL5        0.0000 
     27 CA         47.8425   61.7730  -22.2495 C.3       4 GLC5        0.0000 
     28 CA         45.7400   62.4270  -22.7060 C.3       8 GLP5        0.0000 
     29 CA         49.0100   60.0470  -23.3455 C.3       4 GLC5        0.0000 
     30 CA         48.0750   58.9750  -24.8980 C.3       8 GLP5        0.0000 
     31 CA         51.0155   61.4625  -23.3430 C.3       4 GLC5        0.0000 
     32 CA         52.0860   61.8060  -24.8930 C.3       8 GLP5        0.0000 
     33 CA         49.6735   62.9425  -22.5955 C.3       4 GLC5        0.0000 
     34 CA         49.4020   64.7660  -23.3980 C.3       8 GLP5        0.0000 
     35 O          51.5915   64.2980  -19.4245 O.2       1 ALC1        0.0000 
     36 O          52.2270   62.8820  -19.6980 O.2       9 ALL1        0.0000 
     37 O          50.9560   65.7140  -19.1510 O.2       5 ALP1        0.0000 
     38 CA         50.4890   58.0790  -21.1710 C.3       4 GLC5        0.0000 
     39 CA         51.8040   59.7420  -21.5200 C.3      12 GLL5        0.0000 
     40 N          50.3325   60.1435  -23.6295 N.am      2 SEC2        0.0000 
     41 N          50.5660   59.9720  -22.0490 N.am     10 SEL2        0.0000 
     42 N          50.0990   60.3150  -25.2100 N.am      6 SEP2        0.0000 
     43 CA         50.8945   55.7500  -21.3435 C.3       4 GLC5        0.0000 
     44 CA         52.6150   55.0840  -21.8650 C.3      12 GLL5        0.0000 
     45 CA         54.6405   54.1475  -19.0090 C.3       4 GLC5        0.0000 
     46 CA         53.4610   54.2260  -20.8780 C.3      12 GLL5        0.0000 
     47 CA         55.8200   54.0690  -17.1400 C.3       8 GLP5        0.0000 
     48 N          55.3520   50.6975  -23.2020 N.am      2 SEC2        0.0000 
     49 N          54.9450   50.7960  -21.7910 N.am     10 SEL2        0.0000 
     50 N          55.7590   50.5990  -24.6130 N.am      6 SEP2        0.0000 
     51 N          51.3720   49.1570  -19.1320 N.am      2 SEC2        0.0000 
     52 N          52.6340   50.0720  -19.0230 N.am     10 SEL2        0.0000 
     53 N          50.1100   48.2420  -19.2410 N.am      6 SEP2        0.0000 
     54 N          51.6445   50.0735  -17.9800 N.am      2 SEC2        0.0000 
     55 N          50.6550   50.0750  -16.9370 N.am      6 SEP2        0.0000 
     56 N          51.5445   50.9835  -19.3780 N.am      2 SEC2        0.0000 
     57 N          50.4550   51.8950  -19.7330 N.am      6 SEP2        0.0000 
     58 N          54.6640   50.4540  -15.8615 N.am      2 SEC2        0.0000 
     59 N          54.3180   50.6700  -17.1920 N.am     10 SEL2        0.0000 
     60 N          55.0100   50.2380  -14.5310 N.am      6 SEP2        0.0000 
     61 CA         57.1280   49.2295  -17.1370 C.3       4 GLC5        0.0000 
     62 CA         56.3820   49.3040  -18.9340 C.3      12 GLL5        0.0000 
     63 CA         57.8740   49.1550  -15.3400 C.3       8 GLP5        0.0000 
     64 CA         60.2400   50.5040  -17.7615 C.3       4 GLC5        0.0000 
     65 CA         59.7200   49.0340  -18.9300 C.3      12 GLL5        0.0000 
     66 CA         60.7600   51.9740  -16.5930 C.3       8 GLP5        0.0000 
     67 NZ         64.0165   48.7915  -16.9540 N.4       3 LYC4        0.0000 
     68 NZ         62.3760   47.5400  -16.5040 N.4      11 LYL4        0.0000 
     69 NZ         65.8170   49.5080  -16.5470 N.4       7 LYP4        0.0000 
     70 N          63.7780   48.1410  -16.0830 N.am      2 SEC2        0.0000 
     71 N          62.3760   47.5400  -16.5040 N.am     10 SEL2        0.0000 
     72 N          65.1800   48.7420  -15.6620 N.am      6 SEP2        0.0000 
     73 N          62.5830   46.0175  -16.5305 N.am      2 SEC2        0.0000 
     74 N          62.7900   44.4950  -16.5570 N.am      6 SEP2        0.0000 
     75 NZ         64.1000   49.2390  -18.0135 N.4       3 LYC4        0.0000 
     76 NZ         62.8530   48.8410  -18.2460 N.4      11 LYL4        0.0000 
     77 N          62.3350   50.3315  -17.8520 N.am      2 SEC2        0.0000 
     78 N          62.8530   48.8410  -18.2460 N.am     10 SEL2        0.0000 
     79 N          61.8170   51.8220  -17.4580 N.am      6 SEP2        0.0000 
     80 N          64.0165   48.7915  -16.9540 N.am      2 SEC2        0.0000 
     81 N          64.1000   49.2390  -18.0135 N.am      2 SEC2        0.0000 
     82 N          65.3470   49.6370  -17.7810 N.am      6 SEP2        0.0000 
     83 CA         56.8140   44.5315  -20.1705 C.3       4 GLC5        0.0000 
     84 CA         57.9140   45.4940  -18.4940 C.3      12 GLL5        0.0000 
     85 CA         55.7140   43.5690  -21.8470 C.3       8 GLP5        0.0000 
     86 CA         56.1765   45.6060  -18.0835 C.3       4 GLC5        0.0000 
     87 CA         54.4390   45.7180  -17.6730 C.3       8 GLP5        0.0000 
     88 CA         53.9955   61.8708  -20.4527 C.3       4 GLC5        0.0000 
     89 CA         52.3960   60.7230  -20.7130 C.3      12 GLL5        0.0000 
     90 CA         55.9390   62.4210  -20.3100 C.3       8 GLP5        0.0000 
     91 CA         52.0070   61.1686  -22.9754 C.3       4 GLC5        0.0000 
     92 CA         51.7935   59.6201  -19.4104 C.3       4 GLC5        0.0000 
     93 CA         51.6590   58.7090  -17.7630 C.3       8 GLP5        0.0000 
     94 CA         51.9490   52.8715  -21.9982 C.3       4 GLC5        0.0000 
     95 CA         50.8600   51.0880  -22.6250 C.3       8 GLP5        0.0000 
     96 CA         52.9725   55.5640  -19.5877 C.3       4 GLC5        0.0000 
     97 CA         52.9070   56.4730  -17.8040 C.3       8 GLP5        0.0000 
     98 CA         55.7085   47.9810  -17.9873 C.3       4 GLC5        0.0000 
     99 CA         54.6660   47.1540  -16.5970 C.3       8 GLP5        0.0000 
    100 CA         58.4044   48.3864  -17.0592 C.3       4 GLC5        0.0000 
    101 CA         58.4230   47.9470  -19.1280 C.3      12 GLL5        0.0000 
    102 CA         58.6575   45.4937  -16.7415 C.3       4 GLC5        0.0000 
    103 CA         58.7980   46.7450  -18.5280 C.3      12 GLL5        0.0000 
    104 CA         58.9590   44.8680  -14.9720 C.3       8 GLP5        0.0000 
@<TRIPOS>BOND
@<TRIPOS>SUBSTRUCTURE
     1 ALC1        4 GROUP        1 X    ALC  0     ROOT ALC X 1
     2 SEC2        1 GROUP        1 X    SEC  0     **** SEC X 2
     3 LYC4       67 GROUP        1 X    LYC  0     **** LYC X 4
     4 GLC5        7 GROUP        1 X    GLC  0     **** GLC X 6
     5 ALP1        6 GROUP        1 Y    ALP  0     ROOT ALP Y 8
     6 SEP2        3 GROUP        1 Y    SEP  0     **** SEP Y 9
     7 LYP4       69 GROUP        1 Y    LYP  0     **** LYP Y 11
     8 GLP5        9 GROUP        1 Y    GLP  0     **** GLP Y 13
     9 ALL1        5 GROUP        1 Z    ALL  0     ROOT ALL Z 15
    10 SEL2        2 GROUP        1 Z    SEL  0     **** SEL Z 16
    11 LYL4       68 GROUP        1 Z    LYL  0     **** LYL Z 18
    12 GLL5        8 GROUP        1 Z    GLL  0     **** GLL Z 20
@<TRIPOS>SET

