#    Name: 3fpz_AHZ_1_ligand
#    Modification time : Tue Mar 25 06:13:26 2014

@<TRIPOS>MOLECULE
3fpz_AHZ_1_ligand
   57    60     1     0     0
SMALL
NO_CHARGES


@<TRIPOS>ATOM
      1 O2'        53.7000   57.4220  -24.4910 O.3       1 AHZ1100     0.0000 
      2 C2'        53.6720   56.8490  -23.1670 C.3       1 AHZ1100     0.0000 
      3 C3'        53.3680   55.3340  -23.1990 C.3       1 AHZ1100     0.0000 
      4 O3'        52.5450   54.9640  -24.3460 O.3       1 AHZ1100     0.0000 
      5 C1'        52.5000   57.4010  -22.3330 C.3       1 AHZ1100     0.0000 
      6 N9         52.6750   58.7180  -21.5970 N.pl3     1 AHZ1100     0.0000 
      7 C8         53.7500   59.0390  -20.8630 C.2       1 AHZ1100     0.0000 
      8 N7         53.6010   60.2580  -20.3290 N.2       1 AHZ1100     0.0000 
      9 C5         52.3960   60.7230  -20.7130 C.ar      1 AHZ1100     0.0000 
     10 C6         51.7080   61.9180  -20.4780 C.ar      1 AHZ1100     0.0000 
     11 N1         50.4930   62.0880  -21.0360 N.ar      1 AHZ1100     0.0000 
     12 C2         49.9450   61.1190  -21.7930 C.ar      1 AHZ1100     0.0000 
     13 N6         52.2270   62.8820  -19.6980 N.pl3     1 AHZ1100     0.0000 
     14 C4         51.8040   59.7420  -21.5200 C.ar      1 AHZ1100     0.0000 
     15 N3         50.5660   59.9720  -22.0490 N.ar      1 AHZ1100     0.0000 
     16 O4'        52.4490   56.4160  -21.2540 O.3       1 AHZ1100     0.0000 
     17 C4'        52.6150   55.0840  -21.8650 C.3       1 AHZ1100     0.0000 
     18 C5'        53.4610   54.2260  -20.8780 C.3       1 AHZ1100     0.0000 
     19 O5'        53.7900   52.9540  -21.4480 O.3       1 AHZ1100     0.0000 
     20 PA         54.9800   52.0100  -20.9680 P.3       1 AHZ1100     0.0000 
     21 O2A        54.9450   50.7960  -21.7910 O.co2     1 AHZ1100     0.0000 
     22 O1A        56.2270   52.8120  -20.8920 O.co2     1 AHZ1100     0.0000 
     23 O3A        54.5570   51.7520  -19.3870 O.3       1 AHZ1100     0.0000 
     24 PB         54.0220   50.3980  -18.6330 P.3       1 AHZ1100     0.0000 
     25 O1B        52.6340   50.0720  -19.0230 O.co2     1 AHZ1100     0.0000 
     26 O2B        54.3180   50.6700  -17.1920 O.co2     1 AHZ1100     0.0000 
     27 O3B        54.9840   49.2300  -19.1580 O.3       1 AHZ1100     0.0000 
     28 C7T        56.3820   49.3040  -18.9340 C.3       1 AHZ1100     0.0000 
     29 C6T        57.1200   48.3120  -19.8210 C.3       1 AHZ1100     0.0000 
     30 C5T        58.4230   47.9470  -19.1280 C.2       1 AHZ1100     0.0000 
     31 S1T        59.7200   49.0340  -18.9300 S.3       1 AHZ1100     0.0000 
     32 C2T        60.6770   47.8990  -18.1090 C.2       1 AHZ1100     0.0000 
     33 C1R        62.0820   48.1200  -17.5730 C.2       1 AHZ1100     0.0000 
     34 O1R        62.3760   47.5400  -16.5040 O.co2     1 AHZ1100     0.0000 
     35 O2R        62.8530   48.8410  -18.2460 O.co2     1 AHZ1100     0.0000 
     36 N3T        60.0240   46.7420  -17.9840 N.2       1 AHZ1100     0.0000 
     37 C4T        58.7980   46.7450  -18.5280 C.2       1 AHZ1100     0.0000 
     38 C1M        57.9140   45.4940  -18.4940 C.3       1 AHZ1100     0.0000 
     39 H          54.5618   56.9906  -22.6135 H         1 AHZ1100     0.0000 
     40 H          54.2882   54.8103  -23.1544 H         1 AHZ1100     0.0000 
     41 H          51.6092   57.3613  -22.8726 H         1 AHZ1100     0.0000 
     42 H          54.5338   58.4623  -20.7357 H         1 AHZ1100     0.0000 
     43 H          48.9759   61.2848  -22.1993 H         1 AHZ1100     0.0000 
     44 H          53.1383   62.7044  -19.3265 H         1 AHZ1100     0.0000 
     45 H          51.6555   63.6907  -19.5588 H         1 AHZ1100     0.0000 
     46 H          51.6972   54.6316  -22.0491 H         1 AHZ1100     0.0000 
     47 H          52.8718   54.1235  -19.9561 H         1 AHZ1100     0.0000 
     48 H          54.3582   54.8111  -20.6325 H         1 AHZ1100     0.0000 
     49 H          56.6419   49.0746  -17.8883 H         1 AHZ1100     0.0000 
     50 H          56.7793   50.3079  -19.1533 H         1 AHZ1100     0.0000 
     51 H          57.3324   48.7685  -20.7740 H         1 AHZ1100     0.0000 
     52 H          56.5187   47.4269  -19.9506 H         1 AHZ1100     0.0000 
     53 H          58.3619   44.7355  -18.0206 H         1 AHZ1100     0.0000 
     54 H          57.0485   45.6635  -18.0227 H         1 AHZ1100     0.0000 
     55 H          57.6888   45.1733  -19.4140 H         1 AHZ1100     0.0000 
     56 H          52.7609   57.3451  -24.8261 H         1 AHZ1100     0.0000 
     57 H          51.7352   55.5472  -24.2822 H         1 AHZ1100     0.0000 
@<TRIPOS>BOND
     1    2    1 1    
     2   56    1 1    
     3    3    2 1    
     4    5    2 1    
     5   39    2 1    
     6    4    3 1    
     7   17    3 1    
     8   40    3 1    
     9   57    4 1    
    10    6    5 1    
    11   16    5 1    
    12   41    5 1    
    13    7    6 1    
    14   14    6 1    
    15    8    7 2    
    16   42    7 1    
    17    9    8 1    
    18   10    9 ar   
    19   14    9 ar   
    20   11   10 ar   
    21   13   10 1    
    22   12   11 ar   
    23   15   12 ar   
    24   43   12 1    
    25   44   13 1    
    26   45   13 1    
    27   15   14 ar   
    28   17   16 1    
    29   18   17 1    
    30   46   17 1    
    31   19   18 1    
    32   47   18 1    
    33   48   18 1    
    34   20   19 1    
    35   21   20 ar   
    36   22   20 ar   
    37   23   20 1    
    38   24   23 1    
    39   25   24 ar   
    40   26   24 ar   
    41   27   24 1    
    42   28   27 1    
    43   29   28 1    
    44   49   28 1    
    45   50   28 1    
    46   30   29 1    
    47   51   29 1    
    48   52   29 1    
    49   31   30 1    
    50   37   30 2    
    51   32   31 1    
    52   33   32 1    
    53   36   32 2    
    54   34   33 ar   
    55   35   33 ar   
    56   37   36 1    
    57   38   37 1    
    58   53   38 1    
    59   54   38 1    
    60   55   38 1    
@<TRIPOS>SUBSTRUCTURE
     1 AHZ1100     1 GROUP   
@<TRIPOS>SET

