#    Name: 3tw6_ADP_7_INTS_M
#    Modification time : Mon Mar 24 21:05:39 2014

@<TRIPOS>MOLECULE
3tw6_ADP_7_INTS_M
   58     0    15     0     0
SMALL
NO_CHARGES


@<TRIPOS>ATOM
      1 Zn         54.3685   17.6205   18.0450 Zn        4 ZIC7        0.0000 
      2 Zn         53.5170   18.1680   18.1590 Zn       14 ZIL7        0.0000 
      3 Zn         55.2200   17.0730   17.9310 Zn        9 ZIP7        0.0000 
      4 Zn         55.6175   18.0720   18.0465 Zn        4 ZIC7        0.0000 
      5 Zn         56.0150   19.0710   18.1620 Zn       14 ZIL7        0.0000 
      6 NZ         56.6830   22.6640   19.2725 N.4       3 LYC4        0.0000 
      7 NZ         56.0420   21.5200   19.0330 N.4      13 LYL4        0.0000 
      8 NZ         57.3240   23.8080   19.5120 N.4       8 LYP4        0.0000 
      9 N          56.6830   22.6640   19.2725 N.am      2 SEC2        0.0000 
     10 N          56.0420   21.5200   19.0330 N.am     12 SEL2        0.0000 
     11 N          57.3240   23.8080   19.5120 N.am      7 SEP2        0.0000 
     12 CA         55.2605   22.8720   14.5955 C.3       5 GLC5        0.0000 
     13 CA         56.0340   20.9090   14.2220 C.3      15 GLL5        0.0000 
     14 CA         54.4870   24.8350   14.9690 C.3      10 GLP5        0.0000 
     15 CA         58.6935   20.4190   15.8780 C.3       5 GLC5        0.0000 
     16 CA         57.5130   20.6530   14.2200 C.3      15 GLL5        0.0000 
     17 CA         59.8740   20.1850   17.5360 C.3      10 GLP5        0.0000 
     18 N          58.4295   18.4170   14.0205 N.am      2 SEC2        0.0000 
     19 N          57.8330   19.3680   13.7240 N.am     12 SEL2        0.0000 
     20 N          59.0260   17.4660   14.3170 N.am      7 SEP2        0.0000 
     21 N          57.5390   18.6865   12.5520 N.am      2 SEC2        0.0000 
     22 N          57.2450   18.0050   11.3800 N.am      7 SEP2        0.0000 
     23 CA         58.9155   21.0775   11.5295 C.3       5 GLC5        0.0000 
     24 CA         58.0320   21.7250   13.2980 C.3      15 GLL5        0.0000 
     25 CA         59.7990   20.4300    9.7610 C.3      10 GLP5        0.0000 
     26 O          56.8880   20.6090   11.2890 O.2       1 ALC1        0.0000 
     27 O          57.7110   21.4720   11.9410 O.2      11 ALL1        0.0000 
     28 O          56.0650   19.7460   10.6370 O.2       6 ALP1        0.0000 
     29 CA         55.8265   23.8635   14.2910 C.3       5 GLC5        0.0000 
     30 CA         57.1660   22.8920   13.6130 C.3      15 GLL5        0.0000 
     31 CA         55.1765   22.6100   12.8670 C.3       5 GLC5        0.0000 
     32 CA         53.1870   22.3280   12.1210 C.3      10 GLP5        0.0000 
     33 N          57.7745   24.3085   18.0310 N.am      2 SEC2        0.0000 
     34 N          58.2250   24.8090   16.5500 N.am     12 SEL2        0.0000 
     35 CA         60.6860   28.3250   14.8385 C.3       5 GLC5        0.0000 
     36 CA         60.0660   26.4370   15.5940 C.3      15 GLL5        0.0000 
     37 CA         61.3060   30.2130   14.0830 C.3      10 GLP5        0.0000 
     38 CA         62.2165   26.2730   15.1215 C.3       5 GLC5        0.0000 
     39 CA         64.3670   26.1090   14.6490 C.3      10 GLP5        0.0000 
     40 O          61.4045   28.2075   16.6270 O.2       1 ALC1        0.0000 
     41 O          60.4030   27.1300   16.7110 O.2      11 ALL1        0.0000 
     42 O          62.4060   29.2850   16.5430 O.2       6 ALP1        0.0000 
     43 N          61.6940   27.5130   13.9210 N.am      2 SEC2        0.0000 
     44 N          60.6640   26.7120   14.4000 N.am     12 SEL2        0.0000 
     45 N          62.7240   28.3140   13.4420 N.am      7 SEP2        0.0000 
     46 CA         60.8280   28.1290   13.6765 C.3       5 GLC5        0.0000 
     47 CA         60.3500   26.0450   13.2700 C.3      15 GLL5        0.0000 
     48 CA         62.2305   26.1340   13.2115 C.3       5 GLC5        0.0000 
     49 CA         64.1110   26.2230   13.1530 C.3      10 GLP5        0.0000 
     50 CA         61.1180   24.7125   14.2555 C.3       5 GLC5        0.0000 
     51 CA         61.8860   23.3800   15.2410 C.3      10 GLP5        0.0000 
     52 CA         56.6125   24.7675   14.6595 C.3       5 GLC5        0.0000 
     53 CA         58.7380   24.7000   14.3500 C.3      15 GLL5        0.0000 
     54 CA         54.4315   21.4905   13.4823 C.3       5 GLC5        0.0000 
     55 CA         59.6003   21.1500   14.0130 C.3       5 GLC5        0.0000 
     56 CA         61.4280   21.1110   14.2670 C.3      10 GLP5        0.0000 
     57 CA         60.5144   24.3407   15.1103 C.3       5 GLC5        0.0000 
     58 CA         59.0290   25.3690   15.6240 C.3      15 GLL5        0.0000 
@<TRIPOS>BOND
@<TRIPOS>SUBSTRUCTURE
     1 ALC1       26 GROUP        1 X    ALC  0     ROOT ALC X 1
     2 SEC2        9 GROUP        1 X    SEC  0     **** SEC X 2
     3 LYC4        6 GROUP        1 X    LYC  0     **** LYC X 4
     4 ZIC7        1 GROUP        1 X    ZIC  0     **** ZIC X 5
     5 GLC5       12 GROUP        1 X    GLC  0     **** GLC X 6
     6 ALP1       28 GROUP        1 Y    ALP  0     ROOT ALP Y 8
     7 SEP2       11 GROUP        1 Y    SEP  0     **** SEP Y 9
     8 LYP4        8 GROUP        1 Y    LYP  0     **** LYP Y 11
     9 ZIP7        3 GROUP        1 Y    ZIP  0     **** ZIP Y 12
    10 GLP5       14 GROUP        1 Y    GLP  0     **** GLP Y 13
    11 ALL1       27 GROUP        1 Z    ALL  0     ROOT ALL Z 15
    12 SEL2       10 GROUP        1 Z    SEL  0     **** SEL Z 16
    13 LYL4        7 GROUP        1 Z    LYL  0     **** LYL Z 18
    14 ZIL7        2 GROUP        1 Z    ZIL  0     **** ZIL Z 19
    15 GLL5       13 GROUP        1 Z    GLL  0     **** GLL Z 20
@<TRIPOS>SET

