#    Name: 3tw6_ADP_7_ligand
#    Modification time : Mon Mar 24 21:05:39 2014

@<TRIPOS>MOLECULE
3tw6_ADP_7_ligand
   39    41     1     0     0
SMALL
NO_CHARGES


@<TRIPOS>ATOM
      1 PB         52.8020   19.4630   18.4670 P.3       1 ADP2000     0.0000 
      2 O1B        52.3860   19.6260   19.8990 O.co2     1 ADP2000     0.0000 
      3 O2B        53.5170   18.1680   18.1590 O.co2     1 ADP2000     0.0000 
      4 O3B        51.6120   19.8270   17.6190 O.co2     1 ADP2000     0.0000 
      5 PA         55.5130   20.4910   18.0910 P.3       1 ADP2000     0.0000 
      6 O1A        56.0150   19.0710   18.1620 O.co2     1 ADP2000     0.0000 
      7 O2A        56.0420   21.5200   19.0330 O.co2     1 ADP2000     0.0000 
      8 O3A        53.8960   20.6220   18.1500 O.3       1 ADP2000     0.0000 
      9 O5'        55.8310   21.0640   16.6270 O.3       1 ADP2000     0.0000 
     10 C5'        55.3180   20.3970   15.4650 C.3       1 ADP2000     0.0000 
     11 C4'        56.0340   20.9090   14.2220 C.3       1 ADP2000     0.0000 
     12 O4'        55.9370   22.3470   14.1080 O.3       1 ADP2000     0.0000 
     13 C3'        57.5130   20.6530   14.2200 C.3       1 ADP2000     0.0000 
     14 O3'        57.8330   19.3680   13.7240 O.3       1 ADP2000     0.0000 
     15 C2'        58.0320   21.7250   13.2980 C.3       1 ADP2000     0.0000 
     16 O2'        57.7110   21.4720   11.9410 O.3       1 ADP2000     0.0000 
     17 C1'        57.1660   22.8920   13.6130 C.3       1 ADP2000     0.0000 
     18 N9         57.8020   23.7950   14.6120 N.pl3     1 ADP2000     0.0000 
     19 C8         57.5010   23.8610   15.9240 C.2       1 ADP2000     0.0000 
     20 N7         58.2250   24.8090   16.5500 N.2       1 ADP2000     0.0000 
     21 C5         59.0290   25.3690   15.6240 C.ar      1 ADP2000     0.0000 
     22 C6         60.0660   26.4370   15.5940 C.ar      1 ADP2000     0.0000 
     23 N6         60.4030   27.1300   16.7110 N.pl3     1 ADP2000     0.0000 
     24 N1         60.6640   26.7120   14.4000 N.ar      1 ADP2000     0.0000 
     25 C2         60.3500   26.0450   13.2700 C.ar      1 ADP2000     0.0000 
     26 N3         59.4220   25.0690   13.2390 N.ar      1 ADP2000     0.0000 
     27 C4         58.7380   24.7000   14.3500 C.ar      1 ADP2000     0.0000 
     28 H          54.2455   20.5795   15.3369 H         1 ADP2000     0.0000 
     29 H          55.4718   19.3139   15.5219 H         1 ADP2000     0.0000 
     30 H          55.6091   20.4507   13.3416 H         1 ADP2000     0.0000 
     31 H          57.8918   20.8460   15.1959 H         1 ADP2000     0.0000 
     32 H          59.0107   21.9535   13.4819 H         1 ADP2000     0.0000 
     33 H          56.9839   23.4366   12.6947 H         1 ADP2000     0.0000 
     34 H          56.8341   23.2870   16.3697 H         1 ADP2000     0.0000 
     35 H          61.3520   27.4404   16.7667 H         1 ADP2000     0.0000 
     36 H          59.6726   27.2691   17.3796 H         1 ADP2000     0.0000 
     37 H          60.8533   26.2993   12.3728 H         1 ADP2000     0.0000 
     38 H          57.1061   18.7712   14.0638 H         1 ADP2000     0.0000 
     39 H          57.0767   20.6993   11.9649 H         1 ADP2000     0.0000 
@<TRIPOS>BOND
     1    2    1 ar   
     2    3    1 ar   
     3    4    1 ar   
     4    8    1 1    
     5    6    5 ar   
     6    7    5 ar   
     7    8    5 1    
     8    9    5 1    
     9   10    9 1    
    10   11   10 1    
    11   28   10 1    
    12   29   10 1    
    13   12   11 1    
    14   13   11 1    
    15   30   11 1    
    16   17   12 1    
    17   14   13 1    
    18   15   13 1    
    19   31   13 1    
    20   38   14 1    
    21   16   15 1    
    22   17   15 1    
    23   32   15 1    
    24   39   16 1    
    25   18   17 1    
    26   33   17 1    
    27   19   18 1    
    28   27   18 1    
    29   20   19 2    
    30   34   19 1    
    31   21   20 1    
    32   22   21 ar   
    33   27   21 ar   
    34   23   22 1    
    35   24   22 ar   
    36   35   23 1    
    37   36   23 1    
    38   25   24 ar   
    39   26   25 ar   
    40   37   25 1    
    41   27   26 ar   
@<TRIPOS>SUBSTRUCTURE
     1 ADP2000     1 GROUP   
@<TRIPOS>SET

