#    Name: 3nxv_D2F_1_INTS_M
#    Modification time : Tue Mar 25 02:56:11 2014

@<TRIPOS>MOLECULE
3nxv_D2F_1_INTS_M
   68     0     9     0     0
SMALL
NO_CHARGES


@<TRIPOS>ATOM
      1 N          -4.0045   16.9055   -4.8135 N.am      2 SEC2        0.0000 
      2 N          -3.6180   17.6400   -3.7990 N.am      8 SEL2        0.0000 
      3 N          -4.3910   16.1710   -5.8280 N.am      5 SEP2        0.0000 
      4 CA         -1.6610   20.4770   -4.0715 C.3       3 GLC5        0.0000 
      5 CA         -3.0420   18.8570   -4.0000 C.3       9 GLL5        0.0000 
      6 CA         -0.2800   22.0970   -4.1430 C.3       6 GLP5        0.0000 
      7 CA         -3.7290   20.7010   -3.2870 C.3       3 GLC5        0.0000 
      8 CA         -4.4160   22.5450   -2.5740 C.3       6 GLP5        0.0000 
      9 CA         -4.9430   18.9345   -4.3860 C.3       3 GLC5        0.0000 
     10 CA         -6.8440   19.0120   -4.7720 C.3       6 GLP5        0.0000 
     11 CA         -1.4390   17.8130   -3.9430 C.3       3 GLC5        0.0000 
     12 CA          0.1640   16.7690   -3.8860 C.3       6 GLP5        0.0000 
     13 CA         -3.6845   20.9180   -2.1360 C.3       3 GLC5        0.0000 
     14 CA         -2.9530   19.2910   -1.6980 C.3       9 GLL5        0.0000 
     15 CA         -5.3535   18.1170   -3.6580 C.3       3 GLC5        0.0000 
     16 CA         -3.8630   17.2220   -2.5440 C.3       9 GLL5        0.0000 
     17 CA         -1.8495   16.9955   -3.2150 C.3       3 GLC5        0.0000 
     18 CA          0.3570   17.7790    5.8470 C.3       3 GLC5        0.0000 
     19 CA         -0.3710   17.2730    3.9360 C.3       9 GLL5        0.0000 
     20 CA          1.0850   18.2850    7.7580 C.3       6 GLP5        0.0000 
     21 CA          0.2280   15.9540    5.3955 C.3       3 GLC5        0.0000 
     22 CA          0.8270   14.6350    6.8550 C.3       6 GLP5        0.0000 
     23 CA          1.4825   16.8020    3.6415 C.3       3 GLC5        0.0000 
     24 CA          3.3360   16.3310    3.3470 C.3       6 GLP5        0.0000 
     25 CA         -5.8240   13.2875   -1.1780 C.3       3 GLC5        0.0000 
     26 CA         -4.3650   12.1890   -0.9770 C.3       9 GLL5        0.0000 
     27 CA         -7.2830   14.3860   -1.3790 C.3       6 GLP5        0.0000 
     28 CA         -2.7070   12.5140   -1.5965 C.3       3 GLC5        0.0000 
     29 CA         -1.0490   12.8390   -2.2160 C.3       6 GLP5        0.0000 
     30 O          -3.3150   18.5100   -6.2130 O.2       1 ALC1        0.0000 
     31 O          -2.8070   19.2400   -5.2570 O.2       7 ALL1        0.0000 
     32 O          -3.8230   17.7800   -7.1690 O.2       4 ALP1        0.0000 
     33 O          -3.4760   19.7135   -6.7695 O.2       1 ALC1        0.0000 
     34 O          -4.1450   20.1870   -8.2820 O.2       4 ALP1        0.0000 
     35 O          -4.4020   16.0860   -4.1075 O.2       1 ALC1        0.0000 
     36 O          -4.4130   16.0010   -2.3870 O.2       7 ALL1        0.0000 
     37 O          -4.3910   16.1710   -5.8280 O.2       4 ALP1        0.0000 
     38 CA         -6.0800   16.2465    0.6735 C.3       3 GLC5        0.0000 
     39 CA         -4.1790   16.8130    0.6880 C.3       9 GLL5        0.0000 
     40 CA         -7.9810   15.6800    0.6590 C.3       6 GLP5        0.0000 
     41 CA         -5.2930   18.2235    1.0465 C.3       3 GLC5        0.0000 
     42 CA         -6.4070   19.6340    1.4050 C.3       6 GLP5        0.0000 
     43 CA         -5.4125   13.9560    5.6085 C.3       3 GLC5        0.0000 
     44 CA         -5.0160   13.5200    3.7190 C.3       9 GLL5        0.0000 
     45 CA         -5.8090   14.3920    7.4980 C.3       6 GLP5        0.0000 
     46 CA         -6.5575   13.3340    0.7505 C.3       3 GLC5        0.0000 
     47 CA         -5.0420   12.3760    1.6110 C.3       9 GLL5        0.0000 
     48 CA         -8.0730   14.2920   -0.1100 C.3       6 GLP5        0.0000 
     49 CA         -0.1935   16.0675    0.2565 C.3       3 GLC5        0.0000 
     50 CA         -1.9180   15.6560    0.8240 C.3       9 GLL5        0.0000 
     51 CA          1.5310   16.4790   -0.3110 C.3       6 GLP5        0.0000 
     52 N          -4.2690   20.0180   -0.6955 N.am      2 SEC2        0.0000 
     53 N          -2.7110   19.8860   -0.5210 N.am      8 SEL2        0.0000 
     54 N          -5.8270   20.1500   -0.8700 N.am      5 SEP2        0.0000 
     55 CA         -5.8510   13.9325   -0.1765 C.3       3 GLC5        0.0000 
     56 CA         -4.4190   13.4790    1.0260 C.3       9 GLL5        0.0000 
     57 CA         -1.8055   18.0730    4.8667 C.3       3 GLC5        0.0000 
     58 CA         -1.3890   16.9930    2.8630 C.3       9 GLL5        0.0000 
     59 CA         -2.7310   19.0130    6.3340 C.3       6 GLP5        0.0000 
     60 CA         -0.0785   18.8875    3.7327 C.3       3 GLC5        0.0000 
     61 CA          0.7230   20.6420    4.0660 C.3       6 GLP5        0.0000 
     62 CA         -6.1117   15.1527    1.5595 C.3       3 GLC5        0.0000 
     63 CA         -4.3950   14.6250    3.1380 C.3       9 GLL5        0.0000 
     64 CA         -0.8780   14.2587    0.2083 C.3       3 GLC5        0.0000 
     65 CA         -0.2620   12.8390   -1.0450 C.3       6 GLP5        0.0000 
     66 CA          0.1445   17.0715    1.4806 C.3       3 GLC5        0.0000 
     67 CA         -1.0700   15.7010    2.0990 C.3       9 GLL5        0.0000 
     68 CA          1.2640   17.7260    0.2120 C.3       6 GLP5        0.0000 
@<TRIPOS>BOND
@<TRIPOS>SUBSTRUCTURE
     1 ALC1       30 GROUP        1 X    ALC  0     ROOT ALC X 1
     2 SEC2        1 GROUP        1 X    SEC  0     **** SEC X 2
     3 GLC5        4 GROUP        1 X    GLC  0     **** GLC X 6
     4 ALP1       32 GROUP        1 Y    ALP  0     ROOT ALP Y 8
     5 SEP2        3 GROUP        1 Y    SEP  0     **** SEP Y 9
     6 GLP5        6 GROUP        1 Y    GLP  0     **** GLP Y 13
     7 ALL1       31 GROUP        1 Z    ALL  0     ROOT ALL Z 15
     8 SEL2        2 GROUP        1 Z    SEL  0     **** SEL Z 16
     9 GLL5        5 GROUP        1 Z    GLL  0     **** GLL Z 20
@<TRIPOS>SET

