#    Name: 3nxv_D2F_1_ligand
#    Modification time : Tue Mar 25 02:56:11 2014

@<TRIPOS>MOLECULE
3nxv_D2F_1_ligand
   47    49     1     0     0
SMALL
NO_CHARGES


@<TRIPOS>ATOM
      1 N1         -3.6180   17.6400   -3.7990 N.ar      1 D2F187      0.0000 
      2 C2         -3.0420   18.8570   -4.0000 C.ar      1 D2F187      0.0000 
      3 N3         -2.7460   19.6780   -2.9640 N.ar      1 D2F187      0.0000 
      4 C4         -2.9530   19.2910   -1.6980 C.ar      1 D2F187      0.0000 
      5 C5         -3.5240   18.0460   -1.4350 C.ar      1 D2F187      0.0000 
      6 C6         -3.8630   17.2220   -2.5440 C.ar      1 D2F187      0.0000 
      7 CAA        -0.3710   17.2730    3.9360 C.3       1 D2F187      0.0000 
      8 CAB        -4.3650   12.1890   -0.9770 C.3       1 D2F187      0.0000 
      9 NAC        -2.8070   19.2400   -5.2570 N.pl3     1 D2F187      0.0000 
     10 NAD        -4.4130   16.0010   -2.3870 N.pl3     1 D2F187      0.0000 
     11 CAE        -4.1790   16.8130    0.6880 C.2       1 D2F187      0.0000 
     12 CAF        -5.3490   12.4010    2.9650 C.ar      1 D2F187      0.0000 
     13 CAG        -5.0160   13.5200    3.7190 C.ar      1 D2F187      0.0000 
     14 CAH        -5.0420   12.3760    1.6110 C.ar      1 D2F187      0.0000 
     15 CAI        -4.3950   14.6250    3.1380 C.ar      1 D2F187      0.0000 
     16 CAJ        -3.1440   19.0340    0.5250 C.2       1 D2F187      0.0000 
     17 CAK        -1.3890   16.9930    2.8630 C.3       1 D2F187      0.0000 
     18 CAL        -1.0700   15.7010    2.0990 C.3       1 D2F187      0.0000 
     19 CAM        -1.9180   15.6560    0.8240 C.3       1 D2F187      0.0000 
     20 OAP        -4.1080   13.4500   -0.2960 O.3       1 D2F187      0.0000 
     21 OAQ        -2.7110   19.8860   -0.5210 O.3       1 D2F187      0.0000 
     22 CAR        -3.4320   15.7220    1.1530 C.2       1 D2F187      0.0000 
     23 CAT        -3.6290   17.9310   -0.0440 C.2       1 D2F187      0.0000 
     24 CAV        -4.4190   13.4790    1.0260 C.ar      1 D2F187      0.0000 
     25 CAW        -4.0900   14.6260    1.7820 C.ar      1 D2F187      0.0000 
     26 H          -2.0471   19.8767   -5.3883 H         1 D2F187      0.0000 
     27 H          -3.4119   18.8558   -5.9544 H         1 D2F187      0.0000 
     28 H          -4.5925   15.4880   -3.2264 H         1 D2F187      0.0000 
     29 H          -4.5925   15.7171   -1.4451 H         1 D2F187      0.0000 
     30 H          -5.2125   16.8356    0.8761 H         1 D2F187      0.0000 
     31 H          -5.8165   11.6025    3.4045 H         1 D2F187      0.0000 
     32 H          -5.2325   13.5354    4.7326 H         1 D2F187      0.0000 
     33 H          -5.2702   11.5545    1.0426 H         1 D2F187      0.0000 
     34 H          -4.1620   15.4435    3.7182 H         1 D2F187      0.0000 
     35 H          -3.0790   19.2540    1.4449 H         1 D2F187      0.0000 
     36 H          -1.4149   17.8235    2.1505 H         1 D2F187      0.0000 
     37 H          -2.3833   16.8983    3.3107 H         1 D2F187      0.0000 
     38 H          -1.3085   14.8505    2.7195 H         1 D2F187      0.0000 
     39 H          -0.0233   15.6908    1.8351 H         1 D2F187      0.0000 
     40 H          -1.7171   14.7317    0.2870 H         1 D2F187      0.0000 
     41 H          -1.6616   16.5000    0.1877 H         1 D2F187      0.0000 
     42 H           0.5492   17.3736    3.5577 H         1 D2F187      0.0000 
     43 H          -0.5774   18.1159    4.4329 H         1 D2F187      0.0000 
     44 H          -0.3314   16.5368    4.6115 H         1 D2F187      0.0000 
     45 H          -4.1172   12.2323   -1.9448 H         1 D2F187      0.0000 
     46 H          -3.8438   11.4365   -0.5744 H         1 D2F187      0.0000 
     47 H          -5.3307   11.9332   -0.9329 H         1 D2F187      0.0000 
@<TRIPOS>BOND
     1    2    1 ar   
     2    6    1 ar   
     3    3    2 ar   
     4    9    2 1    
     5    4    3 ar   
     6    5    4 ar   
     7   21    4 1    
     8    6    5 ar   
     9   23    5 1    
    10   10    6 1    
    11   17    7 1    
    12   42    7 1    
    13   43    7 1    
    14   44    7 1    
    15   20    8 1    
    16   45    8 1    
    17   46    8 1    
    18   47    8 1    
    19   26    9 1    
    20   27    9 1    
    21   28   10 1    
    22   29   10 1    
    23   22   11 2    
    24   23   11 1    
    25   30   11 1    
    26   13   12 ar   
    27   14   12 ar   
    28   31   12 1    
    29   15   13 ar   
    30   32   13 1    
    31   24   14 ar   
    32   33   14 1    
    33   25   15 ar   
    34   34   15 1    
    35   21   16 1    
    36   23   16 2    
    37   35   16 1    
    38   18   17 1    
    39   36   17 1    
    40   37   17 1    
    41   19   18 1    
    42   38   18 1    
    43   39   18 1    
    44   22   19 1    
    45   40   19 1    
    46   41   19 1    
    47   24   20 1    
    48   25   22 1    
    49   25   24 ar   
@<TRIPOS>SUBSTRUCTURE
     1 D2F187      1 GROUP   
@<TRIPOS>SET

