#    Name: 2rc3_NAD_2_INTS_M
#    Modification time : Mon Mar 24 23:36:04 2014

@<TRIPOS>MOLECULE
2rc3_NAD_2_INTS_M
  111     0    12     0     0
SMALL
NO_CHARGES


@<TRIPOS>ATOM
      1 N          46.0080   64.0045   40.2850 N.am      2 SEC2        0.0000 
      2 N          45.5990   62.8150   39.6700 N.am     10 SEL2        0.0000 
      3 N          46.4170   65.1940   40.9000 N.am      6 SEP2        0.0000 
      4 N          45.5370   63.0555   38.3220 N.am      2 SEC2        0.0000 
      5 N          45.4750   63.2960   36.9740 N.am      6 SEP2        0.0000 
      6 NZ         48.0915   62.4080   41.6875 N.4       3 LYC4        0.0000 
      7 NZ         46.8360   61.7490   41.5480 N.4      11 LYL4        0.0000 
      8 NZ         50.2070   62.7680   42.7880 N.4       7 LYP4        0.0000 
      9 N          48.0915   62.4080   41.6875 N.am      2 SEC2        0.0000 
     10 N          46.8360   61.7490   41.5480 N.am     10 SEL2        0.0000 
     11 N          49.3470   63.0670   41.8270 N.am      6 SEP2        0.0000 
     12 O          40.6515   57.8360   41.2340 O.2       1 ALC1        0.0000 
     13 O          40.9630   58.8850   41.9390 O.2       9 ALL1        0.0000 
     14 O          40.3400   56.7870   40.5290 O.2       5 ALP1        0.0000 
     15 O          40.4960   58.4645   40.3285 O.2       1 ALC1        0.0000 
     16 O          40.0290   58.0440   38.7180 O.2       5 ALP1        0.0000 
     17 CA         40.9395   61.7840   38.6535 C.3       4 GLC5        0.0000 
     18 CA         41.5400   60.6260   40.3430 C.3      12 GLL5        0.0000 
     19 CA         40.3390   62.9420   36.9640 C.3       8 GLP5        0.0000 
     20 N          39.0400   60.7270   40.1015 N.am      2 SEC2        0.0000 
     21 N          40.3450   60.3280   39.6630 N.am     10 SEL2        0.0000 
     22 N          37.7350   61.1260   40.5400 N.am      6 SEP2        0.0000 
     23 O          40.1870   59.1860   39.1905 O.2       1 ALC1        0.0000 
     24 O          40.3450   60.3280   39.6630 O.2       9 ALL1        0.0000 
     25 CA         42.2010   63.2490   42.4775 C.3       4 GLC5        0.0000 
     26 CA         41.3200   61.7660   41.3070 C.3      12 GLL5        0.0000 
     27 CA         43.0820   64.7320   43.6480 C.3       8 GLP5        0.0000 
     28 CA         39.6355   67.5965   41.1390 C.3       4 GLC5        0.0000 
     29 CA         40.0770   66.2320   39.7800 C.3      12 GLL5        0.0000 
     30 CA         39.1940   68.9610   42.4980 C.3       8 GLP5        0.0000 
     31 CA         39.1105   67.2370   38.3075 C.3       4 GLC5        0.0000 
     32 CA         38.1440   68.2420   36.8350 C.3       8 GLP5        0.0000 
     33 CA         39.9930   65.7155   37.8450 C.3       4 GLC5        0.0000 
     34 CA         39.9090   65.1990   35.9100 C.3       8 GLP5        0.0000 
     35 O          39.8340   68.7040   39.4675 O.2       1 ALC1        0.0000 
     36 O          40.5660   67.3980   39.3280 O.2       9 ALL1        0.0000 
     37 O          39.1020   70.0100   39.6070 O.2       5 ALP1        0.0000 
     38 O          41.9075   67.7515   39.3905 O.2       1 ALC1        0.0000 
     39 O          43.2490   68.1050   39.4530 O.2       5 ALP1        0.0000 
     40 N          37.9650   67.2885   40.6545 N.am      2 SEC2        0.0000 
     41 N          38.7500   66.1450   40.1930 N.am     10 SEL2        0.0000 
     42 N          37.1800   68.4320   41.1160 N.am      6 SEP2        0.0000 
     43 CA         36.6660   66.1985   40.6290 C.3       4 GLC5        0.0000 
     44 CA         38.2510   65.0000   40.8000 C.3      12 GLL5        0.0000 
     45 CA         35.0810   67.3970   40.4580 C.3       8 GLP5        0.0000 
     46 CA         38.5030   66.4555   42.1700 C.3       4 GLC5        0.0000 
     47 CA         38.7550   67.9110   43.5400 C.3       8 GLP5        0.0000 
     48 CA         38.1215   64.4165   38.8525 C.3       4 GLC5        0.0000 
     49 CA         37.9920   63.8330   36.9050 C.3       8 GLP5        0.0000 
     50 N          38.4095   62.5235   40.7755 N.am      2 SEC2        0.0000 
     51 N          39.0840   63.9210   41.0110 N.am     10 SEL2        0.0000 
     52 CA         41.7360   64.3680   42.1295 C.3       4 GLC5        0.0000 
     53 CA         40.3900   64.0040   40.6110 C.3      12 GLL5        0.0000 
     54 N          48.1045   61.0340   38.8255 N.am      2 SEC2        0.0000 
     55 N          46.5640   60.6240   39.2270 N.am     10 SEL2        0.0000 
     56 N          49.6450   61.4440   38.4240 N.am      6 SEP2        0.0000 
     57 NZ         48.9135   60.1855   38.4300 N.4       3 LYC4        0.0000 
     58 NZ         48.1820   58.9270   38.4360 N.4      11 LYL4        0.0000 
     59 NZ         50.8590   61.0080   38.4570 N.4       7 LYP4        0.0000 
     60 N          49.5850   59.3250   38.3415 N.am      2 SEC2        0.0000 
     61 N          48.1820   58.9270   38.4360 N.am     10 SEL2        0.0000 
     62 N          50.9880   59.7230   38.2470 N.am      6 SEP2        0.0000 
     63 N          48.9135   60.1855   38.4300 N.am      2 SEC2        0.0000 
     64 N          44.4760   58.4310   38.5390 N.am      2 SEC2        0.0000 
     65 N          45.7960   58.2810   38.8030 N.am     10 SEL2        0.0000 
     66 N          43.1560   58.5810   38.2750 N.am      6 SEP2        0.0000 
     67 N          45.4780   57.0860   38.1250 N.am      2 SEC2        0.0000 
     68 N          45.1600   55.8910   37.4470 N.am      6 SEP2        0.0000 
     69 CA         50.6925   57.0780   40.0935 C.3       4 GLC5        0.0000 
     70 CA         49.2010   56.4950   41.2970 C.3      12 GLL5        0.0000 
     71 CA         52.1840   57.6610   38.8900 C.3       8 GLP5        0.0000 
     72 O          50.2250   54.4185   42.6165 O.2       1 ALC1        0.0000 
     73 O          50.2680   55.7310   41.8480 O.2       9 ALL1        0.0000 
     74 O          50.1820   53.1060   43.3850 O.2       5 ALP1        0.0000 
     75 CA         46.5135   55.4345   40.0155 C.3       4 GLC5        0.0000 
     76 CA         47.9080   55.7110   41.3110 C.3      12 GLL5        0.0000 
     77 CA         45.1190   55.1580   38.7200 C.3       8 GLP5        0.0000 
     78 CA         49.2260   54.0120   40.7735 C.3       4 GLC5        0.0000 
     79 CA         50.5440   52.3130   40.2360 C.3       8 GLP5        0.0000 
     80 CA         47.6760   53.7490   43.1895 C.3       4 GLC5        0.0000 
     81 CA         47.4490   55.9320   42.7530 C.3      12 GLL5        0.0000 
     82 CA         47.9030   51.5660   43.6260 C.3       8 GLP5        0.0000 
     83 CA         48.9495   55.7725   44.0130 C.3       4 GLC5        0.0000 
     84 CA         50.4500   55.6130   45.2730 C.3       8 GLP5        0.0000 
     85 CA         47.0330   55.6465   45.3995 C.3       4 GLC5        0.0000 
     86 CA         45.6310   55.1150   44.1050 C.3      12 GLL5        0.0000 
     87 CA         48.4350   56.1780   46.6940 C.3       8 GLP5        0.0000 
     88 N          41.6025   53.7140   46.2140 N.am      2 SEC2        0.0000 
     89 N          42.6470   54.6890   46.2490 N.am     10 SEL2        0.0000 
     90 N          40.5580   52.7390   46.1790 N.am      6 SEP2        0.0000 
     91 O          46.2040   53.3615   46.0045 O.2       1 ALC1        0.0000 
     92 O          44.8110   53.7040   46.4930 O.2       9 ALL1        0.0000 
     93 O          47.5970   53.0190   45.5160 O.2       5 ALP1        0.0000 
     94 CA         42.5255   59.7837   38.9948 C.3       4 GLC5        0.0000 
     95 CA         42.0360   59.5310   41.2820 C.3      12 GLL5        0.0000 
     96 CA         43.2630   59.4890   37.1770 C.3       8 GLP5        0.0000 
     97 CA         41.5895   66.6453   41.2957 C.3       4 GLC5        0.0000 
     98 CA         40.9090   65.1390   39.9850 C.3      12 GLL5        0.0000 
     99 CA         42.6860   67.6050   42.7090 C.3       8 GLP5        0.0000 
    100 CA         40.4942   63.7567   38.6310 C.3       4 GLC5        0.0000 
    101 CA         49.7443   56.3515   43.5072 C.3       4 GLC5        0.0000 
    102 CA         48.8760   57.6850   42.1860 C.3      12 GLL5        0.0000 
    103 CA         48.6813   55.1000   39.4095 C.3       4 GLC5        0.0000 
    104 CA         48.8080   54.0970   37.5150 C.3       8 GLP5        0.0000 
    105 CA         45.2110   53.0085   44.0628 C.3       4 GLC5        0.0000 
    106 CA         45.4620   50.9770   43.8600 C.3       8 GLP5        0.0000 
    107 CA         42.6290   53.6643   43.9918 C.3       4 GLC5        0.0000 
    108 CA         44.2890   54.9650   44.4260 C.3      12 GLL5        0.0000 
    109 CA         41.4560   52.0540   43.9620 C.3       8 GLP5        0.0000 
    110 CA         44.7537   55.7713   40.5315 C.3       4 GLC5        0.0000 
    111 CA         43.7120   56.3220   42.4910 C.3      12 GLL5        0.0000 
@<TRIPOS>BOND
@<TRIPOS>SUBSTRUCTURE
     1 ALC1       12 GROUP        1 X    ALC  0     ROOT ALC X 1
     2 SEC2        1 GROUP        1 X    SEC  0     **** SEC X 2
     3 LYC4        6 GROUP        1 X    LYC  0     **** LYC X 4
     4 GLC5       17 GROUP        1 X    GLC  0     **** GLC X 6
     5 ALP1       14 GROUP        1 Y    ALP  0     ROOT ALP Y 8
     6 SEP2        3 GROUP        1 Y    SEP  0     **** SEP Y 9
     7 LYP4        8 GROUP        1 Y    LYP  0     **** LYP Y 11
     8 GLP5       19 GROUP        1 Y    GLP  0     **** GLP Y 13
     9 ALL1       13 GROUP        1 Z    ALL  0     ROOT ALL Z 15
    10 SEL2        2 GROUP        1 Z    SEL  0     **** SEL Z 16
    11 LYL4        7 GROUP        1 Z    LYL  0     **** LYL Z 18
    12 GLL5       18 GROUP        1 Z    GLL  0     **** GLL Z 20
@<TRIPOS>SET

