#    Name: 2rc3_NAD_2_ligand
#    Modification time : Mon Mar 24 23:36:04 2014

@<TRIPOS>MOLECULE
2rc3_NAD_2_ligand
   70    74     1     0     0
SMALL
NO_CHARGES


@<TRIPOS>ATOM
      1 PA         45.9310   61.5570   40.3720 P.3       1 NAD1000     0.0000 
      2 O1A        45.5990   62.8150   39.6700 O.co2     1 NAD1000     0.0000 
      3 O2A        46.8360   61.7490   41.5480 O.co2     1 NAD1000     0.0000 
      4 O5B        44.6020   60.7860   40.7820 O.3       1 NAD1000     0.0000 
      5 C5B        44.3510   60.3890   42.1100 C.3       1 NAD1000     0.0000 
      6 C4B        42.8370   60.2960   42.3330 C.3       1 NAD1000     0.0000 
      7 O4B        42.3370   61.6160   42.2790 O.3       1 NAD1000     0.0000 
      8 C3B        42.0360   59.5310   41.2820 C.3       1 NAD1000     0.0000 
      9 O3B        40.9630   58.8850   41.9390 O.3       1 NAD1000     0.0000 
     10 C2B        41.5400   60.6260   40.3430 C.3       1 NAD1000     0.0000 
     11 O2B        40.3450   60.3280   39.6630 O.3       1 NAD1000     0.0000 
     12 C1B        41.3200   61.7660   41.3070 C.3       1 NAD1000     0.0000 
     13 N9A        41.4150   63.0960   40.6870 N.pl3     1 NAD1000     0.0000 
     14 C8A        42.5390   63.6740   40.1460 C.2       1 NAD1000     0.0000 
     15 N7A        42.2220   64.9180   39.7150 N.2       1 NAD1000     0.0000 
     16 C5A        40.9090   65.1390   39.9850 C.ar      1 NAD1000     0.0000 
     17 C6A        40.0770   66.2320   39.7800 C.ar      1 NAD1000     0.0000 
     18 N6A        40.5660   67.3980   39.3280 N.pl3     1 NAD1000     0.0000 
     19 N1A        38.7500   66.1450   40.1930 N.ar      1 NAD1000     0.0000 
     20 C2A        38.2510   65.0000   40.8000 C.ar      1 NAD1000     0.0000 
     21 N3A        39.0840   63.9210   41.0110 N.ar      1 NAD1000     0.0000 
     22 C4A        40.3900   64.0040   40.6110 C.ar      1 NAD1000     0.0000 
     23 O3         46.5640   60.6240   39.2270 O.3       1 NAD1000     0.0000 
     24 PN         46.9670   59.0660   39.2340 P.3       1 NAD1000     0.0000 
     25 O1N        48.1820   58.9270   38.4360 O.co2     1 NAD1000     0.0000 
     26 O2N        45.7960   58.2810   38.8030 O.co2     1 NAD1000     0.0000 
     27 O5D        47.1970   58.6990   40.7760 O.3       1 NAD1000     0.0000 
     28 C5D        48.4560   58.9280   41.3890 C.3       1 NAD1000     0.0000 
     29 C4D        48.8760   57.6850   42.1860 C.3       1 NAD1000     0.0000 
     30 O4D        47.8490   57.2510   43.0730 O.3       1 NAD1000     0.0000 
     31 C3D        49.2010   56.4950   41.2970 C.3       1 NAD1000     0.0000 
     32 O3D        50.2680   55.7310   41.8480 O.3       1 NAD1000     0.0000 
     33 C2D        47.9080   55.7110   41.3110 C.3       1 NAD1000     0.0000 
     34 O2D        48.1150   54.3460   41.0200 O.3       1 NAD1000     0.0000 
     35 C1D        47.4490   55.9320   42.7530 C.3       1 NAD1000     0.0000 
     36 N1N        46.0020   55.8210   42.9950 N.pl3     1 NAD1000     0.0000 
     37 C2N        45.6310   55.1150   44.1050 C.ar      1 NAD1000     0.0000 
     38 C3N        44.2890   54.9650   44.4260 C.ar      1 NAD1000     0.0000 
     39 C7N        43.9320   54.4180   45.7820 C.2       1 NAD1000     0.0000 
     40 O7N        42.6470   54.6890   46.2490 O.2       1 NAD1000     0.0000 
     41 N7N        44.8110   53.7040   46.4930 N.am      1 NAD1000     0.0000 
     42 C4N        43.3150   55.5840   43.6170 C.ar      1 NAD1000     0.0000 
     43 C5N        43.7120   56.3220   42.4910 C.ar      1 NAD1000     0.0000 
     44 C6N        45.0650   56.4470   42.1950 C.ar      1 NAD1000     0.0000 
     45 H          44.7459   61.1040   42.8412 H         1 NAD1000     0.0000 
     46 H          44.7763   59.4049   42.3391 H         1 NAD1000     0.0000 
     47 H          42.6448   59.8700   43.2995 H         1 NAD1000     0.0000 
     48 H          42.6848   58.8941   40.7666 H         1 NAD1000     0.0000 
     49 H          42.3539   60.9043   39.7074 H         1 NAD1000     0.0000 
     50 H          40.3509   61.6304   41.7666 H         1 NAD1000     0.0000 
     51 H          43.4021   63.2544   40.0887 H         1 NAD1000     0.0000 
     52 H          41.5492   67.4222   39.1469 H         1 NAD1000     0.0000 
     53 H          39.9033   68.1380   39.2128 H         1 NAD1000     0.0000 
     54 H          37.2652   64.9609   41.0891 H         1 NAD1000     0.0000 
     55 H          48.4275   59.7722   42.0878 H         1 NAD1000     0.0000 
     56 H          49.2434   59.1278   40.6529 H         1 NAD1000     0.0000 
     57 H          49.7777   57.9263   42.7486 H         1 NAD1000     0.0000 
     58 H          49.3762   56.8459   40.3188 H         1 NAD1000     0.0000 
     59 H          47.2170   56.2045   40.6751 H         1 NAD1000     0.0000 
     60 H          47.9914   55.2326   43.3825 H         1 NAD1000     0.0000 
     61 H          46.3483   54.6858   44.7162 H         1 NAD1000     0.0000 
     62 H          44.4946   53.3773   47.3836 H         1 NAD1000     0.0000 
     63 H          45.7059   53.5608   46.0703 H         1 NAD1000     0.0000 
     64 H          42.3252   55.4944   43.8512 H         1 NAD1000     0.0000 
     65 H          43.0064   56.7627   41.8958 H         1 NAD1000     0.0000 
     66 H          45.3629   57.0034   41.3839 H         1 NAD1000     0.0000 
     67 H          40.4521   58.4273   41.2114 H         1 NAD1000     0.0000 
     68 H          40.5936   59.6215   39.0004 H         1 NAD1000     0.0000 
     69 H          49.9384   54.7869   41.8455 H         1 NAD1000     0.0000 
     70 H          48.0458   54.2803   40.0246 H         1 NAD1000     0.0000 
@<TRIPOS>BOND
     1    2    1 ar   
     2    3    1 ar   
     3    4    1 1    
     4   23    1 1    
     5    5    4 1    
     6    6    5 1    
     7   45    5 1    
     8   46    5 1    
     9    7    6 1    
    10    8    6 1    
    11   47    6 1    
    12   12    7 1    
    13    9    8 1    
    14   10    8 1    
    15   48    8 1    
    16   67    9 1    
    17   11   10 1    
    18   12   10 1    
    19   49   10 1    
    20   68   11 1    
    21   13   12 1    
    22   50   12 1    
    23   14   13 1    
    24   22   13 1    
    25   15   14 2    
    26   51   14 1    
    27   16   15 1    
    28   17   16 ar   
    29   22   16 ar   
    30   18   17 1    
    31   19   17 ar   
    32   52   18 1    
    33   53   18 1    
    34   20   19 ar   
    35   21   20 ar   
    36   54   20 1    
    37   22   21 ar   
    38   24   23 1    
    39   25   24 ar   
    40   26   24 ar   
    41   27   24 1    
    42   28   27 1    
    43   29   28 1    
    44   55   28 1    
    45   56   28 1    
    46   30   29 1    
    47   31   29 1    
    48   57   29 1    
    49   35   30 1    
    50   32   31 1    
    51   33   31 1    
    52   58   31 1    
    53   69   32 1    
    54   34   33 1    
    55   35   33 1    
    56   59   33 1    
    57   70   34 1    
    58   36   35 1    
    59   60   35 1    
    60   37   36 ar   
    61   44   36 ar   
    62   38   37 ar   
    63   61   37 1    
    64   39   38 1    
    65   42   38 ar   
    66   40   39 2    
    67   41   39 am   
    68   62   41 1    
    69   63   41 1    
    70   43   42 ar   
    71   64   42 1    
    72   44   43 ar   
    73   65   43 1    
    74   66   44 1    
@<TRIPOS>SUBSTRUCTURE
     1 NAD1000     1 GROUP   
@<TRIPOS>SET

