#    Name: 3gbk_2PQ_1_INTS_M
#    Modification time : Tue Mar 25 07:25:49 2014

@<TRIPOS>MOLECULE
3gbk_2PQ_1_INTS_M
  122     0     6     0     0
SMALL
NO_CHARGES


@<TRIPOS>ATOM
      1 CA         35.8785   -7.5505   44.2200 C.3       2 GLC5        0.0000 
      2 CA         34.5440   -5.8380   44.0460 C.3       6 GLL5        0.0000 
      3 CA         37.2130   -9.2630   44.3940 C.3       4 GLP5        0.0000 
      4 CA         35.9320   -5.0700   45.5070 C.3       2 GLC5        0.0000 
      5 CA         37.3200   -4.3020   46.9680 C.3       4 GLP5        0.0000 
      6 CA         36.0540   -5.9985   41.3135 C.3       2 GLC5        0.0000 
      7 CA         34.7020   -5.2780   42.7880 C.3       6 GLL5        0.0000 
      8 CA         37.4060   -6.7190   39.8390 C.3       4 GLP5        0.0000 
      9 CA         30.4190   -5.9350   43.7770 C.3       2 GLC5        0.0000 
     10 CA         32.2850   -4.9050   44.2380 C.3       6 GLL5        0.0000 
     11 CA         28.5530   -6.9650   43.3160 C.3       4 GLP5        0.0000 
     12 CA         33.0220   -3.0685   44.8845 C.3       2 GLC5        0.0000 
     13 CA         33.7590   -1.2320   45.5310 C.3       4 GLP5        0.0000 
     14 CA         32.9970   -2.3280   43.0400 C.3       2 GLC5        0.0000 
     15 CA         32.4410   -4.3300   42.9850 C.3       6 GLL5        0.0000 
     16 CA         33.5530   -0.3260   43.0950 C.3       4 GLP5        0.0000 
     17 CA         34.2935   -2.5440   42.4180 C.3       2 GLC5        0.0000 
     18 CA         33.6410   -4.5160   42.2670 C.3       6 GLL5        0.0000 
     19 CA         34.9460   -0.5720   42.5690 C.3       4 GLP5        0.0000 
     20 CA         35.1235   -5.4770   38.7985 C.3       2 GLC5        0.0000 
     21 CA         35.2060   -3.4710   38.8870 C.3       6 GLL5        0.0000 
     22 CA         35.0410   -7.4830   38.7100 C.3       4 GLP5        0.0000 
     23 CA         33.5620   -3.2975   37.8615 C.3       2 GLC5        0.0000 
     24 CA         31.9180   -3.1240   36.8360 C.3       4 GLP5        0.0000 
     25 CA         35.2735   -5.7230   37.3585 C.3       2 GLC5        0.0000 
     26 CA         35.5060   -3.9630   36.0070 C.3       6 GLL5        0.0000 
     27 CA         35.8600   -3.1615   32.9655 C.3       2 GLC5        0.0000 
     28 CA         35.5370   -3.5540   34.5440 C.3       6 GLL5        0.0000 
     29 CA         36.1830   -2.7690   31.3870 C.3       4 GLP5        0.0000 
     30 CA         38.1725   -1.0310   41.1130 C.3       2 GLC5        0.0000 
     31 CA         37.4320   -2.8570   40.5130 C.3       6 GLL5        0.0000 
     32 CA         38.9130    0.7950   41.7130 C.3       4 GLP5        0.0000 
     33 CA         39.4910   -0.8875   40.3960 C.3       2 GLC5        0.0000 
     34 CA         40.0690   -2.5700   39.0790 C.3       6 GLL5        0.0000 
     35 CA         40.8080   -2.1035   41.1140 C.3       2 GLC5        0.0000 
     36 CA         41.5470   -1.6370   43.1490 C.3       4 GLP5        0.0000 
     37 CA         42.3980   -2.0620   36.6215 C.3       2 GLC5        0.0000 
     38 CA         41.0530   -3.1080   38.0380 C.3       6 GLL5        0.0000 
     39 CA         43.7430   -1.0160   35.2050 C.3       4 GLP5        0.0000 
     40 CA         41.7525   -2.8990   35.5475 C.3       2 GLC5        0.0000 
     41 CA         40.2890   -3.6540   36.8220 C.3       6 GLL5        0.0000 
     42 CA         43.2160   -2.1440   34.2730 C.3       4 GLP5        0.0000 
     43 CA         41.9125   -5.5360   39.0910 C.3       2 GLC5        0.0000 
     44 CA         41.3180   -5.9980   37.4080 C.3       6 GLL5        0.0000 
     45 CA         42.5070   -5.0740   40.7740 C.3       4 GLP5        0.0000 
     46 CA         40.4320   -9.3540   38.2520 C.3       2 GLC5        0.0000 
     47 CA         40.6600   -7.3280   37.8340 C.3       6 GLL5        0.0000 
     48 CA         40.2040  -11.3800   38.6700 C.3       4 GLP5        0.0000 
     49 CA         39.0330   -7.0235   38.8365 C.3       2 GLC5        0.0000 
     50 CA         41.2575   -6.9715   39.6530 C.3       2 GLC5        0.0000 
     51 CA         41.8550   -6.6150   41.4720 C.3       4 GLP5        0.0000 
     52 CA         40.3735   -9.8910   36.9920 C.3       2 GLC5        0.0000 
     53 CA         40.1720   -8.1230   36.6340 C.3       6 GLL5        0.0000 
     54 CA         40.5750  -11.6590   37.3500 C.3       4 GLP5        0.0000 
     55 CA         41.9265   -8.8400   36.2045 C.3       2 GLC5        0.0000 
     56 CA         43.6810   -9.5570   35.7750 C.3       4 GLP5        0.0000 
     57 CA         39.1085   -2.9235   34.9220 C.3       2 GLC5        0.0000 
     58 CA         38.8970   -5.0230   34.6640 C.3       6 GLL5        0.0000 
     59 CA         39.3200   -0.8240   35.1800 C.3       4 GLP5        0.0000 
     60 CA         37.1530   -4.1940   32.5355 C.3       2 GLC5        0.0000 
     61 CA         38.1230   -5.6190   33.6840 C.3       6 GLL5        0.0000 
     62 CA         37.8350   -7.0540   31.4065 C.3       2 GLC5        0.0000 
     63 CA         38.0250   -7.0100   33.6440 C.3       6 GLL5        0.0000 
     64 CA         37.6450   -7.0980   29.1690 C.3       4 GLP5        0.0000 
     65 N          39.9075   -9.2560   33.5510 N.am      1 SEC2        0.0000 
     66 N          38.6440   -9.2090   34.6390 N.am      5 SEL2        0.0000 
     67 N          41.1710   -9.3030   32.4630 N.am      3 SEP2        0.0000 
     68 CA         39.0910  -12.1910   35.5885 C.3       2 GLC5        0.0000 
     69 CA         38.0450  -11.5480   34.4480 C.3       6 GLL5        0.0000 
     70 CA         40.1370  -12.8340   36.7290 C.3       4 GLP5        0.0000 
     71 CA         36.4090  -11.9565   35.5665 C.3       2 GLC5        0.0000 
     72 CA         34.7730  -12.3650   36.6850 C.3       4 GLP5        0.0000 
     73 CA         39.9195  -12.4115   33.8105 C.3       2 GLC5        0.0000 
     74 CA         41.7940  -13.2750   33.1730 C.3       4 GLP5        0.0000 
     75 CA         37.7455  -13.2280   33.4705 C.3       2 GLC5        0.0000 
     76 CA         37.4460  -14.9080   32.4930 C.3       4 GLP5        0.0000 
     77 CA         36.4210   -8.7040   36.6470 C.3       2 GLC5        0.0000 
     78 CA         36.3070   -9.7640   34.6900 C.3       6 GLL5        0.0000 
     79 CA         36.5350   -7.6440   38.6040 C.3       4 GLP5        0.0000 
     80 CA         34.8775   -9.9625   35.5585 C.3       2 GLC5        0.0000 
     81 CA         33.4480  -10.1610   36.4270 C.3       4 GLP5        0.0000 
     82 CA         35.1455   -8.3185   33.8635 C.3       2 GLC5        0.0000 
     83 CA         33.9840   -6.8730   33.0370 C.3       4 GLP5        0.0000 
     84 CA         34.9045  -10.7840   33.6865 C.3       2 GLC5        0.0000 
     85 CA         33.5020  -11.8040   32.6830 C.3       4 GLP5        0.0000 
     86 N          39.8725   -9.8525   32.1690 N.am      1 SEC2        0.0000 
     87 N          38.5740  -10.4020   31.8750 N.am      5 SEL2        0.0000 
     88 N          38.9170  -10.1505   30.5950 N.am      1 SEC2        0.0000 
     89 N          39.2600   -9.8990   29.3150 N.am      3 SEP2        0.0000 
     90 N          35.3135   -8.8415   32.5495 N.am      1 SEC2        0.0000 
     91 N          36.5950   -9.4200   32.0750 N.am      5 SEL2        0.0000 
     92 N          34.0320   -8.2630   33.0240 N.am      3 SEP2        0.0000 
     93 N          36.6720   -8.7710   30.7420 N.am      1 SEC2        0.0000 
     94 N          36.7490   -8.1220   29.4090 N.am      3 SEP2        0.0000 
     95 CA         34.5320   -5.9797   48.7500 C.3       2 GLC5        0.0000 
     96 CA         32.9110   -5.3960   47.1060 C.3       6 GLL5        0.0000 
     97 CA         36.2200   -6.2890   49.7610 C.3       4 GLP5        0.0000 
     98 CA         34.6668   -7.0072   48.8715 C.3       2 GLC5        0.0000 
     99 CA         32.9560   -7.3170   48.5270 C.3       6 GLL5        0.0000 
    100 CA         32.3299   -7.4813   49.7246 C.3       2 GLC5        0.0000 
    101 CA         32.7770   -5.9450   48.3720 C.3       6 GLL5        0.0000 
    102 CA         31.5910   -7.5800   51.5060 C.3       4 GLP5        0.0000 
    103 CA         33.4455   -7.2265   43.0422 C.3       2 GLC5        0.0000 
    104 CA         33.3520   -5.6580   44.7550 C.3       6 GLL5        0.0000 
    105 CA         32.9430   -8.7050   41.6840 C.3       4 GLP5        0.0000 
    106 CA         33.5572   -6.8010   42.1058 C.3       2 GLC5        0.0000 
    107 CA         33.7198   -3.4413   36.0557 C.3       2 GLC5        0.0000 
    108 CA         34.7528   -5.3157   34.1562 C.3       2 GLC5        0.0000 
    109 CA         35.7391   -1.8335   41.5841 C.3       2 GLC5        0.0000 
    110 CA         36.1900   -3.1820   41.0890 C.3       6 GLL5        0.0000 
    111 CA         37.1841   -1.2568   37.2311 C.3       2 GLC5        0.0000 
    112 CA         37.5560   -2.8550   39.1150 C.3       6 GLL5        0.0000 
    113 CA         37.3480    0.4880   36.1410 C.3       4 GLP5        0.0000 
    114 CA         41.0270   -0.7970   38.0357 C.3       2 GLC5        0.0000 
    115 CA         41.4930    1.2450   37.5130 C.3       4 GLP5        0.0000 
    116 CA         41.5340   -3.9565   39.6663 C.3       2 GLC5        0.0000 
    117 CA         39.8725   -2.0353   36.4351 C.3       2 GLC5        0.0000 
    118 CA         42.6510   -7.4030   37.6775 C.3       2 GLC5        0.0000 
    119 CA         44.3130   -8.1430   37.7340 C.3       4 GLP5        0.0000 
    120 CA         38.1747   -7.6567   37.3623 C.3       2 GLC5        0.0000 
    121 CA         36.0290   -6.5938   33.3505 C.3       2 GLC5        0.0000 
    122 CA         37.0853   -4.8851   39.7454 C.3       2 GLC5        0.0000 
@<TRIPOS>BOND
@<TRIPOS>SUBSTRUCTURE
     1 SEC2       65 GROUP        1 X    SEC  0     ROOT SEC X 2
     2 GLC5        1 GROUP        1 X    GLC  0     **** GLC X 6
     3 SEP2       67 GROUP        1 Y    SEP  0     ROOT SEP Y 9
     4 GLP5        3 GROUP        1 Y    GLP  0     **** GLP Y 13
     5 SEL2       66 GROUP        1 Z    SEL  0     ROOT SEL Z 16
     6 GLL5        2 GROUP        1 Z    GLL  0     **** GLL Z 20
@<TRIPOS>SET

