#    Name: 3gbk_2PQ_1_ligand
#    Modification time : Tue Mar 25 07:25:49 2014

@<TRIPOS>MOLECULE
3gbk_2PQ_1_ligand
   84    88     1     0     0
SMALL
NO_CHARGES


@<TRIPOS>ATOM
      1 CAB        32.9110   -5.3960   47.1060 C.ar      1 2PQ1385     0.0000 
      2 CAC        32.7770   -5.9450   48.3720 C.ar      1 2PQ1385     0.0000 
      3 CAD        32.9560   -7.3170   48.5270 C.ar      1 2PQ1385     0.0000 
      4 CAE        33.2710   -8.1340   47.4370 C.ar      1 2PQ1385     0.0000 
      5 CAF        33.3990   -7.5920   46.1650 C.ar      1 2PQ1385     0.0000 
      6 CAA        33.2180   -6.2250   46.0130 C.ar      1 2PQ1385     0.0000 
      7 CAJ        33.3520   -5.6580   44.7550 C.ar      1 2PQ1385     0.0000 
      8 CAK        34.5440   -5.8380   44.0460 C.ar      1 2PQ1385     0.0000 
      9 CAL        34.7020   -5.2780   42.7880 C.ar      1 2PQ1385     0.0000 
     10 CAI        32.2850   -4.9050   44.2380 C.ar      1 2PQ1385     0.0000 
     11 CAH        32.4410   -4.3300   42.9850 C.ar      1 2PQ1385     0.0000 
     12 CAG        33.6410   -4.5160   42.2670 C.ar      1 2PQ1385     0.0000 
     13 CBP        33.7310   -3.8710   40.8940 C.2       1 2PQ1385     0.0000 
     14 OBQ        32.6850   -3.7050   40.2850 O.2       1 2PQ1385     0.0000 
     15 CAP        35.0750   -3.4840   40.2820 C.ar      1 2PQ1385     0.0000 
     16 CAO        35.2060   -3.4710   38.8870 C.ar      1 2PQ1385     0.0000 
     17 CAN        36.4380   -3.1600   38.2940 C.ar      1 2PQ1385     0.0000 
     18 CBM        36.5310   -3.1360   36.7610 C.3       1 2PQ1385     0.0000 
     19 CBN        35.5060   -3.9630   36.0070 C.3       1 2PQ1385     0.0000 
     20 CBO        35.5370   -3.5540   34.5440 C.3       1 2PQ1385     0.0000 
     21 CAQ        36.1900   -3.1820   41.0890 C.ar      1 2PQ1385     0.0000 
     22 CAR        37.4320   -2.8570   40.5130 C.ar      1 2PQ1385     0.0000 
     23 CAM        37.5560   -2.8550   39.1150 C.ar      1 2PQ1385     0.0000 
     24 OBL        38.7350   -2.5330   38.4810 O.3       1 2PQ1385     0.0000 
     25 CBK        40.0690   -2.5700   39.0790 C.3       1 2PQ1385     0.0000 
     26 CBJ        41.0530   -3.1080   38.0380 C.3       1 2PQ1385     0.0000 
     27 CBI        40.2890   -3.6540   36.8220 C.3       1 2PQ1385     0.0000 
     28 NAX        40.3710   -5.1630   36.6130 N.3       1 2PQ1385     0.0000 
     29 CAY        41.3180   -5.9980   37.4080 C.3       1 2PQ1385     0.0000 
     30 CAZ        40.6600   -7.3280   37.8340 C.3       1 2PQ1385     0.0000 
     31 CBA        40.1720   -8.1230   36.6340 C.3       1 2PQ1385     0.0000 
     32 CAV        39.4570   -7.2160   35.6070 C.ar      1 2PQ1385     0.0000 
     33 CAW        39.5770   -5.8030   35.6160 C.ar      1 2PQ1385     0.0000 
     34 CBH        38.8970   -5.0230   34.6640 C.ar      1 2PQ1385     0.0000 
     35 CAT        38.1230   -5.6190   33.6840 C.ar      1 2PQ1385     0.0000 
     36 CAS        38.0250   -7.0100   33.6440 C.ar      1 2PQ1385     0.0000 
     37 CAU        38.6740   -7.8170   34.6110 C.ar      1 2PQ1385     0.0000 
     38 OBE        38.6440   -9.2090   34.6390 O.3       1 2PQ1385     0.0000 
     39 CBD        37.6670  -10.0970   34.0900 C.3       1 2PQ1385     0.0000 
     40 CBF        38.0450  -11.5480   34.4480 C.3       1 2PQ1385     0.0000 
     41 CBG        36.3070   -9.7640   34.6900 C.3       1 2PQ1385     0.0000 
     42 CBB        37.6120   -9.9710   32.5500 C.2       1 2PQ1385     0.0000 
     43 OBR        38.5740  -10.4020   31.8750 O.co2     1 2PQ1385     0.0000 
     44 OBC        36.5950   -9.4200   32.0750 O.co2     1 2PQ1385     0.0000 
     45 H          32.7882   -4.3888   46.9583 H         1 2PQ1385     0.0000 
     46 H          32.5521   -5.3585   49.1747 H         1 2PQ1385     0.0000 
     47 H          32.8546   -7.7424   49.4653 H         1 2PQ1385     0.0000 
     48 H          33.4083   -9.1449   47.5830 H         1 2PQ1385     0.0000 
     49 H          33.6195   -8.1818   45.3666 H         1 2PQ1385     0.0000 
     50 H          35.3053   -6.3906   44.4657 H         1 2PQ1385     0.0000 
     51 H          35.5515   -5.4080   42.2530 H         1 2PQ1385     0.0000 
     52 H          31.4312   -4.7900   44.7698 H         1 2PQ1385     0.0000 
     53 H          31.6895   -3.7675   42.5714 H         1 2PQ1385     0.0000 
     54 H          34.3957   -3.6903   38.2953 H         1 2PQ1385     0.0000 
     55 H          37.5525   -3.4710   36.4683 H         1 2PQ1385     0.0000 
     56 H          36.4600   -2.0765   36.4239 H         1 2PQ1385     0.0000 
     57 H          34.5211   -3.7779   36.4130 H         1 2PQ1385     0.0000 
     58 H          35.7518   -5.0123   36.0940 H         1 2PQ1385     0.0000 
     59 H          36.0938   -3.1996   42.1131 H         1 2PQ1385     0.0000 
     60 H          38.2277   -2.6270   41.1029 H         1 2PQ1385     0.0000 
     61 H          40.0922   -3.2271   39.9439 H         1 2PQ1385     0.0000 
     62 H          40.3930   -1.5761   39.3750 H         1 2PQ1385     0.0000 
     63 H          41.6412   -3.9065   38.4768 H         1 2PQ1385     0.0000 
     64 H          41.7101   -2.3078   37.7156 H         1 2PQ1385     0.0000 
     65 H          40.6664   -3.1443   35.9118 H         1 2PQ1385     0.0000 
     66 H          39.2230   -3.3618   36.9164 H         1 2PQ1385     0.0000 
     67 H          41.6292   -5.4657   38.3092 H         1 2PQ1385     0.0000 
     68 H          42.2075   -6.2293   36.8184 H         1 2PQ1385     0.0000 
     69 H          39.8188   -7.1062   38.4933 H         1 2PQ1385     0.0000 
     70 H          41.3911   -7.9169   38.3910 H         1 2PQ1385     0.0000 
     71 H          39.4746   -8.8939   36.9635 H         1 2PQ1385     0.0000 
     72 H          41.0188   -8.6046   36.1438 H         1 2PQ1385     0.0000 
     73 H          38.9824   -3.9953   34.7049 H         1 2PQ1385     0.0000 
     74 H          37.6257   -5.0499   32.9935 H         1 2PQ1385     0.0000 
     75 H          37.4737   -7.4673   32.9026 H         1 2PQ1385     0.0000 
     76 H          36.4369   -3.7054   34.1350 H         1 2PQ1385     0.0000 
     77 H          34.8769   -4.0715   33.9996 H         1 2PQ1385     0.0000 
     78 H          35.3200   -2.5852   34.4245 H         1 2PQ1385     0.0000 
     79 H          38.9423  -11.7985   34.0846 H         1 2PQ1385     0.0000 
     80 H          38.0796  -11.6895   35.4373 H         1 2PQ1385     0.0000 
     81 H          37.3863  -12.2048   34.0808 H         1 2PQ1385     0.0000 
     82 H          36.3056   -9.8635   35.6850 H         1 2PQ1385     0.0000 
     83 H          36.0326   -8.8236   34.4891 H         1 2PQ1385     0.0000 
     84 H          35.5880  -10.3614   34.3347 H         1 2PQ1385     0.0000 
@<TRIPOS>BOND
     1    2    1 ar   
     2    6    1 ar   
     3   45    1 1    
     4    3    2 ar   
     5   46    2 1    
     6    4    3 ar   
     7   47    3 1    
     8    5    4 ar   
     9   48    4 1    
    10    6    5 ar   
    11   49    5 1    
    12    7    6 1    
    13    8    7 ar   
    14   10    7 ar   
    15    9    8 ar   
    16   50    8 1    
    17   12    9 ar   
    18   51    9 1    
    19   11   10 ar   
    20   52   10 1    
    21   12   11 ar   
    22   53   11 1    
    23   13   12 1    
    24   14   13 2    
    25   15   13 1    
    26   16   15 ar   
    27   21   15 ar   
    28   17   16 ar   
    29   54   16 1    
    30   18   17 1    
    31   23   17 ar   
    32   19   18 1    
    33   55   18 1    
    34   56   18 1    
    35   20   19 1    
    36   57   19 1    
    37   58   19 1    
    38   76   20 1    
    39   77   20 1    
    40   78   20 1    
    41   22   21 ar   
    42   59   21 1    
    43   23   22 ar   
    44   60   22 1    
    45   24   23 1    
    46   25   24 1    
    47   26   25 1    
    48   61   25 1    
    49   62   25 1    
    50   27   26 1    
    51   63   26 1    
    52   64   26 1    
    53   28   27 1    
    54   65   27 1    
    55   66   27 1    
    56   29   28 1    
    57   33   28 1    
    58   30   29 1    
    59   67   29 1    
    60   68   29 1    
    61   31   30 1    
    62   69   30 1    
    63   70   30 1    
    64   32   31 1    
    65   71   31 1    
    66   72   31 1    
    67   33   32 ar   
    68   37   32 ar   
    69   34   33 ar   
    70   35   34 ar   
    71   73   34 1    
    72   36   35 ar   
    73   74   35 1    
    74   37   36 ar   
    75   75   36 1    
    76   38   37 1    
    77   39   38 1    
    78   40   39 1    
    79   41   39 1    
    80   42   39 1    
    81   79   40 1    
    82   80   40 1    
    83   81   40 1    
    84   82   41 1    
    85   83   41 1    
    86   84   41 1    
    87   43   42 ar   
    88   44   42 ar   
@<TRIPOS>SUBSTRUCTURE
     1 2PQ1385     1 GROUP   
@<TRIPOS>SET

