#    Name: 3bpt_QUE_1_INTS_M
#    Modification time : Mon Mar 24 19:55:54 2014

@<TRIPOS>MOLECULE
3bpt_QUE_1_INTS_M
   42     0     6     0     0
SMALL
NO_CHARGES


@<TRIPOS>ATOM
      1 CA         42.1435    1.2350   16.7115 C.3       2 GLC5        0.0000 
      2 CA         42.5060    0.0450   15.2200 C.3       6 GLL5        0.0000 
      3 CA         41.7810    2.4250   18.2030 C.3       4 GLP5        0.0000 
      4 CA         41.2450   -1.0785   10.8125 C.3       2 GLC5        0.0000 
      5 CA         42.4690    0.4810   11.3480 C.3       6 GLL5        0.0000 
      6 CA         40.0210   -2.6380   10.2770 C.3       4 GLP5        0.0000 
      7 CA         41.3890    2.1560   12.2400 C.3       2 GLC5        0.0000 
      8 CA         40.3090    3.8310   13.1320 C.3       4 GLP5        0.0000 
      9 CA         45.1765   -0.6960    6.4005 C.3       2 GLC5        0.0000 
     10 CA         44.5500    1.0780    7.3920 C.3       6 GLL5        0.0000 
     11 CA         45.8030   -2.4700    5.4090 C.3       4 GLP5        0.0000 
     12 O          40.2540    0.8690   10.3045 O.2       1 ALC1        0.0000 
     13 O          41.5250    0.6100   10.3900 O.2       5 ALL1        0.0000 
     14 O          38.9830    1.1280   10.2190 O.2       3 ALP1        0.0000 
     15 CA         41.7130    1.7557   14.5348 C.3       2 GLC5        0.0000 
     16 CA         40.7110    3.3850   14.5480 C.3       4 GLP5        0.0000 
     17 CA         43.2769   -1.5603   15.6211 C.3       2 GLC5        0.0000 
     18 CA         43.5910   -3.2240   16.4770 C.3       4 GLP5        0.0000 
     19 CA         45.4200    1.8237   13.1337 C.3       2 GLC5        0.0000 
     20 CA         45.2820    0.1500   14.5410 C.3       6 GLL5        0.0000 
     21 CA         46.0130    3.4500   12.2450 C.3       4 GLP5        0.0000 
     22 CA         44.3282   -1.5743   15.8373 C.3       2 GLC5        0.0000 
     23 CA         44.4982    1.5347   16.5374 C.3       2 GLC5        0.0000 
     24 CA         43.4970   -0.0470   16.1950 C.3       6 GLL5        0.0000 
     25 CA         44.2690    3.0060   17.7920 C.3       4 GLP5        0.0000 
     26 CA         46.3047    1.5657   15.6062 C.3       2 GLC5        0.0000 
     27 CA         44.8490    0.0010   15.8540 C.3       6 GLL5        0.0000 
     28 CA         47.5440    3.0560   16.0150 C.3       4 GLP5        0.0000 
     29 CA         44.3137   -1.2862    9.5163 C.3       2 GLC5        0.0000 
     30 CA         43.9550    0.4710   11.1010 C.3       6 GLL5        0.0000 
     31 CA         44.3290   -3.1620    8.5900 C.3       4 GLP5        0.0000 
     32 CA         45.1557    2.0198   11.3438 C.3       2 GLC5        0.0000 
     33 CA         44.6420    0.7080    9.7840 C.3       6 GLL5        0.0000 
     34 CA         46.1960    2.2252   10.7045 C.3       2 GLC5        0.0000 
     35 CA         46.7180    1.1290    8.5710 C.3       6 GLL5        0.0000 
     36 CA         46.9530   -0.5184    7.6608 C.3       2 GLC5        0.0000 
     37 CA         46.0400    0.8720    9.7570 C.3       6 GLL5        0.0000 
     38 CA         47.7000   -2.1560    7.0560 C.3       4 GLP5        0.0000 
     39 CA         42.5847    0.6645    7.0747 C.3       2 GLC5        0.0000 
     40 CA         40.9390    0.3790    6.1520 C.3       4 GLP5        0.0000 
     41 CA         44.2797   -1.1060    8.2937 C.3       2 GLC5        0.0000 
     42 CA         43.9110    0.8220    8.6030 C.3       6 GLL5        0.0000 
@<TRIPOS>BOND
@<TRIPOS>SUBSTRUCTURE
     1 ALC1       12 GROUP        1 X    ALC  0     ROOT ALC X 1
     2 GLC5        1 GROUP        1 X    GLC  0     **** GLC X 6
     3 ALP1       14 GROUP        1 Y    ALP  0     ROOT ALP Y 8
     4 GLP5        3 GROUP        1 Y    GLP  0     **** GLP Y 13
     5 ALL1       13 GROUP        1 Z    ALL  0     ROOT ALL Z 15
     6 GLL5        2 GROUP        1 Z    GLL  0     **** GLL Z 20
@<TRIPOS>SET

