#    Name: 3bpt_QUE_1_ligand
#    Modification time : Mon Mar 24 19:55:54 2014

@<TRIPOS>MOLECULE
3bpt_QUE_1_ligand
   32    34     1     0     0
SMALL
NO_CHARGES


@<TRIPOS>ATOM
      1 C1         43.4970   -0.0470   16.1950 C.ar      1 QUE501      0.0000 
      2 C2         42.5060    0.0450   15.2200 C.ar      1 QUE501      0.0000 
      3 C3         42.9240    0.2080   13.8230 C.ar      1 QUE501      0.0000 
      4 C4         44.3720    0.2450   13.5040 C.ar      1 QUE501      0.0000 
      5 C5         45.2820    0.1500   14.5410 C.ar      1 QUE501      0.0000 
      6 C6         44.8490    0.0010   15.8540 C.ar      1 QUE501      0.0000 
      7 C9         41.9410    0.3260   12.7170 C.2       1 QUE501      0.0000 
      8 C10        42.4690    0.4810   11.3480 C.2       1 QUE501      0.0000 
      9 C11        43.9550    0.4710   11.1010 C.2       1 QUE501      0.0000 
     10 C14        44.6420    0.7080    9.7840 C.ar      1 QUE501      0.0000 
     11 C15        46.0400    0.8720    9.7570 C.ar      1 QUE501      0.0000 
     12 C16        46.7180    1.1290    8.5710 C.ar      1 QUE501      0.0000 
     13 C17        46.0330    1.2380    7.3670 C.ar      1 QUE501      0.0000 
     14 C18        44.5500    1.0780    7.3920 C.ar      1 QUE501      0.0000 
     15 C19        43.9110    0.8220    8.6030 C.ar      1 QUE501      0.0000 
     16 O12        44.8080    0.3870   12.2220 O.3       1 QUE501      0.0000 
     17 O13        40.6840    0.2740   12.8810 O.2       1 QUE501      0.0000 
     18 O23        43.8170    1.1890    6.2520 O.3       1 QUE501      0.0000 
     19 O24        46.7140    1.5080    6.2070 O.3       1 QUE501      0.0000 
     20 O27        41.5250    0.6100   10.3900 O.3       1 QUE501      0.0000 
     21 O29        45.7930   -0.0940   16.8450 O.3       1 QUE501      0.0000 
     22 O30        41.1880   -0.0060   15.5340 O.3       1 QUE501      0.0000 
     23 H          43.2268   -0.1526   17.1880 H         1 QUE501      0.0000 
     24 H          46.2962    0.1898   14.3413 H         1 QUE501      0.0000 
     25 H          46.5684    0.7981   10.6450 H         1 QUE501      0.0000 
     26 H          47.7466    1.2406    8.5852 H         1 QUE501      0.0000 
     27 H          42.8842    0.7155    8.6262 H         1 QUE501      0.0000 
     28 H          43.3565    0.3068    6.1536 H         1 QUE501      0.0000 
     29 H          46.1562    1.1071    5.4803 H         1 QUE501      0.0000 
     30 H          40.7077    0.9246   10.8728 H         1 QUE501      0.0000 
     31 H          45.2988   -0.4455   17.6402 H         1 QUE501      0.0000 
     32 H          40.7108    0.0508   14.6571 H         1 QUE501      0.0000 
@<TRIPOS>BOND
     1    2    1 ar   
     2    6    1 ar   
     3   23    1 1    
     4    3    2 ar   
     5   22    2 1    
     6    4    3 ar   
     7    7    3 1    
     8    5    4 ar   
     9   16    4 1    
    10    6    5 ar   
    11   24    5 1    
    12   21    6 1    
    13    8    7 1    
    14   17    7 2    
    15    9    8 2    
    16   20    8 1    
    17   10    9 1    
    18   16    9 1    
    19   11   10 ar   
    20   15   10 ar   
    21   12   11 ar   
    22   25   11 1    
    23   13   12 ar   
    24   26   12 1    
    25   14   13 ar   
    26   19   13 1    
    27   15   14 ar   
    28   18   14 1    
    29   27   15 1    
    30   28   18 1    
    31   29   19 1    
    32   30   20 1    
    33   31   21 1    
    34   32   22 1    
@<TRIPOS>SUBSTRUCTURE
     1 QUE501      1 GROUP   
@<TRIPOS>SET

