#    Name: 3gz9_D32_1_INTS_M
#    Modification time : Tue Mar 25 13:18:24 2014

@<TRIPOS>MOLECULE
3gz9_D32_1_INTS_M
  116     0     6     0     0
SMALL
NO_CHARGES


@<TRIPOS>ATOM
      1 N          39.8605   77.6465   -4.8095 N.am      1 SEC2        0.0000 
      2 N          38.6210   77.7970   -5.1200 N.am      5 SEL2        0.0000 
      3 N          41.1000   77.4960   -4.4990 N.am      3 SEP2        0.0000 
      4 N          39.9235   76.8000   -5.4235 N.am      1 SEC2        0.0000 
      5 N          38.7470   76.1040   -6.3480 N.am      5 SEL2        0.0000 
      6 N          39.9120   76.4105   -7.0910 N.am      1 SEC2        0.0000 
      7 N          41.0770   76.7170   -7.8340 N.am      3 SEP2        0.0000 
      8 N          39.3460   74.9665   -6.8110 N.am      1 SEC2        0.0000 
      9 N          39.9450   73.8290   -7.2740 N.am      3 SEP2        0.0000 
     10 CA         34.7460   76.9340   -5.5555 C.3       2 GLC5        0.0000 
     11 CA         36.6200   76.4590   -5.3700 C.3       6 GLL5        0.0000 
     12 CA         32.8720   77.4090   -5.7410 C.3       4 GLP5        0.0000 
     13 CA         37.4180   76.9340   -3.5790 C.3       2 GLC5        0.0000 
     14 CA         38.2160   77.4090   -1.7880 C.3       4 GLP5        0.0000 
     15 CA         36.6790   76.5100   -7.3425 C.3       2 GLC5        0.0000 
     16 CA         36.7380   76.5610   -9.3150 C.3       4 GLP5        0.0000 
     17 CA         36.1440   78.0730   -5.0895 C.3       2 GLC5        0.0000 
     18 CA         35.6680   79.6870   -4.8090 C.3       4 GLP5        0.0000 
     19 CA         37.2400   75.2975   -2.9190 C.3       2 GLC5        0.0000 
     20 CA         37.5940   73.7930   -4.4870 C.3       6 GLL5        0.0000 
     21 CA         36.8860   76.8020   -1.3510 C.3       4 GLP5        0.0000 
     22 CA         34.1820   73.7260   -8.4385 C.3       2 GLC5        0.0000 
     23 CA         35.0320   73.0790   -7.1090 C.3       6 GLL5        0.0000 
     24 CA         33.3320   74.3730   -9.7680 C.3       4 GLP5        0.0000 
     25 CA         36.1055   73.9875   -8.5110 C.3       2 GLC5        0.0000 
     26 CA         37.1790   74.8960   -9.9130 C.3       4 GLP5        0.0000 
     27 CA         34.0425   70.6305   -4.9940 C.3       2 GLC5        0.0000 
     28 CA         35.5610   70.5040   -6.1810 C.3       6 GLL5        0.0000 
     29 CA         32.5240   70.7570   -3.8070 C.3       4 GLP5        0.0000 
     30 CA         35.6440   69.9265   -7.9035 C.3       2 GLC5        0.0000 
     31 CA         35.7270   69.3490   -9.6260 C.3       4 GLP5        0.0000 
     32 CA         34.9170   68.8430   -6.3540 C.3       2 GLC5        0.0000 
     33 CA         34.2730   67.1820   -6.5270 C.3       4 GLP5        0.0000 
     34 CA         39.4835   70.7010   -3.6520 C.3       2 GLC5        0.0000 
     35 CA         37.5160   69.7580   -3.9510 C.3       6 GLL5        0.0000 
     36 CA         41.4510   71.6440   -3.3530 C.3       4 GLP5        0.0000 
     37 CA         39.0985   68.4925   -3.8405 C.3       2 GLC5        0.0000 
     38 CA         40.6810   67.2270   -3.7300 C.3       4 GLP5        0.0000 
     39 CA         34.9090   71.9255    0.8290 C.3       2 GLC5        0.0000 
     40 CA         35.0710   70.4920   -0.7940 C.3       6 GLL5        0.0000 
     41 CA         34.7470   73.3590    2.4520 C.3       4 GLP5        0.0000 
     42 CA         35.7965   65.5560   -3.6300 C.3       2 GLC5        0.0000 
     43 CA         36.6170   65.9970   -2.0840 C.3       6 GLL5        0.0000 
     44 CA         34.9760   65.1150   -5.1760 C.3       4 GLP5        0.0000 
     45 CA         38.3880   67.6210   -0.4075 C.3       2 GLC5        0.0000 
     46 CA         37.6110   65.7780   -1.0390 C.3       6 GLL5        0.0000 
     47 CA         39.1650   69.4640    0.2240 C.3       4 GLP5        0.0000 
     48 CA         39.1110   66.8150    1.0455 C.3       2 GLC5        0.0000 
     49 CA         38.5250   65.5050   -0.1680 C.3       6 GLL5        0.0000 
     50 CA         39.6970   68.1250    2.2590 C.3       4 GLP5        0.0000 
     51 CA         38.5345   64.2550    1.1545 C.3       2 GLC5        0.0000 
     52 CA         38.5440   63.0050    2.4770 C.3       4 GLP5        0.0000 
     53 CA         37.2060   65.6905    1.0685 C.3       2 GLC5        0.0000 
     54 CA         35.8870   65.8760    2.3050 C.3       4 GLP5        0.0000 
     55 CA         39.3385   65.7050   -1.7025 C.3       2 GLC5        0.0000 
     56 CA         40.1520   65.9050   -3.2370 C.3       4 GLP5        0.0000 
     57 CA         34.9470   67.4860    1.6405 C.3       2 GLC5        0.0000 
     58 CA         34.0070   69.0960    0.9760 C.3       6 GLL5        0.0000 
     59 CA         32.6335   68.4540    2.2015 C.3       2 GLC5        0.0000 
     60 CA         31.2600   67.8120    3.4270 C.3       4 GLP5        0.0000 
     61 CA         31.3795   68.2990    1.3405 C.3       2 GLC5        0.0000 
     62 CA         31.4990   68.7860   -0.7460 C.3       6 GLL5        0.0000 
     63 CA         30.1710   66.9160   -2.5540 C.3       2 GLC5        0.0000 
     64 CA         30.2340   68.4540   -1.1810 C.3       6 GLL5        0.0000 
     65 CA         30.1080   65.3780   -3.9270 C.3       4 GLP5        0.0000 
     66 CA         25.8140   66.7615    0.2640 C.3       2 GLC5        0.0000 
     67 CA         27.0160   68.1680   -0.0370 C.3       6 GLL5        0.0000 
     68 CA         24.6120   65.3550    0.5650 C.3       4 GLP5        0.0000 
     69 CA         26.7245   69.3820    1.5665 C.3       2 GLC5        0.0000 
     70 CA         26.4330   70.5960    3.1700 C.3       4 GLP5        0.0000 
     71 CA         28.3875   65.9960   -1.0835 C.3       2 GLC5        0.0000 
     72 CA         27.8370   67.5690   -1.8140 C.3       6 GLL5        0.0000 
     73 CA         28.9380   64.4230   -0.3530 C.3       4 GLP5        0.0000 
     74 CA         26.7205   66.2360   -2.6290 C.3       2 GLC5        0.0000 
     75 CA         25.6040   64.9030   -3.4440 C.3       4 GLP5        0.0000 
     76 CA         28.9725   66.4735   -2.8705 C.3       2 GLC5        0.0000 
     77 CA         25.2800   69.5885   -2.1755 C.3       2 GLC5        0.0000 
     78 CA         27.1720   69.5830   -1.7000 C.3       6 GLL5        0.0000 
     79 CA         23.3880   69.5940   -2.6510 C.3       4 GLP5        0.0000 
     80 CA         26.8160   69.0290   -3.4240 C.3       2 GLC5        0.0000 
     81 CA         26.4600   68.4750   -5.1480 C.3       4 GLP5        0.0000 
     82 CA         34.3210   72.9068   -5.1629 C.3       2 GLC5        0.0000 
     83 CA         36.0120   72.8890   -5.9740 C.3       6 GLL5        0.0000 
     84 CA         32.9590   72.5510   -3.9080 C.3       4 GLP5        0.0000 
     85 CA         34.8640   72.0228   -4.4562 C.3       2 GLC5        0.0000 
     86 CA         36.3150   71.6140   -5.5190 C.3       6 GLL5        0.0000 
     87 CA         37.8154   69.8044   -1.1872 C.3       2 GLC5        0.0000 
     88 CA         35.9150   70.6320   -1.9370 C.3       6 GLL5        0.0000 
     89 CA         34.0837   70.5251   -2.6652 C.3       2 GLC5        0.0000 
     90 CA         36.5170   69.5570   -2.5690 C.3       6 GLL5        0.0000 
     91 CA         37.5288   68.8473   -0.6457 C.3       2 GLC5        0.0000 
     92 CA         35.4780   68.1540   -0.9410 C.3       6 GLL5        0.0000 
     93 CA         36.5005   65.8817    0.3718 C.3       2 GLC5        0.0000 
     94 CA         38.6330   65.8962   -2.3992 C.3       2 GLC5        0.0000 
     95 CA         36.2250   64.1153   -1.8592 C.3       2 GLC5        0.0000 
     96 CA         35.3360   62.3430   -2.1570 C.3       4 GLP5        0.0000 
     97 CA         35.5323   67.2848    0.8505 C.3       2 GLC5        0.0000 
     98 CA         36.2357   69.6231    1.2519 C.3       2 GLC5        0.0000 
     99 CA         37.9810   69.7670    2.2810 C.3       4 GLP5        0.0000 
    100 CA         28.9588   71.3725   -0.4950 C.3       2 GLC5        0.0000 
    101 CA         30.5250   70.2170    0.9260 C.3       6 GLL5        0.0000 
    102 CA         28.0150   72.6880   -1.6970 C.3       4 GLP5        0.0000 
    103 CA         30.7228   68.8683    1.9892 C.3       2 GLC5        0.0000 
    104 CA         29.2800   69.8970    0.4880 C.3       6 GLL5        0.0000 
    105 CA         29.3545   68.8762   -2.9062 C.3       2 GLC5        0.0000 
    106 CA         29.1320   69.0430   -0.5880 C.3       6 GLL5        0.0000 
    107 CA         29.0260   69.0040   -4.9280 C.3       4 GLP5        0.0000 
    108 CA         31.7150   69.8011   -2.2540 C.3       2 GLC5        0.0000 
    109 CA         29.2740   67.3630    0.5942 C.3       2 GLC5        0.0000 
    110 CA         28.8280   65.7640    1.8040 C.3       4 GLP5        0.0000 
    111 CA         25.4778   68.9712   -0.3265 C.3       2 GLC5        0.0000 
    112 CA         27.7570   68.6210   -1.0470 C.3       6 GLL5        0.0000 
    113 CA         23.5690   69.5480   -0.1110 C.3       4 GLP5        0.0000 
    114 CA         28.4115   68.5495   -3.1792 C.3       2 GLC5        0.0000 
    115 CA         28.1073   67.0793    0.6310 C.3       2 GLC5        0.0000 
    116 CA         27.9116   70.9477   -1.4779 C.3       2 GLC5        0.0000 
@<TRIPOS>BOND
@<TRIPOS>SUBSTRUCTURE
     1 SEC2        1 GROUP        1 X    SEC  0     ROOT SEC X 2
     2 GLC5       10 GROUP        1 X    GLC  0     **** GLC X 6
     3 SEP2        3 GROUP        1 Y    SEP  0     ROOT SEP Y 9
     4 GLP5       12 GROUP        1 Y    GLP  0     **** GLP Y 13
     5 SEL2        2 GROUP        1 Z    SEL  0     ROOT SEL Z 16
     6 GLL5       11 GROUP        1 Z    GLL  0     **** GLL Z 20
@<TRIPOS>SET

