#    Name: 3gz9_D32_1_ligand
#    Modification time : Tue Mar 25 13:18:24 2014

@<TRIPOS>MOLECULE
3gz9_D32_1_ligand
   57    59     1     0     0
SMALL
NO_CHARGES


@<TRIPOS>ATOM
      1 O22        38.6210   77.7970   -5.1200 O.co2     1 D321        0.0000 
      2 C17        38.0720   76.7800   -5.5820 C.2       1 D321        0.0000 
      3 O21        38.7470   76.1040   -6.3480 O.co2     1 D321        0.0000 
      4 C14        36.6200   76.4590   -5.3700 C.3       1 D321        0.0000 
      5 O11        36.3070   75.2270   -6.0720 O.3       1 D321        0.0000 
      6 C5         36.6560   74.0030   -5.4790 C.ar      1 D321        0.0000 
      7 C10        37.5940   73.7930   -4.4870 C.ar      1 D321        0.0000 
      8 C8         37.8940   72.4700   -3.9420 C.ar      1 D321        0.0000 
      9 C2         36.0120   72.8890   -5.9740 C.ar      1 D321        0.0000 
     10 C6         35.0320   73.0790   -7.1090 C.3       1 D321        0.0000 
     11 C1         36.3150   71.6140   -5.5190 C.ar      1 D321        0.0000 
     12 C4         35.5610   70.5040   -6.1810 C.3       1 D321        0.0000 
     13 C3         37.2230   71.3750   -4.4900 C.ar      1 D321        0.0000 
     14 S7         37.5160   69.7580   -3.9510 S.3       1 D321        0.0000 
     15 C13        36.5170   69.5570   -2.5690 C.ar      1 D321        0.0000 
     16 C16        35.9150   70.6320   -1.9370 C.ar      1 D321        0.0000 
     17 C20        35.0710   70.4920   -0.7940 C.ar      1 D321        0.0000 
     18 C15        36.3070   68.3070   -2.0900 C.ar      1 D321        0.0000 
     19 O1         36.9440   67.2320   -2.7270 O.3       1 D321        0.0000 
     20 C7         36.6170   65.9970   -2.0840 C.3       1 D321        0.0000 
     21 C11        37.6110   65.7780   -1.0390 C.1       1 D321        0.0000 
     22 C19        38.5250   65.5050   -0.1680 C.1       1 D321        0.0000 
     23 C18        35.4780   68.1540   -0.9410 C.ar      1 D321        0.0000 
     24 C23        34.8770   69.2330   -0.2670 C.ar      1 D321        0.0000 
     25 C24        34.0070   69.0960    0.9760 C.3       1 D321        0.0000 
     26 O25        32.9240   70.0100    0.8180 O.3       1 D321        0.0000 
     27 C26        31.6570   69.6870    0.3040 C.ar      1 D321        0.0000 
     28 C28        30.5250   70.2170    0.9260 C.ar      1 D321        0.0000 
     29 C30        29.2800   69.8970    0.4880 C.ar      1 D321        0.0000 
     30 C27        31.4990   68.7860   -0.7460 C.ar      1 D321        0.0000 
     31 C29        30.2340   68.4540   -1.1810 C.ar      1 D321        0.0000 
     32 C31        29.1320   69.0430   -0.5880 C.ar      1 D321        0.0000 
     33 C32        27.7570   68.6210   -1.0470 C.3       1 D321        0.0000 
     34 F34        27.0160   68.1680   -0.0370 F         1 D321        0.0000 
     35 F35        27.8370   67.5690   -1.8140 F         1 D321        0.0000 
     36 F33        27.1720   69.5830   -1.7000 F         1 D321        0.0000 
     37 H          36.0166   77.2865   -5.7479 H         1 D321        0.0000 
     38 H          36.4340   76.3551   -4.2994 H         1 D321        0.0000 
     39 H          38.1288   74.5908   -4.0878 H         1 D321        0.0000 
     40 H          38.5611   72.3844   -3.2028 H         1 D321        0.0000 
     41 H          36.0750   71.5991   -2.3005 H         1 D321        0.0000 
     42 H          34.6335   71.3156   -0.3946 H         1 D321        0.0000 
     43 H          36.6414   65.1683   -2.7959 H         1 D321        0.0000 
     44 H          35.6191   66.0404   -1.6408 H         1 D321        0.0000 
     45 H          35.3120   67.1852   -0.5855 H         1 D321        0.0000 
     46 H          34.6161   69.3312    1.8415 H         1 D321        0.0000 
     47 H          33.6675   68.0683    1.0383 H         1 D321        0.0000 
     48 H          30.6540   70.8604    1.7298 H         1 D321        0.0000 
     49 H          28.4411   70.2845    0.9497 H         1 D321        0.0000 
     50 H          32.3291   68.3724   -1.1920 H         1 D321        0.0000 
     51 H          30.1080   67.7730   -1.9414 H         1 D321        0.0000 
     52 H          35.4704   73.4749   -7.9159 H         1 D321        0.0000 
     53 H          34.6213   72.2129   -7.3939 H         1 D321        0.0000 
     54 H          34.2820   73.6892   -6.8538 H         1 D321        0.0000 
     55 H          35.7299   70.4762   -7.1662 H         1 D321        0.0000 
     56 H          35.8182   69.6099   -5.8142 H         1 D321        0.0000 
     57 H          34.5735   70.5993   -6.0555 H         1 D321        0.0000 
@<TRIPOS>BOND
     1    2    1 ar   
     2    3    2 ar   
     3    4    2 1    
     4    5    4 1    
     5   37    4 1    
     6   38    4 1    
     7    6    5 1    
     8    7    6 ar   
     9    9    6 ar   
    10    8    7 ar   
    11   39    7 1    
    12   13    8 ar   
    13   40    8 1    
    14   10    9 1    
    15   11    9 ar   
    16   52   10 1    
    17   53   10 1    
    18   54   10 1    
    19   12   11 1    
    20   13   11 ar   
    21   55   12 1    
    22   56   12 1    
    23   57   12 1    
    24   14   13 1    
    25   15   14 1    
    26   16   15 ar   
    27   18   15 ar   
    28   17   16 ar   
    29   41   16 1    
    30   24   17 ar   
    31   42   17 1    
    32   19   18 1    
    33   23   18 ar   
    34   20   19 1    
    35   21   20 1    
    36   43   20 1    
    37   44   20 1    
    38   22   21 3    
    39   24   23 ar   
    40   45   23 1    
    41   25   24 1    
    42   26   25 1    
    43   46   25 1    
    44   47   25 1    
    45   27   26 1    
    46   28   27 ar   
    47   30   27 ar   
    48   29   28 ar   
    49   48   28 1    
    50   32   29 ar   
    51   49   29 1    
    52   31   30 ar   
    53   50   30 1    
    54   32   31 ar   
    55   51   31 1    
    56   33   32 1    
    57   34   33 1    
    58   35   33 1    
    59   36   33 1    
@<TRIPOS>SUBSTRUCTURE
     1 D321        1 GROUP   
@<TRIPOS>SET

