#    Name: 4kq2_U5P_4_INTS_M
#    Modification time : Tue Mar 25 08:19:32 2014

@<TRIPOS>MOLECULE
4kq2_U5P_4_INTS_M
   43     0    12     0     0
SMALL
NO_CHARGES


@<TRIPOS>ATOM
      1 CA         68.0970   49.8645   78.1580 C.3       4 GLC5        0.0000 
      2 CA         67.1780   48.0460   78.3580 C.3      12 GLL5        0.0000 
      3 CA         69.0160   51.6830   77.9580 C.3       8 GLP5        0.0000 
      4 CA         66.0145   49.1055   78.8130 C.3       4 GLC5        0.0000 
      5 CA         64.8510   50.1650   79.2680 C.3       8 GLP5        0.0000 
      6 CA         65.5110   48.8010   76.8305 C.3       4 GLC5        0.0000 
      7 CA         66.9020   47.5950   77.0710 C.3      12 GLL5        0.0000 
      8 CA         64.1200   50.0070   76.5900 C.3       8 GLP5        0.0000 
      9 N          65.7250   43.2175   77.5975 N.am      2 SEC2        0.0000 
     10 N          65.0740   44.6900   77.9050 N.am     10 SEL2        0.0000 
     11 N          66.3760   41.7450   77.2900 N.am      6 SEP2        0.0000 
     12 N          66.8830   47.2660   82.0990 N.am      2 SEC2        0.0000 
     13 N          66.9470   47.7200   80.6150 N.am     10 SEL2        0.0000 
     14 N          66.8190   46.8120   83.5830 N.am      6 SEP2        0.0000 
     15 CA         64.7205   47.5865   76.5270 C.3       4 GLC5        0.0000 
     16 CA         65.9070   46.0020   75.5270 C.3      12 GLL5        0.0000 
     17 CA         63.5340   49.1710   77.5270 C.3       8 GLP5        0.0000 
     18 CA         64.7240   48.5965   75.6770 C.3       4 GLC5        0.0000 
     19 CA         65.3280   47.1860   74.7640 C.3      12 GLL5        0.0000 
     20 O          63.1705   47.3095   73.5610 O.2       1 ALC1        0.0000 
     21 O          63.9410   46.9790   74.4730 O.2       9 ALL1        0.0000 
     22 O          62.4000   47.6400   72.6490 O.2       5 ALP1        0.0000 
     23 O          63.7975   48.2000   73.6410 O.2       1 ALC1        0.0000 
     24 O          63.6540   49.4210   72.8090 O.2       5 ALP1        0.0000 
     25 CA         65.9065   47.6045   71.4600 C.3       4 GLC5        0.0000 
     26 CA         66.1600   47.3320   73.5040 C.3      12 GLL5        0.0000 
     27 CA         65.6530   47.8770   69.4160 C.3       8 GLP5        0.0000 
     28 O          63.8765   47.3275   72.5085 O.2       1 ALC1        0.0000 
     29 O          65.3530   47.0150   72.3680 O.2       9 ALL1        0.0000 
     30 O          64.5035   48.2180   72.5885 O.2       1 ALC1        0.0000 
     31 CA         70.0855   47.9170   74.6465 C.3       4 GLC5        0.0000 
     32 CA         68.6660   46.9610   73.5890 C.3      12 GLL5        0.0000 
     33 CA         71.5050   48.8730   75.7040 C.3       8 GLP5        0.0000 
     34 NZ         71.6300   48.3620   72.0240 N.4       3 LYC4        0.0000 
     35 NZ         71.1770   46.6610   72.0850 N.4      11 LYL4        0.0000 
     36 NZ         72.0830   50.0630   71.9630 N.4       7 LYP4        0.0000 
     37 NZ         71.1150   49.1240   71.1285 N.4       3 LYC4        0.0000 
     38 NZ         70.1470   48.1850   70.2940 N.4      11 LYL4        0.0000 
     39 N          71.1150   49.1240   71.1285 N.am      2 SEC2        0.0000 
     40 N          70.1470   48.1850   70.2940 N.am     10 SEL2        0.0000 
     41 N          72.0830   50.0630   71.9630 N.am      6 SEP2        0.0000 
     42 CA         68.6240   47.1718   78.4408 C.3       4 GLC5        0.0000 
     43 CA         70.2080   46.5230   79.1670 C.3       8 GLP5        0.0000 
@<TRIPOS>BOND
@<TRIPOS>SUBSTRUCTURE
     1 ALC1       20 GROUP        1 X    ALC  0     ROOT ALC X 1
     2 SEC2        9 GROUP        1 X    SEC  0     **** SEC X 2
     3 LYC4       34 GROUP        1 X    LYC  0     **** LYC X 4
     4 GLC5        1 GROUP        1 X    GLC  0     **** GLC X 6
     5 ALP1       22 GROUP        1 Y    ALP  0     ROOT ALP Y 8
     6 SEP2       11 GROUP        1 Y    SEP  0     **** SEP Y 9
     7 LYP4       36 GROUP        1 Y    LYP  0     **** LYP Y 11
     8 GLP5        3 GROUP        1 Y    GLP  0     **** GLP Y 13
     9 ALL1       21 GROUP        1 Z    ALL  0     ROOT ALL Z 15
    10 SEL2       10 GROUP        1 Z    SEL  0     **** SEL Z 16
    11 LYL4       35 GROUP        1 Z    LYL  0     **** LYL Z 18
    12 GLL5        2 GROUP        1 Z    GLL  0     **** GLL Z 20
@<TRIPOS>SET

