#    Name: 4kq2_U5P_4_ligand
#    Modification time : Tue Mar 25 08:19:33 2014

@<TRIPOS>MOLECULE
4kq2_U5P_4_ligand
   32    33     1     0     0
SMALL
NO_CHARGES


@<TRIPOS>ATOM
      1 N1         66.1950   46.4610   76.8920 N.am      1 U5P802      0.0000 
      2 C2         65.7290   45.7410   78.0250 C.2       1 U5P802      0.0000 
      3 N3         65.9970   46.1860   79.2600 N.am      1 U5P802      0.0000 
      4 C4         66.7050   47.3190   79.4510 C.2       1 U5P802      0.0000 
      5 C5         67.1780   48.0460   78.3580 C.2       1 U5P802      0.0000 
      6 C6         66.9020   47.5950   77.0710 C.2       1 U5P802      0.0000 
      7 O2         65.0740   44.6900   77.9050 O.2       1 U5P802      0.0000 
      8 O4         66.9470   47.7200   80.6150 O.2       1 U5P802      0.0000 
      9 C1'        65.9070   46.0020   75.5270 C.3       1 U5P802      0.0000 
     10 C2'        65.3280   47.1860   74.7640 C.3       1 U5P802      0.0000 
     11 O2'        63.9410   46.9790   74.4730 O.3       1 U5P802      0.0000 
     12 C3'        66.1600   47.3320   73.5040 C.3       1 U5P802      0.0000 
     13 C4'        67.2850   46.3110   73.6200 C.3       1 U5P802      0.0000 
     14 O3'        65.3530   47.0150   72.3680 O.3       1 U5P802      0.0000 
     15 O4'        67.1010   45.6030   74.8500 O.3       1 U5P802      0.0000 
     16 C5'        68.6660   46.9610   73.5890 C.3       1 U5P802      0.0000 
     17 O5'        68.9000   47.5870   72.3220 O.3       1 U5P802      0.0000 
     18 P          69.9660   47.0180   71.2480 P.3       1 U5P802      0.0000 
     19 O1P        71.1770   46.6610   72.0850 O.co2     1 U5P802      0.0000 
     20 O2P        69.2730   45.8160   70.6390 O.co2     1 U5P802      0.0000 
     21 O3P        70.1470   48.1850   70.2940 O.co2     1 U5P802      0.0000 
     22 H          65.6532   45.6487   80.0940 H         1 U5P802      0.0000 
     23 H          67.7208   48.8997   78.5030 H         1 U5P802      0.0000 
     24 H          67.2478   48.1436   76.2642 H         1 U5P802      0.0000 
     25 H          65.1750   45.2294   75.5361 H         1 U5P802      0.0000 
     26 H          65.4858   48.0686   75.3694 H         1 U5P802      0.0000 
     27 H          66.5725   48.2989   73.4669 H         1 U5P802      0.0000 
     28 H          67.2059   45.6302   72.7802 H         1 U5P802      0.0000 
     29 H          69.4098   46.1786   73.7963 H         1 U5P802      0.0000 
     30 H          68.7137   47.6870   74.4130 H         1 U5P802      0.0000 
     31 H          63.7843   47.4555   73.6079 H         1 U5P802      0.0000 
     32 H          64.4374   47.3419   72.6018 H         1 U5P802      0.0000 
@<TRIPOS>BOND
     1    2    1 1    
     2    6    1 1    
     3    9    1 1    
     4    3    2 1    
     5    7    2 2    
     6    4    3 1    
     7   22    3 1    
     8    5    4 1    
     9    8    4 2    
    10    6    5 2    
    11   23    5 1    
    12   24    6 1    
    13   10    9 1    
    14   15    9 1    
    15   25    9 1    
    16   11   10 1    
    17   12   10 1    
    18   26   10 1    
    19   31   11 1    
    20   13   12 1    
    21   14   12 1    
    22   27   12 1    
    23   15   13 1    
    24   16   13 1    
    25   28   13 1    
    26   32   14 1    
    27   17   16 1    
    28   29   16 1    
    29   30   16 1    
    30   18   17 1    
    31   19   18 ar   
    32   20   18 ar   
    33   21   18 ar   
@<TRIPOS>SUBSTRUCTURE
     1 U5P802      1 GROUP   
@<TRIPOS>SET

