#    Name: 3ccw_4HI_4_INTS_M
#    Modification time : Mon Mar 24 20:41:37 2014

@<TRIPOS>MOLECULE
3ccw_4HI_4_INTS_M
   95     0    12     0     0
SMALL
NO_CHARGES


@<TRIPOS>ATOM
      1 CA        -34.0915   31.4890   14.1055 C.3       4 GLC5        0.0000 
      2 CA        -33.7160   32.9530   13.0800 C.3      12 GLL5        0.0000 
      3 CA        -34.4670   30.0250   15.1310 C.3       8 GLP5        0.0000 
      4 CA        -28.1390   27.9070    7.8345 C.3       4 GLC5        0.0000 
      5 CA        -28.4270   29.2640    9.4600 C.3      12 GLL5        0.0000 
      6 CA        -27.8510   26.5500    6.2090 C.3       8 GLP5        0.0000 
      7 CA        -27.4795   28.6265   12.6415 C.3       4 GLC5        0.0000 
      8 CA        -27.5210   28.5660   10.4780 C.3      12 GLL5        0.0000 
      9 CA        -27.4380   28.6870   14.8050 C.3       8 GLP5        0.0000 
     10 CA        -24.5795   28.4670   12.7115 C.3       4 GLC5        0.0000 
     11 CA        -25.3700   27.4850   11.1320 C.3      12 GLL5        0.0000 
     12 CA        -23.7890   29.4490   14.2910 C.3       8 GLP5        0.0000 
     13 CA        -23.2420   27.7370   10.4755 C.3       4 GLC5        0.0000 
     14 CA        -21.1140   27.9890    9.8190 C.3       8 GLP5        0.0000 
     15 CA        -27.2685   32.8175    7.8960 C.3       4 GLC5        0.0000 
     16 CA        -28.8300   32.7280    9.3350 C.3      12 GLL5        0.0000 
     17 CA        -25.7070   32.9070    6.4570 C.3       8 GLP5        0.0000 
     18 CA        -30.1370   34.1340    8.6005 C.3       4 GLC5        0.0000 
     19 CA        -31.4440   35.5400    7.8660 C.3       8 GLP5        0.0000 
     20 CA        -27.9805   34.5720    9.5545 C.3       4 GLC5        0.0000 
     21 CA        -27.1310   36.4160    9.7740 C.3       8 GLP5        0.0000 
     22 N         -30.6160   33.8240   13.5985 N.am      2 SEC2        0.0000 
     23 N         -30.8440   32.7170   12.9600 N.am     10 SEL2        0.0000 
     24 N         -30.3880   34.9310   14.2370 N.am      6 SEP2        0.0000 
     25 CA        -33.1200   38.3665   10.7525 C.3       4 GLC5        0.0000 
     26 CA        -34.3060   36.8470   11.3360 C.3      12 GLL5        0.0000 
     27 CA        -31.9340   39.8860   10.1690 C.3       8 GLP5        0.0000 
     28 CA        -26.2290   33.5090   11.3915 C.3       4 GLC5        0.0000 
     29 CA        -27.4640   31.9280   11.3130 C.3      12 GLL5        0.0000 
     30 CA        -24.9940   35.0900   11.4700 C.3       8 GLP5        0.0000 
     31 CA        -30.3680   26.5975    7.5775 C.3       4 GLC5        0.0000 
     32 CA        -31.2830   27.2760    8.8780 C.3      12 GLL5        0.0000 
     33 CA        -29.4530   25.9190    6.2770 C.3       8 GLP5        0.0000 
     34 CA        -27.0240   27.2780    8.0805 C.3       4 GLC5        0.0000 
     35 CA        -26.1970   28.0060    9.9520 C.3      12 GLL5        0.0000 
     36 N         -24.5390   29.9655   10.1990 N.am      2 SEC2        0.0000 
     37 N         -25.4300   28.9930    9.2970 N.am     10 SEL2        0.0000 
     38 N         -23.6480   30.9380   11.1010 N.am      6 SEP2        0.0000 
     39 N         -24.0460   29.0665    8.7545 N.am      2 SEC2        0.0000 
     40 N         -22.6620   29.1400    8.2120 N.am      6 SEP2        0.0000 
     41 O         -25.7170   29.9030    8.4115 O.2       1 ALC1        0.0000 
     42 O         -25.4300   28.9930    9.2970 O.2       9 ALL1        0.0000 
     43 O         -26.0040   30.8130    7.5260 O.2       5 ALP1        0.0000 
     44 N         -26.4225   23.7810   10.5865 N.am      2 SEC2        0.0000 
     45 N         -25.8550   25.2100   10.6710 N.am     10 SEL2        0.0000 
     46 N         -26.9900   22.3520   10.5020 N.am      6 SEP2        0.0000 
     47 N         -26.9305   24.3635    9.7395 N.am      2 SEC2        0.0000 
     48 N         -28.0060   23.5170    8.8080 N.am      6 SEP2        0.0000 
     49 O         -24.8030   25.1725   10.0255 O.2       1 ALC1        0.0000 
     50 O         -25.8550   25.2100   10.6710 O.2       9 ALL1        0.0000 
     51 O         -23.7510   25.1350    9.3800 O.2       5 ALP1        0.0000 
     52 CA        -24.4580   27.6030   13.6030 C.3       4 GLC5        0.0000 
     53 CA        -25.1270   25.7570   12.9150 C.3      12 GLL5        0.0000 
     54 CA        -24.0800   24.3875   11.6280 C.3       4 GLC5        0.0000 
     55 CA        -23.0330   23.0180   10.3410 C.3       8 GLP5        0.0000 
     56 NZ        -26.3135   23.3105   15.0470 N.4       3 LYC4        0.0000 
     57 NZ        -25.3700   23.5040   13.5470 N.4      11 LYL4        0.0000 
     58 NZ        -27.2570   23.1170   16.5470 N.4       7 LYP4        0.0000 
     59 NZ        -24.1245   23.7435   14.3290 N.4       3 LYC4        0.0000 
     60 NZ        -22.8790   23.9830   15.1110 N.4       7 LYP4        0.0000 
     61 N         -26.2995   22.5910   13.7285 N.am      2 SEC2        0.0000 
     62 N         -25.3700   23.5040   13.5470 N.am     10 SEL2        0.0000 
     63 N         -27.2290   21.6780   13.9100 N.am      6 SEP2        0.0000 
     64 NZ        -27.0345   24.0245   15.4805 N.4       3 LYC4        0.0000 
     65 NZ        -26.8120   24.9320   14.4140 N.4      11 LYL4        0.0000 
     66 N         -27.0345   24.0245   15.4805 N.am      2 SEC2        0.0000 
     67 N         -26.8120   24.9320   14.4140 N.am     10 SEL2        0.0000 
     68 N         -27.2570   23.1170   16.5470 N.am      6 SEP2        0.0000 
     69 CA        -34.7622   36.8042   14.9573 C.3       4 GLC5        0.0000 
     70 CA        -34.1170   35.4180   13.2720 C.3      12 GLL5        0.0000 
     71 CA        -35.3090   37.5590   16.9190 C.3       8 GLP5        0.0000 
     72 CA        -32.4845   36.9810   12.7613 C.3       4 GLC5        0.0000 
     73 CA        -34.3140   36.6810   12.7190 C.3      12 GLL5        0.0000 
     74 CA        -30.6590   37.1980   13.4950 C.3       8 GLP5        0.0000 
     75 CA        -30.4145   27.9735   12.4665 C.3       4 GLC5        0.0000 
     76 CA        -30.9610   27.5840   10.1980 C.3      12 GLL5        0.0000 
     77 CA        -29.8500   28.8540   14.2450 C.3       8 GLP5        0.0000 
     78 CA        -31.5152   25.4548   12.8852 C.3       4 GLC5        0.0000 
     79 CA        -30.9970   26.6020   11.1780 C.3      12 GLL5        0.0000 
     80 CA        -31.8740   24.9600   14.7650 C.3       8 GLP5        0.0000 
     81 CA        -32.7278   35.3250    9.3257 C.3       4 GLC5        0.0000 
     82 CA        -33.9160   34.4760   11.0630 C.3      12 GLL5        0.0000 
     83 CA        -32.1057   35.1383   12.5764 C.3       4 GLC5        0.0000 
     84 CA        -30.2700   35.7760   13.1120 C.3       8 GLP5        0.0000 
     85 CA        -30.0998   29.8957   12.6855 C.3       4 GLC5        0.0000 
     86 CA        -30.9620   30.9130   11.4530 C.3      12 GLL5        0.0000 
     87 CA        -30.6141   25.2631    7.6878 C.3       4 GLC5        0.0000 
     88 CA        -31.6230   24.9890    9.5120 C.3      12 GLL5        0.0000 
     89 CA        -31.9146   23.5041    7.7242 C.3       4 GLC5        0.0000 
     90 CA        -31.6100   25.9720    8.5340 C.3      12 GLL5        0.0000 
     91 CA        -32.0540   22.4010    6.3500 C.3       8 GLP5        0.0000 
     92 CA        -32.5159   23.4907   10.9351 C.3       4 GLC5        0.0000 
     93 CA        -31.9340   23.7340    9.1740 C.3      12 GLL5        0.0000 
     94 CA        -33.3300   22.5430   12.1970 C.3       8 GLP5        0.0000 
     95 CA        -26.4132   27.4916   13.4842 C.3       4 GLC5        0.0000 
@<TRIPOS>BOND
@<TRIPOS>SUBSTRUCTURE
     1 ALC1       41 GROUP        1 X    ALC  0     ROOT ALC X 1
     2 SEC2       22 GROUP        1 X    SEC  0     **** SEC X 2
     3 LYC4       56 GROUP        1 X    LYC  0     **** LYC X 4
     4 GLC5        1 GROUP        1 X    GLC  0     **** GLC X 6
     5 ALP1       43 GROUP        1 Y    ALP  0     ROOT ALP Y 8
     6 SEP2       24 GROUP        1 Y    SEP  0     **** SEP Y 9
     7 LYP4       58 GROUP        1 Y    LYP  0     **** LYP Y 11
     8 GLP5        3 GROUP        1 Y    GLP  0     **** GLP Y 13
     9 ALL1       42 GROUP        1 Z    ALL  0     ROOT ALL Z 15
    10 SEL2       23 GROUP        1 Z    SEL  0     **** SEL Z 16
    11 LYL4       57 GROUP        1 Z    LYL  0     **** LYL Z 18
    12 GLL5        2 GROUP        1 Z    GLL  0     **** GLL Z 20
@<TRIPOS>SET

