#    Name: 3ccw_4HI_4_ligand
#    Modification time : Mon Mar 24 20:41:38 2014

@<TRIPOS>MOLECULE
3ccw_4HI_4_ligand
   67    69     1     0     0
SMALL
NO_CHARGES


@<TRIPOS>ATOM
      1 N1        -29.5780   29.7420   10.2310 N.pl3     1 4HI3        0.0000 
      2 N3        -31.5030   29.7000   11.2990 N.2       1 4HI3        0.0000 
      3 C4        -33.7160   32.9530   13.0800 C.3       1 4HI3        0.0000 
      4 C5        -30.6440   28.9810   10.5640 C.2       1 4HI3        0.0000 
      5 C6        -28.8610   32.1710   10.7530 C.3       1 4HI3        0.0000 
      6 C7        -28.4270   29.2640    9.4600 C.3       1 4HI3        0.0000 
      7 C8        -27.5210   28.5660   10.4780 C.3       1 4HI3        0.0000 
      8 C10       -25.3700   27.4850   11.1320 C.3       1 4HI3        0.0000 
      9 C13       -28.8300   32.7280    9.3350 C.3       1 4HI3        0.0000 
     10 C15       -31.6100   25.9720    8.5340 C.ar      1 4HI3        0.0000 
     11 C17       -34.1170   35.4180   13.2720 C.ar      1 4HI3        0.0000 
     12 C20       -34.3140   36.6810   12.7190 C.ar      1 4HI3        0.0000 
     13 C21       -30.9970   26.6020   11.1780 C.ar      1 4HI3        0.0000 
     14 C24       -31.3160   25.2970   10.8330 C.ar      1 4HI3        0.0000 
     15 C26       -33.9160   34.4760   11.0630 C.ar      1 4HI3        0.0000 
     16 O2        -30.8440   32.7170   12.9600 O.2       1 4HI3        0.0000 
     17 C3        -31.5460   32.0580   12.2020 C.2       1 4HI3        0.0000 
     18 N2        -32.8730   32.1220   12.2260 N.am      1 4HI3        0.0000 
     19 C32       -33.9170   34.3120   12.4500 C.ar      1 4HI3        0.0000 
     20 C23       -34.1070   35.7440   10.5080 C.ar      1 4HI3        0.0000 
     21 C29       -34.3060   36.8470   11.3360 C.ar      1 4HI3        0.0000 
     22 C2        -30.9620   30.9130   11.4530 C.2       1 4HI3        0.0000 
     23 C12       -29.7370   30.9620   10.7990 C.2       1 4HI3        0.0000 
     24 C14       -27.4640   31.9280   11.3130 C.3       1 4HI3        0.0000 
     25 C27       -30.9610   27.5840   10.1980 C.ar      1 4HI3        0.0000 
     26 C30       -31.6230   24.9890    9.5120 C.ar      1 4HI3        0.0000 
     27 F1        -31.9340   23.7340    9.1740 F         1 4HI3        0.0000 
     28 C18       -31.2830   27.2760    8.8780 C.ar      1 4HI3        0.0000 
     29 C9        -26.1970   28.0060    9.9520 C.3       1 4HI3        0.0000 
     30 O4        -25.4300   28.9930    9.2970 O.3       1 4HI3        0.0000 
     31 C11       -25.9300   26.1860   11.6920 C.3       1 4HI3        0.0000 
     32 O3        -25.8550   25.2100   10.6710 O.3       1 4HI3        0.0000 
     33 C35       -25.1270   25.7570   12.9150 C.3       1 4HI3        0.0000 
     34 C36       -25.8190   24.6610   13.6780 C.2       1 4HI3        0.0000 
     35 O6        -25.3700   23.5040   13.5470 O.co2     1 4HI3        0.0000 
     36 O7        -26.8120   24.9320   14.4140 O.co2     1 4HI3        0.0000 
     37 H         -33.2554   33.0885   14.0648 H         1 4HI3        0.0000 
     38 H         -34.6966   32.4872   13.2274 H         1 4HI3        0.0000 
     39 H         -29.3393   32.9538   11.3861 H         1 4HI3        0.0000 
     40 H         -27.8853   30.0796    9.0207 H         1 4HI3        0.0000 
     41 H         -28.7242   28.5485    8.7175 H         1 4HI3        0.0000 
     42 H         -28.0939   27.7357   10.9514 H         1 4HI3        0.0000 
     43 H         -27.3004   29.2804   11.3042 H         1 4HI3        0.0000 
     44 H         -25.3580   28.2442   11.9197 H         1 4HI3        0.0000 
     45 H         -24.3403   27.3226   10.7996 H         1 4HI3        0.0000 
     46 H         -31.8407   25.7371    7.5618 H         1 4HI3        0.0000 
     47 H         -34.1193   35.3014   14.2959 H         1 4HI3        0.0000 
     48 H         -34.4656   37.4921   13.3324 H         1 4HI3        0.0000 
     49 H         -30.7881   26.8411   12.1552 H         1 4HI3        0.0000 
     50 H         -31.3259   24.5605   11.5483 H         1 4HI3        0.0000 
     51 H         -33.7748   33.6644   10.4505 H         1 4HI3        0.0000 
     52 H         -33.4439   31.4985   11.5454 H         1 4HI3        0.0000 
     53 H         -34.1004   35.8616    9.4873 H         1 4HI3        0.0000 
     54 H         -34.4461   37.7777   10.9283 H         1 4HI3        0.0000 
     55 H         -31.2777   28.0136    8.1635 H         1 4HI3        0.0000 
     56 H         -26.4094   27.1673    9.3124 H         1 4HI3        0.0000 
     57 H         -26.9473   26.3669   11.9942 H         1 4HI3        0.0000 
     58 H         -24.9825   26.6257   13.5665 H         1 4HI3        0.0000 
     59 H         -24.1400   25.4124   12.5877 H         1 4HI3        0.0000 
     60 H         -28.2533   33.5422    9.2683 H         1 4HI3        0.0000 
     61 H         -28.4719   32.0609    8.6817 H         1 4HI3        0.0000 
     62 H         -29.7421   32.9881    9.0181 H         1 4HI3        0.0000 
     63 H         -26.9487   31.2767   10.7560 H         1 4HI3        0.0000 
     64 H         -26.9271   32.7708   11.3504 H         1 4HI3        0.0000 
     65 H         -27.4952   31.5589   12.2419 H         1 4HI3        0.0000 
     66 H         -26.0820   29.4890    8.7235 H         1 4HI3        0.0000 
     67 H         -24.8879   24.9602   10.6225 H         1 4HI3        0.0000 
@<TRIPOS>BOND
     1    4    1 1    
     2    6    1 1    
     3   23    1 1    
     4    4    2 2    
     5   22    2 1    
     6   18    3 1    
     7   19    3 1    
     8   37    3 1    
     9   38    3 1    
    10   25    4 1    
    11    9    5 1    
    12   23    5 1    
    13   24    5 1    
    14   39    5 1    
    15    7    6 1    
    16   40    6 1    
    17   41    6 1    
    18   29    7 1    
    19   42    7 1    
    20   43    7 1    
    21   29    8 1    
    22   31    8 1    
    23   44    8 1    
    24   45    8 1    
    25   60    9 1    
    26   61    9 1    
    27   62    9 1    
    28   26   10 ar   
    29   28   10 ar   
    30   46   10 1    
    31   12   11 ar   
    32   19   11 ar   
    33   47   11 1    
    34   21   12 ar   
    35   48   12 1    
    36   14   13 ar   
    37   25   13 ar   
    38   49   13 1    
    39   26   14 ar   
    40   50   14 1    
    41   19   15 ar   
    42   20   15 ar   
    43   51   15 1    
    44   17   16 2    
    45   18   17 am   
    46   22   17 1    
    47   52   18 1    
    48   21   20 ar   
    49   53   20 1    
    50   54   21 1    
    51   23   22 2    
    52   63   24 1    
    53   64   24 1    
    54   65   24 1    
    55   28   25 ar   
    56   27   26 1    
    57   55   28 1    
    58   30   29 1    
    59   56   29 1    
    60   66   30 1    
    61   32   31 1    
    62   33   31 1    
    63   57   31 1    
    64   67   32 1    
    65   34   33 1    
    66   58   33 1    
    67   59   33 1    
    68   35   34 ar   
    69   36   34 ar   
@<TRIPOS>SUBSTRUCTURE
     1 4HI3        1 GROUP   
@<TRIPOS>SET

