#    Name: 2xnn_430_1_INTS_M
#    Modification time : Tue Mar 25 06:24:34 2014

@<TRIPOS>MOLECULE
2xnn_430_1_INTS_M
   48     0     9     0     0
SMALL
NO_CHARGES


@<TRIPOS>ATOM
      1 CA         26.1555    9.0410  -13.7770 C.3       3 GLC5        0.0000 
      2 CA         26.0150   11.0440  -14.4250 C.3       9 GLL5        0.0000 
      3 CA         26.2960    7.0380  -13.1290 C.3       6 GLP5        0.0000 
      4 N          24.6660    5.1505  -21.2810 N.am      2 SEC2        0.0000 
      5 N          25.2160    5.9600  -20.3000 N.am      8 SEL2        0.0000 
      6 N          24.1160    4.3410  -22.2620 N.am      5 SEP2        0.0000 
      7 CA         23.9755    6.5470  -21.5575 C.3       3 GLC5        0.0000 
      8 CA         25.7280    7.2250  -20.5970 C.3       9 GLL5        0.0000 
      9 CA         22.2230    5.8690  -22.5180 C.3       6 GLP5        0.0000 
     10 CA         24.7790    6.3925  -22.5150 C.3       3 GLC5        0.0000 
     11 CA         26.3160    7.8010  -21.8040 C.3       9 GLL5        0.0000 
     12 CA         23.2420    4.9840  -23.2260 C.3       6 GLP5        0.0000 
     13 O          21.3450    8.3905  -12.0960 O.2       1 ALC1        0.0000 
     14 O          22.2150    7.3320  -12.8470 O.2       7 ALL1        0.0000 
     15 O          20.4750    9.4490  -11.3450 O.2       4 ALP1        0.0000 
     16 O          21.1160    7.1420  -11.6170 O.2       1 ALC1        0.0000 
     17 O          20.0170    6.9520  -10.3870 O.2       4 ALP1        0.0000 
     18 N          19.9390    8.7995  -13.3240 N.am      2 SEC2        0.0000 
     19 N          21.4750    9.2050  -13.9240 N.am      8 SEL2        0.0000 
     20 N          18.4030    8.3940  -12.7240 N.am      5 SEP2        0.0000 
     21 CA         22.1855   14.7285  -17.2180 C.3       3 GLC5        0.0000 
     22 CA         23.8770   13.3040  -16.8750 C.3       9 GLL5        0.0000 
     23 CA         20.4940   16.1530  -17.5610 C.3       6 GLP5        0.0000 
     24 CA         28.4610    8.9890  -16.3195 C.3       3 GLC5        0.0000 
     25 CA         28.0890   10.4290  -16.9470 C.3       9 GLL5        0.0000 
     26 CA         28.8330    7.5490  -15.6920 C.3       6 GLP5        0.0000 
     27 CA         26.9675    7.8768  -16.2428 C.3       3 GLC5        0.0000 
     28 CA         25.4920    8.7220  -16.4120 C.3       9 GLL5        0.0000 
     29 CA         25.3604    9.9642  -22.5740 C.3       3 GLC5        0.0000 
     30 CA         26.6360    9.9690  -20.7120 C.3       9 GLL5        0.0000 
     31 CA         24.1320   10.6950  -23.8820 C.3       6 GLP5        0.0000 
     32 CA         28.3416    9.8210  -20.0188 C.3       3 GLC5        0.0000 
     33 CA         26.7670    9.1950  -21.8360 C.3       9 GLL5        0.0000 
     34 CA         30.3150   10.1620  -19.6600 C.3       6 GLP5        0.0000 
     35 CA         23.6725    5.9910  -14.6333 C.3       3 GLC5        0.0000 
     36 CA         23.3110    7.3580  -16.3200 C.3       9 GLL5        0.0000 
     37 CA         24.0180    4.1770  -13.6120 C.3       6 GLP5        0.0000 
     38 CA         23.3347   13.5617  -19.0277 C.3       3 GLC5        0.0000 
     39 CA         22.3390   13.6740  -20.6710 C.3       6 GLP5        0.0000 
     40 CA         29.1560   10.2127  -15.3935 C.3       3 GLC5        0.0000 
     41 CA         28.5840   11.9530  -15.4520 C.3       9 GLL5        0.0000 
     42 CA         29.9880    8.5750  -14.7300 C.3       6 GLP5        0.0000 
     43 CA         29.2860   10.7089  -18.3433 C.3       3 GLC5        0.0000 
     44 CA         30.3783   12.2274  -16.2390 C.3       3 GLC5        0.0000 
     45 CA         28.7860   12.4170  -17.5500 C.3       9 GLL5        0.0000 
     46 CA         32.2520   12.4370  -16.1990 C.3       6 GLP5        0.0000 
     47 CA         25.2022    7.5453  -14.5887 C.3       3 GLC5        0.0000 
     48 CA         24.7120    7.6870  -17.1750 C.3       9 GLL5        0.0000 
@<TRIPOS>BOND
@<TRIPOS>SUBSTRUCTURE
     1 ALC1       13 GROUP        1 X    ALC  0     ROOT ALC X 1
     2 SEC2        4 GROUP        1 X    SEC  0     **** SEC X 2
     3 GLC5        1 GROUP        1 X    GLC  0     **** GLC X 6
     4 ALP1       15 GROUP        1 Y    ALP  0     ROOT ALP Y 8
     5 SEP2        6 GROUP        1 Y    SEP  0     **** SEP Y 9
     6 GLP5        3 GROUP        1 Y    GLP  0     **** GLP Y 13
     7 ALL1       14 GROUP        1 Z    ALL  0     ROOT ALL Z 15
     8 SEL2        5 GROUP        1 Z    SEL  0     **** SEL Z 16
     9 GLL5        2 GROUP        1 Z    GLL  0     **** GLL Z 20
@<TRIPOS>SET

