#    Name: 2xnn_430_1_ligand
#    Modification time : Tue Mar 25 06:24:35 2014

@<TRIPOS>MOLECULE
2xnn_430_1_ligand
   46    49     1     0     0
SMALL
NO_CHARGES


@<TRIPOS>ATOM
      1 C01        26.5820   11.8200  -13.2530 C.3       1 4301280     0.0000 
      2 C02        26.0150   11.0440  -14.4250 C.3       1 4301280     0.0000 
      3 O03        25.0730   10.0350  -14.0540 O.3       1 4301280     0.0000 
      4 C04        24.6430    9.1050  -15.0070 C.2       1 4301280     0.0000 
      5 C05        25.4920    8.7220  -16.4120 C.2       1 4301280     0.0000 
      6 C06        24.7120    7.6870  -17.1750 C.2       1 4301280     0.0000 
      7 N07        25.0620    7.2130  -18.4210 N.pl3     1 4301280     0.0000 
      8 C08        24.7700    5.9620  -18.9550 C.2       1 4301280     0.0000 
      9 N09        25.2160    5.9600  -20.3000 N.2       1 4301280     0.0000 
     10 C10        25.7280    7.2250  -20.5970 C.ar      1 4301280     0.0000 
     11 C11        26.3160    7.8010  -21.8040 C.ar      1 4301280     0.0000 
     12 C12        26.7670    9.1950  -21.8360 C.ar      1 4301280     0.0000 
     13 C13        26.6360    9.9690  -20.7120 C.ar      1 4301280     0.0000 
     14 C14        26.0350    9.3780  -19.4810 C.ar      1 4301280     0.0000 
     15 C15        25.5900    8.0200  -19.4540 C.ar      1 4301280     0.0000 
     16 S16        23.3110    7.3580  -16.3200 S.3       1 4301280     0.0000 
     17 C17        23.3430    8.2520  -14.9890 C.2       1 4301280     0.0000 
     18 C18        22.2600    8.2880  -13.9290 C.2       1 4301280     0.0000 
     19 N19        22.2150    7.3320  -12.8470 N.am      1 4301280     0.0000 
     20 O20        21.4750    9.2050  -13.9240 O.2       1 4301280     0.0000 
     21 C21        25.6160   11.9190  -15.5990 C.ar      1 4301280     0.0000 
     22 C22        24.2970   12.4350  -15.6870 C.ar      1 4301280     0.0000 
     23 C23        23.8770   13.3040  -16.8750 C.ar      1 4301280     0.0000 
     24 C24        24.7840   13.5950  -17.8940 C.ar      1 4301280     0.0000 
     25 C25        26.2310   13.0280  -17.7980 C.ar      1 4301280     0.0000 
     26 C26        26.6200   12.2410  -16.7200 C.ar      1 4301280     0.0000 
     27 C27        28.0640   11.7480  -16.6620 C.3       1 4301280     0.0000 
     28 F28        28.7860   12.4170  -17.5500 F         1 4301280     0.0000 
     29 F29        28.0890   10.4290  -16.9470 F         1 4301280     0.0000 
     30 F30        28.5840   11.9530  -15.4520 F         1 4301280     0.0000 
     31 H          26.9570   10.4611  -14.8329 H         1 4301280     0.0000 
     32 H          26.2547    9.1155  -16.5820 H         1 4301280     0.0000 
     33 H          24.3552    5.2431  -18.5182 H         1 4301280     0.0000 
     34 H          26.4144    7.2290  -22.6335 H         1 4301280     0.0000 
     35 H          27.1663    9.5439  -22.7016 H         1 4301280     0.0000 
     36 H          26.9274   10.9369  -20.6630 H         1 4301280     0.0000 
     37 H          25.9525    9.9717  -18.6634 H         1 4301280     0.0000 
     38 H          22.9566    6.6616  -12.8210 H         1 4301280     0.0000 
     39 H          21.4460    7.4200  -12.2138 H         1 4301280     0.0000 
     40 H          23.5966   12.2555  -14.9873 H         1 4301280     0.0000 
     41 H          22.9253   13.6402  -16.8667 H         1 4301280     0.0000 
     42 H          24.5814   14.1467  -18.6960 H         1 4301280     0.0000 
     43 H          26.8411   13.2754  -18.5641 H         1 4301280     0.0000 
     44 H          27.0642   11.2237  -12.6112 H         1 4301280     0.0000 
     45 H          27.2332   12.5183  -13.5501 H         1 4301280     0.0000 
     46 H          25.8654   12.2884  -12.7362 H         1 4301280     0.0000 
@<TRIPOS>BOND
     1    2    1 1    
     2   44    1 1    
     3   45    1 1    
     4   46    1 1    
     5    3    2 1    
     6   21    2 1    
     7   31    2 1    
     8    4    3 1    
     9    5    4 1    
    10   17    4 2    
    11    6    5 2    
    12   32    5 1    
    13    7    6 1    
    14   16    6 1    
    15    8    7 1    
    16   15    7 1    
    17    9    8 2    
    18   33    8 1    
    19   10    9 1    
    20   11   10 ar   
    21   15   10 ar   
    22   12   11 ar   
    23   34   11 1    
    24   13   12 ar   
    25   35   12 1    
    26   14   13 ar   
    27   36   13 1    
    28   15   14 ar   
    29   37   14 1    
    30   17   16 1    
    31   18   17 1    
    32   19   18 am   
    33   20   18 2    
    34   38   19 1    
    35   39   19 1    
    36   22   21 ar   
    37   26   21 ar   
    38   23   22 ar   
    39   40   22 1    
    40   24   23 ar   
    41   41   23 1    
    42   25   24 ar   
    43   42   24 1    
    44   26   25 ar   
    45   43   25 1    
    46   27   26 1    
    47   28   27 1    
    48   29   27 1    
    49   30   27 1    
@<TRIPOS>SUBSTRUCTURE
     1 4301280     1 GROUP   
@<TRIPOS>SET

