#    Name: 3rm0_S54_2_INTS_M
#    Modification time : Tue Mar 25 11:40:42 2014

@<TRIPOS>MOLECULE
3rm0_S54_2_INTS_M
   78     0     9     0     0
SMALL
NO_CHARGES


@<TRIPOS>ATOM
      1 CA          9.8400  -17.5205   20.1705 C.3       3 GLC5        0.0000 
      2 CA         11.4240  -16.3240   19.4130 C.3       9 GLL5        0.0000 
      3 CA          8.2560  -18.7170   20.9280 C.3       6 GLP5        0.0000 
      4 CA          9.7835  -15.0360   19.3390 C.3       3 GLC5        0.0000 
      5 CA          8.1430  -13.7480   19.2650 C.3       6 GLP5        0.0000 
      6 N          13.2145  -17.3520   23.4760 N.am      2 SEC2        0.0000 
      7 N          14.3730  -17.5390   22.5570 N.am      8 SEL2        0.0000 
      8 N          12.0560  -17.1650   24.3950 N.am      5 SEP2        0.0000 
      9 CA         18.7555  -15.3755   27.0535 C.3       3 GLC5        0.0000 
     10 CA         18.0690  -15.0730   25.2210 C.3       9 GLL5        0.0000 
     11 CA         19.4420  -15.6780   28.8860 C.3       6 GLP5        0.0000 
     12 CA         17.6395  -13.7590   26.3370 C.3       3 GLC5        0.0000 
     13 CA         17.2100  -12.4450   27.4530 C.3       6 GLP5        0.0000 
     14 CA         16.6130  -15.9330   26.6445 C.3       3 GLC5        0.0000 
     15 CA         15.1570  -16.7930   28.0680 C.3       6 GLP5        0.0000 
     16 N          15.7365  -12.7860   23.7865 N.am      2 SEC2        0.0000 
     17 N          16.6950  -13.4650   22.7320 N.am      8 SEL2        0.0000 
     18 N          14.7780  -12.1070   24.8410 N.am      5 SEP2        0.0000 
     19 CA         18.0010  -11.6370   22.7530 C.3       3 GLC5        0.0000 
     20 CA         18.4580  -12.4320   20.9430 C.3       9 GLL5        0.0000 
     21 CA         17.5440  -10.8420   24.5630 C.3       6 GLP5        0.0000 
     22 CA         19.4435  -10.7200   18.9515 C.3       3 GLC5        0.0000 
     23 CA         19.5990  -12.3500   19.9360 C.3       9 GLL5        0.0000 
     24 CA         19.2880   -9.0900   17.9670 C.3       6 GLP5        0.0000 
     25 O          16.8810  -10.0110   21.2115 O.2       1 ALC1        0.0000 
     26 O          16.4830  -11.1570   20.3300 O.2       7 ALL1        0.0000 
     27 O          17.2790   -8.8650   22.0930 O.2       4 ALP1        0.0000 
     28 CA         15.2850   -9.1890   18.3935 C.3       3 GLC5        0.0000 
     29 CA         15.2040  -10.9110   19.6820 C.3       9 GLL5        0.0000 
     30 CA         15.3660   -7.4670   17.1050 C.3       6 GLP5        0.0000 
     31 CA         11.0095   -8.6205   22.2955 C.3       3 GLC5        0.0000 
     32 CA         12.8840   -9.8350   22.4760 C.3       9 GLL5        0.0000 
     33 CA          9.1350   -7.4060   22.1150 C.3       6 GLP5        0.0000 
     34 CA         10.1120   -9.2085   22.9410 C.3       3 GLC5        0.0000 
     35 CA         11.0890  -11.0110   23.7670 C.3       9 GLL5        0.0000 
     36 CA         11.1210  -10.0765   25.7715 C.3       3 GLC5        0.0000 
     37 CA         11.1530   -9.1420   27.7760 C.3       6 GLP5        0.0000 
     38 O           9.2640  -11.9910   24.8010 O.2       1 ALC1        0.0000 
     39 O          10.4810  -12.0870   24.0670 O.2       7 ALL1        0.0000 
     40 O           8.0470  -11.8950   25.5350 O.2       4 ALP1        0.0000 
     41 O          10.5715  -13.5090   23.8715 O.2       1 ALC1        0.0000 
     42 O          10.6620  -14.9310   23.6760 O.2       4 ALP1        0.0000 
     43 O           9.4950   -9.8040   25.0120 O.2       1 ALC1        0.0000 
     44 O          10.7890   -9.8890   24.4080 O.2       7 ALL1        0.0000 
     45 O           8.2010   -9.7190   25.6160 O.2       4 ALP1        0.0000 
     46 CA         10.7055  -13.1915   21.5055 C.3       3 GLC5        0.0000 
     47 CA         12.4160  -12.1210   21.9580 C.3       9 GLL5        0.0000 
     48 CA          8.9950  -14.2620   21.0530 C.3       6 GLP5        0.0000 
     49 CA         12.4550  -12.0825   18.9910 C.3       3 GLC5        0.0000 
     50 CA         13.4020  -12.0840   20.9770 C.3       9 GLL5        0.0000 
     51 CA         11.5080  -12.0810   17.0050 C.3       6 GLP5        0.0000 
     52 CA         11.3355  -16.7240   21.7972 C.3       3 GLC5        0.0000 
     53 CA         12.3400  -15.9120   20.3760 C.3       9 GLL5        0.0000 
     54 CA         10.7890  -17.3300   23.7000 C.3       6 GLP5        0.0000 
     55 CA         10.4385  -15.1900   20.4738 C.3       3 GLC5        0.0000 
     56 CA         11.6047  -15.0128   17.6120 C.3       3 GLC5        0.0000 
     57 CA         11.5650  -13.5080   16.4410 C.3       6 GLP5        0.0000 
     58 CA         12.6225  -14.9995   17.3910 C.3       3 GLC5        0.0000 
     59 CA         13.2230  -16.6930   17.8580 C.3       9 GLL5        0.0000 
     60 CA         21.9155  -14.2462   20.1587 C.3       3 GLC5        0.0000 
     61 CA         20.4700  -13.5610   20.2010 C.3       9 GLL5        0.0000 
     62 CA         23.7910  -14.4260   19.7450 C.3       6 GLP5        0.0000 
     63 CA         20.3061  -11.5155   21.5371 C.3       3 GLC5        0.0000 
     64 CA         20.8630  -10.0550   22.7540 C.3       6 GLP5        0.0000 
     65 CA         19.3151  -14.7624   19.1041 C.3       3 GLC5        0.0000 
     66 CA         18.8080  -15.7610   17.7020 C.3       6 GLP5        0.0000 
     67 CA         15.0898  -10.3223   22.6248 C.3       3 GLC5        0.0000 
     68 CA         14.1300  -10.9250   20.7470 C.3       9 GLL5        0.0000 
     69 CA         16.1800  -10.2850   24.1260 C.3       6 GLP5        0.0000 
     70 CA         13.0102   -8.0733   21.5950 C.3       3 GLC5        0.0000 
     71 CA         13.8690   -9.7940   21.5000 C.3       9 GLL5        0.0000 
     72 CA         12.6440   -6.3320   21.2020 C.3       6 GLP5        0.0000 
     73 CA         14.3480  -10.3480   23.3588 C.3       3 GLC5        0.0000 
     74 CA         10.5786  -11.3485   21.2148 C.3       3 GLC5        0.0000 
     75 CA         12.1480  -10.9870   22.7070 C.3       9 GLL5        0.0000 
     76 CA          9.1400  -11.1370   19.8320 C.3       6 GLP5        0.0000 
     77 CA         12.9471  -12.0965   24.1068 C.3       3 GLC5        0.0000 
     78 CA         13.7850  -12.7770   25.6450 C.3       6 GLP5        0.0000 
@<TRIPOS>BOND
@<TRIPOS>SUBSTRUCTURE
     1 ALC1       25 GROUP        1 X    ALC  0     ROOT ALC X 1
     2 SEC2        6 GROUP        1 X    SEC  0     **** SEC X 2
     3 GLC5        1 GROUP        1 X    GLC  0     **** GLC X 6
     4 ALP1       27 GROUP        1 Y    ALP  0     ROOT ALP Y 8
     5 SEP2        8 GROUP        1 Y    SEP  0     **** SEP Y 9
     6 GLP5        3 GROUP        1 Y    GLP  0     **** GLP Y 13
     7 ALL1       26 GROUP        1 Z    ALL  0     ROOT ALL Z 15
     8 SEL2        7 GROUP        1 Z    SEL  0     **** SEL Z 16
     9 GLL5        2 GROUP        1 Z    GLL  0     **** GLL Z 20
@<TRIPOS>SET

