#    Name: 3rm0_S54_2_ligand
#    Modification time : Tue Mar 25 11:40:42 2014

@<TRIPOS>MOLECULE
3rm0_S54_2_ligand
   69    71     1     0     0
SMALL
NO_CHARGES


@<TRIPOS>ATOM
      1 C7         14.6960  -15.4590   21.1440 C.3       1 S542        0.0000 
      2 S8         15.4070  -16.7610   21.9410 S.o2      1 S542        0.0000 
      3 C4         13.7000  -15.8980   20.0870 C.ar      1 S542        0.0000 
      4 C5         12.3400  -15.9120   20.3760 C.ar      1 S542        0.0000 
      5 C6         11.4240  -16.3240   19.4130 C.ar      1 S542        0.0000 
      6 C1         11.8650  -16.7110   18.1530 C.ar      1 S542        0.0000 
      7 C2         13.2230  -16.6930   17.8580 C.ar      1 S542        0.0000 
      8 C3         14.1370  -16.2890   18.8240 C.ar      1 S542        0.0000 
      9 O22        14.3730  -17.5390   22.5570 O.2       1 S542        0.0000 
     10 O23        16.2150  -17.5320   21.0310 O.2       1 S542        0.0000 
     11 N9         16.3520  -16.1830   23.1130 N.pl3     1 S542        0.0000 
     12 C10        17.6790  -15.6510   22.8190 C.3       1 S542        0.0000 
     13 C18        18.6010  -15.8290   24.0190 C.3       1 S542        0.0000 
     14 C19        18.7800  -17.3070   24.3780 C.3       1 S542        0.0000 
     15 C20        18.0690  -15.0730   25.2210 C.3       1 S542        0.0000 
     16 C11        17.5920  -14.2140   22.3500 C.2       1 S542        0.0000 
     17 O17        16.6950  -13.4650   22.7320 O.2       1 S542        0.0000 
     18 N12        18.5190  -13.7870   21.4940 N.am      1 S542        0.0000 
     19 C13        18.4580  -12.4320   20.9430 C.3       1 S542        0.0000 
     20 C24        17.1460  -12.3010   20.2170 C.2       1 S542        0.0000 
     21 O33        16.7080  -13.2430   19.5570 O.2       1 S542        0.0000 
     22 C14        19.5990  -12.3500   19.9360 C.3       1 S542        0.0000 
     23 C15        20.4700  -13.5610   20.2010 C.3       1 S542        0.0000 
     24 C16        19.6100  -14.5720   20.9440 C.3       1 S542        0.0000 
     25 N25        16.4830  -11.1570   20.3300 N.am      1 S542        0.0000 
     26 C26        15.2040  -10.9110   19.6820 C.3       1 S542        0.0000 
     27 C27        14.1300  -10.9250   20.7470 C.ar      1 S542        0.0000 
     28 C32        13.8690   -9.7940   21.5000 C.ar      1 S542        0.0000 
     29 C31        12.8840   -9.8350   22.4760 C.ar      1 S542        0.0000 
     30 C30        12.1480  -10.9870   22.7070 C.ar      1 S542        0.0000 
     31 C34        11.0890  -11.0110   23.7670 C.2       1 S542        0.0000 
     32 N35        10.4810  -12.0870   24.0670 N.pl3     1 S542        0.0000 
     33 N36        10.7890   -9.8890   24.4080 N.pl3     1 S542        0.0000 
     34 C29        12.4160  -12.1210   21.9580 C.ar      1 S542        0.0000 
     35 C28        13.4020  -12.0840   20.9770 C.ar      1 S542        0.0000 
     36 H          15.5203  -14.9042   20.7141 H         1 S542        0.0000 
     37 H          14.2242  -14.8725   21.9221 H         1 S542        0.0000 
     38 H          12.0093  -15.6167   21.3052 H         1 S542        0.0000 
     39 H          10.4196  -16.3419   19.6345 H         1 S542        0.0000 
     40 H          11.1875  -17.0102   17.4401 H         1 S542        0.0000 
     41 H          13.5511  -16.9781   16.9265 H         1 S542        0.0000 
     42 H          15.1442  -16.2784   18.6054 H         1 S542        0.0000 
     43 H          15.9675  -16.2179   24.0254 H         1 S542        0.0000 
     44 H          18.1139  -16.2430   21.9880 H         1 S542        0.0000 
     45 H          19.5789  -15.4231   23.7672 H         1 S542        0.0000 
     46 H          18.5659  -11.7084   21.6748 H         1 S542        0.0000 
     47 H          20.1596  -11.4539   20.1014 H         1 S542        0.0000 
     48 H          19.2044  -12.3945   18.9425 H         1 S542        0.0000 
     49 H          21.3070  -13.2806   20.8143 H         1 S542        0.0000 
     50 H          20.7991  -13.9840   19.2693 H         1 S542        0.0000 
     51 H          19.2559  -15.3040   20.2443 H         1 S542        0.0000 
     52 H          20.1999  -15.0243   21.7176 H         1 S542        0.0000 
     53 H          16.8556  -10.3576   20.9035 H         1 S542        0.0000 
     54 H          14.9809  -11.6843   18.9511 H         1 S542        0.0000 
     55 H          15.1951   -9.9416   19.1900 H         1 S542        0.0000 
     56 H          14.3995   -8.9299   21.3389 H         1 S542        0.0000 
     57 H          12.6947   -8.9868   23.0440 H         1 S542        0.0000 
     58 H           9.8198  -12.0250   24.8147 H         1 S542        0.0000 
     59 H          10.7214  -12.8935   23.5269 H         1 S542        0.0000 
     60 H          10.0723   -9.9569   25.1021 H         1 S542        0.0000 
     61 H          11.3066   -9.0767   24.1391 H         1 S542        0.0000 
     62 H          11.8900  -12.9878   22.1241 H         1 S542        0.0000 
     63 H          13.5932  -12.9297   20.4143 H         1 S542        0.0000 
     64 H          19.1740  -17.8280   23.6208 H         1 S542        0.0000 
     65 H          19.3867  -17.4275   25.1637 H         1 S542        0.0000 
     66 H          17.9095  -17.7407   24.6106 H         1 S542        0.0000 
     67 H          18.6608  -15.1816   26.0197 H         1 S542        0.0000 
     68 H          17.9971  -14.0920   25.0407 H         1 S542        0.0000 
     69 H          17.1582  -15.3899   25.4857 H         1 S542        0.0000 
@<TRIPOS>BOND
     1    2    1 1    
     2    3    1 1    
     3   36    1 1    
     4   37    1 1    
     5    9    2 2    
     6   10    2 2    
     7   11    2 1    
     8    4    3 ar   
     9    8    3 ar   
    10    5    4 ar   
    11   38    4 1    
    12    6    5 ar   
    13   39    5 1    
    14    7    6 ar   
    15   40    6 1    
    16    8    7 ar   
    17   41    7 1    
    18   42    8 1    
    19   12   11 1    
    20   43   11 1    
    21   13   12 1    
    22   16   12 1    
    23   44   12 1    
    24   14   13 1    
    25   15   13 1    
    26   45   13 1    
    27   64   14 1    
    28   65   14 1    
    29   66   14 1    
    30   67   15 1    
    31   68   15 1    
    32   69   15 1    
    33   17   16 2    
    34   18   16 am   
    35   19   18 1    
    36   24   18 1    
    37   20   19 1    
    38   22   19 1    
    39   46   19 1    
    40   21   20 2    
    41   25   20 am   
    42   23   22 1    
    43   47   22 1    
    44   48   22 1    
    45   24   23 1    
    46   49   23 1    
    47   50   23 1    
    48   51   24 1    
    49   52   24 1    
    50   26   25 1    
    51   53   25 1    
    52   27   26 1    
    53   54   26 1    
    54   55   26 1    
    55   28   27 ar   
    56   35   27 ar   
    57   29   28 ar   
    58   56   28 1    
    59   30   29 ar   
    60   57   29 1    
    61   31   30 1    
    62   34   30 ar   
    63   32   31 2    
    64   33   31 1    
    65   58   32 1    
    66   59   32 1    
    67   60   33 1    
    68   61   33 1    
    69   35   34 ar   
    70   62   34 1    
    71   63   35 1    
@<TRIPOS>SUBSTRUCTURE
     1 S542        1 GROUP   
@<TRIPOS>SET

