#    Name: 1dtp_APU_1_INTS_M
#    Modification time : Mon Mar 24 22:26:49 2014

@<TRIPOS>MOLECULE
1dtp_APU_1_INTS_M
   50     0    12     0     0
SMALL
NO_CHARGES


@<TRIPOS>ATOM
      1 NZ          0.6680    5.1590   42.6190 N.4       3 LYC4        0.0000 
      2 NZ         -0.9110    5.0410   43.5430 N.4      11 LYL4        0.0000 
      3 NZ          2.2470    5.2770   41.6950 N.4       7 LYP4        0.0000 
      4 CA         -2.6915    4.2420   51.6170 C.3       4 GLC5        0.0000 
      5 CA         -1.6870    4.7760   49.6900 C.3      12 GLL5        0.0000 
      6 CA         -3.6960    3.7080   53.5440 C.3       8 GLP5        0.0000 
      7 CA         -4.0970    5.3020   49.0540 C.3       4 GLC5        0.0000 
      8 CA         -2.0560    4.9630   48.2000 C.3      12 GLL5        0.0000 
      9 CA         -6.1380    5.6410   49.9080 C.3       8 GLP5        0.0000 
     10 CA          1.2115    7.4650   48.4965 C.3       4 GLC5        0.0000 
     11 CA         -0.7450    6.8780   47.7490 C.3      12 GLL5        0.0000 
     12 CA          3.1680    8.0520   49.2440 C.3       8 GLP5        0.0000 
     13 N           1.1785    7.3970   47.8975 N.am      2 SEC2        0.0000 
     14 N           0.1090    7.6210   46.8060 N.am     10 SEL2        0.0000 
     15 N           2.2480    7.1730   48.9890 N.am      6 SEP2        0.0000 
     16 O          -3.0715   12.5020   52.8805 O.2       1 ALC1        0.0000 
     17 O          -3.2190   12.0120   51.5150 O.2       9 ALL1        0.0000 
     18 O          -2.9240   12.9920   54.2460 O.2       5 ALP1        0.0000 
     19 CA         -1.0340    9.8335   51.4085 C.3       4 GLC5        0.0000 
     20 CA         -2.6300    8.6130   52.2340 C.3      12 GLL5        0.0000 
     21 CA          0.5620   11.0540   50.5830 C.3       8 GLP5        0.0000 
     22 CA         -1.4270    9.2310   53.7375 C.3       4 GLC5        0.0000 
     23 CA         -0.2240    9.8490   55.2410 C.3       8 GLP5        0.0000 
     24 CA         -1.0410    9.9410   50.2990 C.3       4 GLC5        0.0000 
     25 CA         -2.6440    8.8280   50.0150 C.3      12 GLL5        0.0000 
     26 N           6.1145    6.8260   48.4310 N.am      2 SEC2        0.0000 
     27 N           6.2940    5.4190   48.9070 N.am     10 SEL2        0.0000 
     28 N           5.9350    8.2330   47.9550 N.am      6 SEP2        0.0000 
     29 CA          5.0745    6.9425   47.1145 C.3       4 GLC5        0.0000 
     30 CA          4.2870    5.1780   47.6690 C.3      12 GLL5        0.0000 
     31 CA          5.8620    8.7070   46.5600 C.3       8 GLP5        0.0000 
     32 CA          4.1015    1.8350   45.9990 C.3       4 GLC5        0.0000 
     33 CA          2.6650    1.9030   47.0420 C.3      12 GLL5        0.0000 
     34 CA          5.5380    1.7670   44.9560 C.3       8 GLP5        0.0000 
     35 O           0.5860   -0.3150   48.9340 O.2       1 ALC1        0.0000 
     36 O           1.5760    0.8790   48.7690 O.2       9 ALL1        0.0000 
     37 O          -0.4040   -1.5090   49.0990 O.2       5 ALP1        0.0000 
     38 CA          3.4275    1.6430   45.1175 C.3       4 GLC5        0.0000 
     39 CA          1.3170    1.5190   45.2790 C.3      12 GLL5        0.0000 
     40 N          -3.5190   -1.1095   46.3815 N.am      2 SEC2        0.0000 
     41 N          -1.9420   -0.8830   46.8720 N.am     10 SEL2        0.0000 
     42 N          -5.0960   -1.3360   45.8910 N.am      6 SEP2        0.0000 
     43 CA         -1.6670   11.3350   50.9477 C.3       4 GLC5        0.0000 
     44 CA         -3.1020   10.1370   50.1060 C.3      12 GLL5        0.0000 
     45 CA         -0.2180   12.2490   51.1510 C.3       8 GLP5        0.0000 
     46 CA          3.4920    6.3880   48.3745 C.3       4 GLC5        0.0000 
     47 CA          4.5705    3.9120   46.0680 C.3       4 GLC5        0.0000 
     48 CA          5.3250    3.1000   44.6310 C.3       8 GLP5        0.0000 
     49 CA          2.8327    1.5673   49.3723 C.3       4 GLC5        0.0000 
     50 CA          3.6610    1.2990   51.3810 C.3       8 GLP5        0.0000 
@<TRIPOS>BOND
@<TRIPOS>SUBSTRUCTURE
     1 ALC1       16 GROUP        1 X    ALC  0     ROOT ALC X 1
     2 SEC2       13 GROUP        1 X    SEC  0     **** SEC X 2
     3 LYC4        1 GROUP        1 X    LYC  0     **** LYC X 4
     4 GLC5        4 GROUP        1 X    GLC  0     **** GLC X 6
     5 ALP1       18 GROUP        1 Y    ALP  0     ROOT ALP Y 8
     6 SEP2       15 GROUP        1 Y    SEP  0     **** SEP Y 9
     7 LYP4        3 GROUP        1 Y    LYP  0     **** LYP Y 11
     8 GLP5        6 GROUP        1 Y    GLP  0     **** GLP Y 13
     9 ALL1       17 GROUP        1 Z    ALL  0     ROOT ALL Z 15
    10 SEL2       14 GROUP        1 Z    SEL  0     **** SEL Z 16
    11 LYL4        2 GROUP        1 Z    LYL  0     **** LYL Z 18
    12 GLL5        5 GROUP        1 Z    GLL  0     **** GLL Z 20
@<TRIPOS>SET

