#    Name: 1dtp_APU_1_ligand
#    Modification time : Mon Mar 24 22:26:49 2014

@<TRIPOS>MOLECULE
1dtp_APU_1_ligand
   65    69     1     0     0
SMALL
NO_CHARGES


@<TRIPOS>ATOM
      1 PA         -1.0130    4.3850   44.8400 P.3       1 APU200      0.0000 
      2 O1A        -0.9110    5.0410   43.5430 O.co2     1 APU200      0.0000 
      3 O2A        -2.0570    3.3770   45.0750 O.co2     1 APU200      0.0000 
      4 O5B        -0.4830    3.9980   49.9710 O.3       1 APU200      0.0000 
      5 C5B        -1.6870    4.7760   49.6900 C.3       1 APU200      0.0000 
      6 C4B        -2.0560    4.9630   48.2000 C.3       1 APU200      0.0000 
      7 O4B        -2.9400    6.1000   48.2580 O.3       1 APU200      0.0000 
      8 C3B        -0.8960    5.4320   47.3000 C.3       1 APU200      0.0000 
      9 O3B        -1.1490    5.5370   45.9040 O.3       1 APU200      0.0000 
     10 C2B        -0.7450    6.8780   47.7490 C.3       1 APU200      0.0000 
     11 O2B         0.1090    7.6210   46.8060 O.3       1 APU200      0.0000 
     12 C1B        -2.2320    7.2880   47.8710 C.3       1 APU200      0.0000 
     13 N9A        -2.5600    8.5520   48.6350 N.pl3     1 APU200      0.0000 
     14 C8A        -2.9470    9.7460   48.0400 C.2       1 APU200      0.0000 
     15 N7A        -3.3920   10.6850   48.8520 N.2       1 APU200      0.0000 
     16 C5A        -3.1020   10.1370   50.1060 C.ar      1 APU200      0.0000 
     17 C6A        -3.1300   10.7050   51.3830 C.ar      1 APU200      0.0000 
     18 N6A        -3.2190   12.0120   51.5150 N.pl3     1 APU200      0.0000 
     19 N1A        -2.9910    9.8800   52.4320 N.ar      1 APU200      0.0000 
     20 C2A        -2.6300    8.6130   52.2340 C.ar      1 APU200      0.0000 
     21 N3A        -2.3260    8.0350   51.0820 N.ar      1 APU200      0.0000 
     22 C4A        -2.6440    8.8280   50.0150 C.ar      1 APU200      0.0000 
     23 N1U         3.4680    2.9210   47.6510 N.am      1 APU200      0.0000 
     24 C2U         4.6190    2.3960   48.1810 C.2       1 APU200      0.0000 
     25 O2U         4.8100    1.1750   48.3900 O.2       1 APU200      0.0000 
     26 N3U         5.5930    3.3740   48.4530 N.am      1 APU200      0.0000 
     27 C4U         5.4490    4.7330   48.3660 C.2       1 APU200      0.0000 
     28 O4U         6.2940    5.4190   48.9070 O.2       1 APU200      0.0000 
     29 C5U         4.2870    5.1780   47.6690 C.2       1 APU200      0.0000 
     30 C6U         3.3450    4.2700   47.3410 C.2       1 APU200      0.0000 
     31 C1D         2.6650    1.9030   47.0420 C.3       1 APU200      0.0000 
     32 C2D         1.3440    1.7680   47.6850 C.3       1 APU200      0.0000 
     33 O2D         1.5760    0.8790   48.7690 O.3       1 APU200      0.0000 
     34 C3D         0.5630    1.0740   46.5630 C.3       1 APU200      0.0000 
     35 O3D         0.5950   -0.3590   46.7140 O.3       1 APU200      0.0000 
     36 C4D         1.3170    1.5190   45.2790 C.3       1 APU200      0.0000 
     37 O4D         2.5780    2.0890   45.6500 O.3       1 APU200      0.0000 
     38 O5D         0.3390    3.7480   45.0120 O.3       1 APU200      0.0000 
     39 C5D         0.5780    2.5380   44.3640 C.3       1 APU200      0.0000 
     40 PU         -0.6750   -1.2400   46.1880 P.3       1 APU200      0.0000 
     41 O1X        -0.9630   -0.7920   44.7020 O.co2     1 APU200      0.0000 
     42 O2X        -1.9420   -0.8830   46.8720 O.co2     1 APU200      0.0000 
     43 O3X        -0.2550   -2.6630   46.0830 O.co2     1 APU200      0.0000 
     44 H          -1.6050    5.7983   50.1391 H         1 APU200      0.0000 
     45 H          -2.5752    4.3165   50.1934 H         1 APU200      0.0000 
     46 H          -2.5270    4.1327   47.8254 H         1 APU200      0.0000 
     47 H          -0.0160    4.9349   47.5595 H         1 APU200      0.0000 
     48 H          -0.3370    6.8424   48.7452 H         1 APU200      0.0000 
     49 H          -2.5372    7.4828   46.7718 H         1 APU200      0.0000 
     50 H          -2.8779    9.8557   47.0326 H         1 APU200      0.0000 
     51 H          -3.2487   12.3586   52.4526 H         1 APU200      0.0000 
     52 H          -3.2487   12.5390   50.6657 H         1 APU200      0.0000 
     53 H          -2.5797    7.9782   53.1298 H         1 APU200      0.0000 
     54 H           6.5567    2.9970   48.7640 H         1 APU200      0.0000 
     55 H           4.2036    6.1682   47.4400 H         1 APU200      0.0000 
     56 H           2.4771    4.5779   46.8304 H         1 APU200      0.0000 
     57 H           3.1997    0.9151   47.2219 H         1 APU200      0.0000 
     58 H           0.9473    2.6671   47.9072 H         1 APU200      0.0000 
     59 H          -0.4084    1.4830   46.5268 H         1 APU200      0.0000 
     60 H           1.4999    0.6166   44.6755 H         1 APU200      0.0000 
     61 H          -0.3537    2.0381   44.0321 H         1 APU200      0.0000 
     62 H           1.2057    2.6536   43.4581 H         1 APU200      0.0000 
     63 H           0.2573    4.4940   49.5171 H         1 APU200      0.0000 
     64 H          -0.0131    7.1592   45.9275 H         1 APU200      0.0000 
     65 H           0.8251    0.2199   48.7282 H         1 APU200      0.0000 
@<TRIPOS>BOND
     1    2    1 ar   
     2    3    1 ar   
     3    9    1 1    
     4   38    1 1    
     5    5    4 1    
     6   63    4 1    
     7    6    5 1    
     8   44    5 1    
     9   45    5 1    
    10    7    6 1    
    11    8    6 1    
    12   46    6 1    
    13   12    7 1    
    14    9    8 1    
    15   10    8 1    
    16   47    8 1    
    17   11   10 1    
    18   12   10 1    
    19   48   10 1    
    20   64   11 1    
    21   13   12 1    
    22   49   12 1    
    23   14   13 1    
    24   22   13 1    
    25   15   14 2    
    26   50   14 1    
    27   16   15 1    
    28   17   16 ar   
    29   22   16 ar   
    30   18   17 1    
    31   19   17 ar   
    32   51   18 1    
    33   52   18 1    
    34   20   19 ar   
    35   21   20 ar   
    36   53   20 1    
    37   22   21 ar   
    38   24   23 1    
    39   30   23 1    
    40   31   23 1    
    41   25   24 2    
    42   26   24 1    
    43   27   26 1    
    44   54   26 1    
    45   28   27 2    
    46   29   27 1    
    47   30   29 2    
    48   55   29 1    
    49   56   30 1    
    50   32   31 1    
    51   37   31 1    
    52   57   31 1    
    53   33   32 1    
    54   34   32 1    
    55   58   32 1    
    56   65   33 1    
    57   35   34 1    
    58   36   34 1    
    59   59   34 1    
    60   40   35 1    
    61   37   36 1    
    62   39   36 1    
    63   60   36 1    
    64   39   38 1    
    65   61   39 1    
    66   62   39 1    
    67   41   40 ar   
    68   42   40 ar   
    69   43   40 ar   
@<TRIPOS>SUBSTRUCTURE
     1 APU200      1 GROUP   
@<TRIPOS>SET

