#    Name: 2qp8_SC7_2_INTS_M
#    Modification time : Mon Mar 24 22:34:53 2014

@<TRIPOS>MOLECULE
2qp8_SC7_2_INTS_M
  108     0    12     0     0
SMALL
NO_CHARGES


@<TRIPOS>ATOM
      1 CA         14.9270   33.3965   52.6725 C.3       4 GLC5        0.0000 
      2 CA         16.3950   33.9860   53.4200 C.3      12 GLL5        0.0000 
      3 CA         13.4590   32.8070   51.9250 C.3       8 GLP5        0.0000 
      4 CA         15.9840   34.9960   52.1545 C.3       4 GLC5        0.0000 
      5 CA         15.5730   36.0060   50.8890 C.3       8 GLP5        0.0000 
      6 CA         22.3930   32.3325   53.4215 C.3       4 GLC5        0.0000 
      7 CA         20.4940   31.5630   53.0830 C.3      12 GLL5        0.0000 
      8 CA         24.2920   33.1020   53.7600 C.3       8 GLP5        0.0000 
      9 CA         21.3750   29.9490   52.8455 C.3       4 GLC5        0.0000 
     10 CA         22.2560   28.3350   52.6080 C.3       8 GLP5        0.0000 
     11 CA         20.9290   32.5660   51.8885 C.3       4 GLC5        0.0000 
     12 CA         21.3640   33.5690   50.6940 C.3       8 GLP5        0.0000 
     13 CA         20.4480   29.3385   59.4875 C.3       4 GLC5        0.0000 
     14 CA         18.6440   29.9110   59.1440 C.3      12 GLL5        0.0000 
     15 CA         22.2520   28.7660   59.8310 C.3       8 GLP5        0.0000 
     16 N          13.6390   32.3590   59.5915 N.am      2 SEC2        0.0000 
     17 N          13.8530   31.3480   58.6300 N.am     10 SEL2        0.0000 
     18 N          13.4250   33.3700   60.5530 N.am      6 SEP2        0.0000 
     19 N          12.5845   31.9965   58.6610 N.am      2 SEC2        0.0000 
     20 N          11.3160   32.6450   58.6920 N.am      6 SEP2        0.0000 
     21 CA         12.1840   32.1490   58.1240 C.3       4 GLC5        0.0000 
     22 CA         13.1750   31.9000   56.1480 C.3      12 GLL5        0.0000 
     23 CA         11.1930   32.3980   60.1000 C.3       8 GLP5        0.0000 
     24 CA         11.6885   34.0485   54.6095 C.3       4 GLC5        0.0000 
     25 CA         13.2350   33.3420   55.6630 C.3      12 GLL5        0.0000 
     26 CA         10.1420   34.7550   53.5560 C.3       8 GLP5        0.0000 
     27 CA         12.8985   36.0425   55.8345 C.3       4 GLC5        0.0000 
     28 CA         13.9260   34.3020   56.6390 C.3      12 GLL5        0.0000 
     29 CA         11.8710   37.7830   55.0300 C.3       8 GLP5        0.0000 
     30 CA         14.8275   34.2395   58.6050 C.3       4 GLC5        0.0000 
     31 CA         15.7290   34.1770   60.5710 C.3       8 GLP5        0.0000 
     32 CA         17.2480   28.5825   62.1240 C.3       4 GLC5        0.0000 
     33 CA         17.6410   27.8690   60.1890 C.3      12 GLL5        0.0000 
     34 CA         16.8550   29.2960   64.0590 C.3       8 GLP5        0.0000 
     35 N          21.0310   30.0420   57.4035 N.am      2 SEC2        0.0000 
     36 N          20.8010   31.4170   57.9710 N.am     10 SEL2        0.0000 
     37 N          21.2610   28.6670   56.8360 N.am      6 SEP2        0.0000 
     38 O          18.2635   34.0915   58.0860 O.2       1 ALC1        0.0000 
     39 O          19.4550   33.2560   57.9870 O.2       9 ALL1        0.0000 
     40 O          17.0720   34.9270   58.1850 O.2       5 ALP1        0.0000 
     41 O          21.0705   37.2725   58.5970 O.2       1 ALC1        0.0000 
     42 O          22.0950   35.9060   58.4190 O.2       9 ALL1        0.0000 
     43 O          20.0460   38.6390   58.7750 O.2       5 ALP1        0.0000 
     44 O          21.7565   37.0350   57.7955 O.2       1 ALC1        0.0000 
     45 O          21.4180   38.1640   57.1720 O.2       5 ALP1        0.0000 
     46 CA         18.5935   36.1720   57.6200 C.3       4 GLC5        0.0000 
     47 CA         20.1010   35.0900   56.4880 C.3      12 GLL5        0.0000 
     48 CA         17.0860   37.2540   58.7520 C.3       8 GLP5        0.0000 
     49 CA         19.7735   31.2825   55.1655 C.3       4 GLC5        0.0000 
     50 CA         20.2910   33.2680   54.7180 C.3      12 GLL5        0.0000 
     51 CA         19.2560   29.2970   55.6130 C.3       8 GLP5        0.0000 
     52 CA         23.2445   32.5690   57.6030 C.3       4 GLC5        0.0000 
     53 CA         22.8760   33.2940   59.3790 C.3      12 GLL5        0.0000 
     54 CA         23.6130   31.8440   55.8270 C.3       8 GLP5        0.0000 
     55 CA         22.9660   30.6635   60.1420 C.3       4 GLC5        0.0000 
     56 CA         23.6800   32.5610   60.4530 C.3      12 GLL5        0.0000 
     57 CA         22.4815   36.4220   61.7540 C.3       4 GLC5        0.0000 
     58 CA         22.8090   34.2620   62.1120 C.3      12 GLL5        0.0000 
     59 CA         22.1540   38.5820   61.3960 C.3       8 GLP5        0.0000 
     60 CA         22.5575   34.9585   63.8000 C.3       4 GLC5        0.0000 
     61 CA         22.3060   35.6550   65.4880 C.3       8 GLP5        0.0000 
     62 OD1        20.6240   36.1640   61.2135 O.co2     3 ASC3        0.0000 
     63 OD1        22.0920   34.9940   61.0310 O.co2    11 ASL3        0.0000 
     64 OD1        19.1560   37.3340   61.3960 O.co2     7 ASP3        0.0000 
     65 OD1        20.8880   35.1975   61.6335 O.co2     3 ASC3        0.0000 
     66 OD1        19.6840   35.4010   62.2360 O.co2     7 ASP3        0.0000 
     67 N          24.2125   30.8830   58.9180 N.am      2 SEC2        0.0000 
     68 N          24.8420   32.0340   59.8170 N.am     10 SEL2        0.0000 
     69 N          23.5830   29.7320   58.0190 N.am      6 SEP2        0.0000 
     70 CA         23.9725   30.0670   60.2845 C.3       4 GLC5        0.0000 
     71 CA         25.6930   31.3680   60.7380 C.3      12 GLL5        0.0000 
     72 CA         24.8720   29.5345   59.2200 C.3       4 GLC5        0.0000 
     73 CA         26.7390   30.5820   59.9100 C.3      12 GLL5        0.0000 
     74 CA         23.0050   28.4870   58.5300 C.3       8 GLP5        0.0000 
     75 CA         16.4510   30.8140   60.7283 C.3       4 GLC5        0.0000 
     76 CA         17.4920   29.1200   59.4260 C.3      12 GLL5        0.0000 
     77 CA         16.0520   32.3020   62.2550 C.3       8 GLP5        0.0000 
     78 CA         17.9498   30.2142   56.8565 C.3       4 GLC5        0.0000 
     79 CA         16.0660   30.7310   58.2390 C.3      12 GLL5        0.0000 
     80 CA         16.1863   32.6543   59.3355 C.3       4 GLC5        0.0000 
     81 CA         17.2210   31.5320   57.9610 C.3      12 GLL5        0.0000 
     82 CA         19.5388   28.0108   60.0793 C.3       4 GLC5        0.0000 
     83 CA         21.5110   27.5270   60.3510 C.3       8 GLP5        0.0000 
     84 CA         18.6442   29.5579   57.3577 C.3       4 GLC5        0.0000 
     85 CA         13.3320   32.7140   53.9153 C.3       4 GLC5        0.0000 
     86 CA         14.3300   31.7700   53.4185 C.3       4 GLC5        0.0000 
     87 CA         14.9190   30.2160   54.4080 C.3      12 GLL5        0.0000 
     88 CA         16.5345   29.4947   54.7022 C.3       4 GLC5        0.0000 
     89 CA         18.3510   29.1240   54.4040 C.3       8 GLP5        0.0000 
     90 CA         22.1716   34.5921   56.5500 C.3       4 GLC5        0.0000 
     91 CA         20.5660   34.1640   57.6400 C.3      12 GLL5        0.0000 
     92 CA         23.8840   34.3520   55.7350 C.3       8 GLP5        0.0000 
     93 CA         20.5228   36.3380   54.8510 C.3       4 GLC5        0.0000 
     94 CA         21.2390   37.9920   53.7840 C.3       8 GLP5        0.0000 
     95 CA         17.4519   36.0650   54.0757 C.3       4 GLC5        0.0000 
     96 CA         18.1840   34.5170   54.9030 C.3      12 GLL5        0.0000 
     97 CA         17.3020   37.9370   53.8870 C.3       8 GLP5        0.0000 
     98 CA         18.8124   30.7574   53.8465 C.3       4 GLC5        0.0000 
     99 CA         18.4260   32.7460   53.2080 C.3      12 GLL5        0.0000 
    100 CA         19.4162   31.8635   51.4322 C.3       4 GLC5        0.0000 
    101 CA         19.7490   32.5080   53.6570 C.3      12 GLL5        0.0000 
    102 CA         19.7450   31.1000   49.4320 C.3       8 GLP5        0.0000 
    103 CA         21.8165   32.3660   55.0072 C.3       4 GLC5        0.0000 
    104 CA         24.6930   34.9845   62.6665 C.3       4 GLC5        0.0000 
    105 CA         24.0570   33.5540   61.5540 C.3      12 GLL5        0.0000 
    106 CA         25.9530   36.0610   63.5000 C.3       8 GLP5        0.0000 
    107 CA         25.5100   31.0025   58.3460 C.3       4 GLC5        0.0000 
    108 CA         24.8040   31.0300   56.3680 C.3       8 GLP5        0.0000 
@<TRIPOS>BOND
@<TRIPOS>SUBSTRUCTURE
     1 ALC1       38 GROUP        1 X    ALC  0     ROOT ALC X 1
     2 SEC2       16 GROUP        1 X    SEC  0     **** SEC X 2
     3 ASC3       62 GROUP        1 X    ASC  0     **** ASC X 3
     4 GLC5        1 GROUP        1 X    GLC  0     **** GLC X 6
     5 ALP1       40 GROUP        1 Y    ALP  0     ROOT ALP Y 8
     6 SEP2       18 GROUP        1 Y    SEP  0     **** SEP Y 9
     7 ASP3       64 GROUP        1 Y    ASP  0     **** ASP Y 10
     8 GLP5        3 GROUP        1 Y    GLP  0     **** GLP Y 13
     9 ALL1       39 GROUP        1 Z    ALL  0     ROOT ALL Z 15
    10 SEL2       17 GROUP        1 Z    SEL  0     **** SEL Z 16
    11 ASL3       63 GROUP        1 Z    ASL  0     **** ASL Z 17
    12 GLL5        2 GROUP        1 Z    GLL  0     **** GLL Z 20
@<TRIPOS>SET

