#    Name: 2qp8_SC7_2_ligand
#    Modification time : Mon Mar 24 22:34:53 2014

@<TRIPOS>MOLECULE
2qp8_SC7_2_ligand
   82    84     1     0     0
SMALL
NO_CHARGES


@<TRIPOS>ATOM
      1 F1         16.3950   33.9860   53.4200 F         1 SC71        0.0000 
      2 F2         20.4940   31.5630   53.0830 F         1 SC71        0.0000 
      3 C1         16.2080   29.5320   58.9770 C.ar      1 SC71        0.0000 
      4 C2         16.0660   30.7310   58.2390 C.ar      1 SC71        0.0000 
      5 C3         17.2210   31.5320   57.9610 C.ar      1 SC71        0.0000 
      6 C4         18.5020   31.1240   58.4140 C.ar      1 SC71        0.0000 
      7 C5         18.6440   29.9110   59.1440 C.ar      1 SC71        0.0000 
      8 C6         17.4920   29.1200   59.4260 C.ar      1 SC71        0.0000 
      9 C7         14.7410   31.1810   57.8040 C.2       1 SC71        0.0000 
     10 N1         14.5110   31.4320   56.4930 N.am      1 SC71        0.0000 
     11 O1         13.8530   31.3480   58.6300 O.2       1 SC71        0.0000 
     12 C8         13.1750   31.9000   56.1480 C.3       1 SC71        0.0000 
     13 C9         15.4830   31.2500   55.4160 C.3       1 SC71        0.0000 
     14 C10        14.9190   30.2160   54.4080 C.3       1 SC71        0.0000 
     15 C11        14.2350   28.9980   55.0890 C.3       1 SC71        0.0000 
     16 C12        13.2350   33.3420   55.6630 C.3       1 SC71        0.0000 
     17 C13        13.9260   34.3020   56.6390 C.3       1 SC71        0.0000 
     18 C14        17.6410   27.8690   60.1890 C.3       1 SC71        0.0000 
     19 C15        19.6830   31.9240   58.1100 C.2       1 SC71        0.0000 
     20 O2         20.8010   31.4170   57.9710 O.2       1 SC71        0.0000 
     21 N2         19.4550   33.2560   57.9870 N.am      1 SC71        0.0000 
     22 C16        20.5660   34.1640   57.6400 C.3       1 SC71        0.0000 
     23 C17        21.0690   34.9850   58.8440 C.3       1 SC71        0.0000 
     24 O3         22.0950   35.9060   58.4190 O.3       1 SC71        0.0000 
     25 C18        20.1010   35.0900   56.4880 C.3       1 SC71        0.0000 
     26 C19        19.5120   34.2780   55.3480 C.ar      1 SC71        0.0000 
     27 C20        18.1840   34.5170   54.9030 C.ar      1 SC71        0.0000 
     28 C21        17.6440   33.7520   53.8320 C.ar      1 SC71        0.0000 
     29 C22        18.4260   32.7460   53.2080 C.ar      1 SC71        0.0000 
     30 C23        19.7490   32.5080   53.6570 C.ar      1 SC71        0.0000 
     31 C24        20.2910   33.2680   54.7180 C.ar      1 SC71        0.0000 
     32 C25        21.6760   34.1010   59.9240 C.3       1 SC71        0.0000 
     33 C26        22.8760   33.2940   59.3790 C.3       1 SC71        0.0000 
     34 C27        23.6800   32.5610   60.4530 C.3       1 SC71        0.0000 
     35 C28        24.0570   33.5540   61.5540 C.3       1 SC71        0.0000 
     36 C29        22.8090   34.2620   62.1120 C.3       1 SC71        0.0000 
     37 N3         22.0920   34.9940   61.0310 N.4       1 SC71        0.0000 
     38 O4         24.8420   32.0340   59.8170 O.3       1 SC71        0.0000 
     39 C30        25.6930   31.3680   60.7380 C.3       1 SC71        0.0000 
     40 C31        26.7390   30.5820   59.9100 C.3       1 SC71        0.0000 
     41 H          15.3901   28.9611   59.1883 H         1 SC71        0.0000 
     42 H          17.1153   32.3982   57.4347 H         1 SC71        0.0000 
     43 H          19.5586   29.6099   59.4623 H         1 SC71        0.0000 
     44 H          12.5088   31.8562   57.0152 H         1 SC71        0.0000 
     45 H          12.7389   31.2875   55.3528 H         1 SC71        0.0000 
     46 H          16.4256   30.8671   55.7934 H         1 SC71        0.0000 
     47 H          15.6581   32.1768   54.8793 H         1 SC71        0.0000 
     48 H          15.7374   29.8527   53.7780 H         1 SC71        0.0000 
     49 H          14.1885   30.7134   53.7617 H         1 SC71        0.0000 
     50 H          12.2098   33.7038   55.4778 H         1 SC71        0.0000 
     51 H          13.7667   33.3765   54.6974 H         1 SC71        0.0000 
     52 H          18.5373   33.6808   58.1234 H         1 SC71        0.0000 
     53 H          21.4046   33.5796   57.2536 H         1 SC71        0.0000 
     54 H          20.2361   35.5191   59.2678 H         1 SC71        0.0000 
     55 H          20.9573   35.6579   56.1324 H         1 SC71        0.0000 
     56 H          19.3533   35.7775   56.8760 H         1 SC71        0.0000 
     57 H          17.6182   35.2355   55.3500 H         1 SC71        0.0000 
     58 H          18.0390   32.1995   52.4434 H         1 SC71        0.0000 
     59 H          21.2455   33.0946   55.0369 H         1 SC71        0.0000 
     60 H          20.9238   33.4179   60.2703 H         1 SC71        0.0000 
     61 H          23.5426   33.9828   58.8359 H         1 SC71        0.0000 
     62 H          22.5008   32.5620   58.6460 H         1 SC71        0.0000 
     63 H          23.0643   31.7959   60.8656 H         1 SC71        0.0000 
     64 H          24.7367   34.3013   61.1490 H         1 SC71        0.0000 
     65 H          24.5550   33.0237   62.3635 H         1 SC71        0.0000 
     66 H          23.1266   34.9541   62.8937 H         1 SC71        0.0000 
     67 H          22.1571   33.5093   62.5584 H         1 SC71        0.0000 
     68 H          25.1606   30.6495   61.3525 H         1 SC71        0.0000 
     69 H          26.2368   32.0570   61.3759 H         1 SC71        0.0000 
     70 H          14.8706   28.4943   55.6740 H         1 SC71        0.0000 
     71 H          13.4661   29.2775   55.6640 H         1 SC71        0.0000 
     72 H          13.8779   28.3490   54.4172 H         1 SC71        0.0000 
     73 H          14.8746   34.0367   56.8119 H         1 SC71        0.0000 
     74 H          13.9427   35.2387   56.2894 H         1 SC71        0.0000 
     75 H          13.4628   34.3280   57.5249 H         1 SC71        0.0000 
     76 H          18.5933   27.7001   60.4429 H         1 SC71        0.0000 
     77 H          17.1102   27.8853   61.0363 H         1 SC71        0.0000 
     78 H          17.3322   27.0753   59.6649 H         1 SC71        0.0000 
     79 H          27.2815   31.1867   59.3268 H         1 SC71        0.0000 
     80 H          27.3805   30.0868   60.4959 H         1 SC71        0.0000 
     81 H          26.3077   29.9069   59.3115 H         1 SC71        0.0000 
     82 H          21.6041   36.6455   57.9584 H         1 SC71        0.0000 
@<TRIPOS>BOND
     1   28    1 1    
     2   30    2 1    
     3    4    3 ar   
     4    8    3 ar   
     5   41    3 1    
     6    5    4 ar   
     7    9    4 1    
     8    6    5 ar   
     9   42    5 1    
    10    7    6 ar   
    11   19    6 1    
    12    8    7 ar   
    13   43    7 1    
    14   18    8 1    
    15   10    9 am   
    16   11    9 2    
    17   12   10 1    
    18   13   10 1    
    19   16   12 1    
    20   44   12 1    
    21   45   12 1    
    22   14   13 1    
    23   46   13 1    
    24   47   13 1    
    25   15   14 1    
    26   48   14 1    
    27   49   14 1    
    28   70   15 1    
    29   71   15 1    
    30   72   15 1    
    31   17   16 1    
    32   50   16 1    
    33   51   16 1    
    34   73   17 1    
    35   74   17 1    
    36   75   17 1    
    37   76   18 1    
    38   77   18 1    
    39   78   18 1    
    40   20   19 2    
    41   21   19 am   
    42   22   21 1    
    43   52   21 1    
    44   23   22 1    
    45   25   22 1    
    46   53   22 1    
    47   24   23 1    
    48   32   23 1    
    49   54   23 1    
    50   82   24 1    
    51   26   25 1    
    52   55   25 1    
    53   56   25 1    
    54   27   26 ar   
    55   31   26 ar   
    56   28   27 ar   
    57   57   27 1    
    58   29   28 ar   
    59   30   29 ar   
    60   58   29 1    
    61   31   30 ar   
    62   59   31 1    
    63   33   32 1    
    64   37   32 1    
    65   60   32 1    
    66   34   33 1    
    67   61   33 1    
    68   62   33 1    
    69   35   34 1    
    70   38   34 1    
    71   63   34 1    
    72   36   35 1    
    73   64   35 1    
    74   65   35 1    
    75   37   36 1    
    76   66   36 1    
    77   67   36 1    
    78   39   38 1    
    79   40   39 1    
    80   68   39 1    
    81   69   39 1    
    82   79   40 1    
    83   80   40 1    
    84   81   40 1    
@<TRIPOS>SUBSTRUCTURE
     1 SC71        1 GROUP   
@<TRIPOS>SET

