#    Name: 1ve3_SAM_2_INTS_M
#    Modification time : Tue Mar 25 07:43:55 2014

@<TRIPOS>MOLECULE
1ve3_SAM_2_INTS_M
   85     0    12     0     0
SMALL
NO_CHARGES


@<TRIPOS>ATOM
      1 O          -3.1895   32.2915  121.7090 O.2       1 ALC1        0.0000 
      2 O          -4.3430   31.5990  121.3850 O.2       9 ALL1        0.0000 
      3 O          -2.0360   32.9840  122.0330 O.2       5 ALP1        0.0000 
      4 O          -5.1305   32.3100  120.4110 O.2       1 ALC1        0.0000 
      5 O          -5.9180   33.0210  119.4370 O.2       5 ALP1        0.0000 
      6 O          -3.8915   30.2905  121.1235 O.2       1 ALC1        0.0000 
      7 O          -3.4400   28.9820  120.8620 O.2       5 ALP1        0.0000 
      8 CA         -3.7050   31.8205  124.5020 C.3       4 GLC5        0.0000 
      9 CA         -4.9960   31.6600  122.7310 C.3      12 GLL5        0.0000 
     10 CA         -2.4140   31.9810  126.2730 C.3       8 GLP5        0.0000 
     11 NZ         -7.7290   30.1360  122.9420 N.4       3 LYC4        0.0000 
     12 NZ         -6.3580   30.0960  123.9300 N.4      11 LYL4        0.0000 
     13 NZ        -10.0060   29.7740  122.8150 N.4       7 LYP4        0.0000 
     14 N          -7.9955   29.7080  123.9690 N.am      2 SEC2        0.0000 
     15 N          -6.3580   30.0960  123.9300 N.am     10 SEL2        0.0000 
     16 N          -9.6330   29.3200  124.0080 N.am      6 SEP2        0.0000 
     17 N          -7.7290   30.1360  122.9420 N.am      2 SEC2        0.0000 
     18 N          -9.1000   30.1760  121.9540 N.am      6 SEP2        0.0000 
     19 NZ         -7.8940   30.2530  121.8395 N.4       3 LYC4        0.0000 
     20 NZ         -6.6880   30.3300  121.7250 N.4      11 LYL4        0.0000 
     21 N          -7.8940   30.2530  121.8395 N.am      2 SEC2        0.0000 
     22 N          -6.6880   30.3300  121.7250 N.am     10 SEL2        0.0000 
     23 CA         -4.0040   32.7630  125.2465 C.3       4 GLC5        0.0000 
     24 CA         -5.5940   33.5450  124.2200 C.3      12 GLL5        0.0000 
     25 CA         -8.9220   34.0245  124.0460 C.3       4 GLC5        0.0000 
     26 CA         -7.8150   35.1590  123.6290 C.3      12 GLL5        0.0000 
     27 CA        -10.0290   32.8900  124.4630 C.3       8 GLP5        0.0000 
     28 CA         -8.5275   34.2955  121.8105 C.3       4 GLC5        0.0000 
     29 CA         -9.2400   33.4320  119.9920 C.3       8 GLP5        0.0000 
     30 CA         -6.3945   37.1615  124.9130 C.3       4 GLC5        0.0000 
     31 CA         -5.1580   36.2910  123.5180 C.3      12 GLL5        0.0000 
     32 CA         -7.6310   38.0320  126.3080 C.3       8 GLP5        0.0000 
     33 CA         -2.3580   35.7705  122.4390 C.3       4 GLC5        0.0000 
     34 CA         -3.6340   36.2930  124.0600 C.3      12 GLL5        0.0000 
     35 CA         -1.0820   35.2480  120.8180 C.3       8 GLP5        0.0000 
     36 CA         -5.1930   37.8385  126.3360 C.3       4 GLC5        0.0000 
     37 CA         -3.4850   36.9100  125.4380 C.3      12 GLL5        0.0000 
     38 CA         -6.9010   38.7670  127.2340 C.3       8 GLP5        0.0000 
     39 O          -1.3390   35.8785  126.3510 O.2       1 ALC1        0.0000 
     40 O          -3.0090   35.6690  126.1580 O.2       9 ALL1        0.0000 
     41 O           0.3310   36.0880  126.5440 O.2       5 ALP1        0.0000 
     42 O          -1.8000   35.1695  125.6580 O.2       1 ALC1        0.0000 
     43 O          -0.5910   34.6700  125.1580 O.2       5 ALP1        0.0000 
     44 O          -0.5490   36.9935  126.5430 O.2       1 ALC1        0.0000 
     45 O          -1.4290   37.8990  126.5420 O.2       9 ALL1        0.0000 
     46 CA         -1.4315   36.4305  122.4330 C.3       4 GLC5        0.0000 
     47 CA         -1.7810   37.6130  124.0480 C.3      12 GLL5        0.0000 
     48 CA          2.2765   40.0350  123.6515 C.3       4 GLC5        0.0000 
     49 CA          1.6610   40.2670  121.8750 C.3      12 GLL5        0.0000 
     50 CA          2.8920   39.8030  125.4280 C.3       8 GLP5        0.0000 
     51 CA          2.3275   39.1930  120.0955 C.3       4 GLC5        0.0000 
     52 CA          2.9940   38.1190  118.3160 C.3       8 GLP5        0.0000 
     53 O           3.4720   41.6495  121.0040 O.2       1 ALC1        0.0000 
     54 O           2.0630   41.4650  121.4040 O.2       9 ALL1        0.0000 
     55 O           4.8810   41.8340  120.6040 O.2       5 ALP1        0.0000 
     56 N           3.6495   39.0170  120.8025 N.am      2 SEC2        0.0000 
     57 N           2.5320   39.1710  121.7610 N.am     10 SEL2        0.0000 
     58 N           4.7670   38.8630  119.8440 N.am      6 SEP2        0.0000 
     59 CA          1.0340   36.1385  121.9070 C.3       4 GLC5        0.0000 
     60 CA          2.1560   37.9320  122.2300 C.3      12 GLL5        0.0000 
     61 CA         -0.0880   34.3450  121.5840 C.3       8 GLP5        0.0000 
     62 CA          2.4740   36.4475  123.5690 C.3       4 GLC5        0.0000 
     63 CA          2.7920   34.9630  124.9080 C.3       8 GLP5        0.0000 
     64 CA          2.5240   38.8675  123.8290 C.3       4 GLC5        0.0000 
     65 CA          4.1590   38.7475  121.9700 C.3       4 GLC5        0.0000 
     66 CA          6.1620   39.5630  121.7100 C.3       8 GLP5        0.0000 
     67 CA          2.5750   38.0255  120.2730 C.3       4 GLC5        0.0000 
     68 N           1.9515   37.4865  124.1340 N.am      2 SEC2        0.0000 
     69 N           0.9680   37.6460  122.8240 N.am     10 SEL2        0.0000 
     70 N           2.9350   37.3270  125.4440 N.am      6 SEP2        0.0000 
     71 CA         -0.4905   37.0040  121.8760 C.3       4 GLC5        0.0000 
     72 CA          0.1010   38.7600  122.9340 C.3      12 GLL5        0.0000 
     73 CA         -7.4245   33.7078  125.5168 C.3       4 GLC5        0.0000 
     74 CA         -6.3220   35.2380  124.3830 C.3      12 GLL5        0.0000 
     75 CA         -8.8910   33.0240  126.7320 C.3       8 GLP5        0.0000 
     76 CA         -7.7613   36.1012  125.3685 C.3       4 GLC5        0.0000 
     77 CA         -8.4540   37.0040  126.7310 C.3       8 GLP5        0.0000 
     78 CA         -4.5000   36.3745  121.9080 C.3       4 GLC5        0.0000 
     79 CA         -4.6040   36.4570  120.0270 C.3       8 GLP5        0.0000 
     80 CA         -4.6852   38.3620  123.7998 C.3       4 GLC5        0.0000 
     81 CA         -5.4300   40.1230  122.9860 C.3       8 GLP5        0.0000 
     82 CA         -0.3150   38.8455  125.2905 C.3       4 GLC5        0.0000 
     83 CA         -2.3390   37.8430  125.4900 C.3      12 GLL5        0.0000 
     84 CA          1.4300   39.9630  125.8120 C.3       8 GLP5        0.0000 
     85 CA          0.8300   39.6903  124.2632 C.3       4 GLC5        0.0000 
@<TRIPOS>BOND
@<TRIPOS>SUBSTRUCTURE
     1 ALC1        1 GROUP        1 X    ALC  0     ROOT ALC X 1
     2 SEC2       14 GROUP        1 X    SEC  0     **** SEC X 2
     3 LYC4       11 GROUP        1 X    LYC  0     **** LYC X 4
     4 GLC5        8 GROUP        1 X    GLC  0     **** GLC X 6
     5 ALP1        3 GROUP        1 Y    ALP  0     ROOT ALP Y 8
     6 SEP2       16 GROUP        1 Y    SEP  0     **** SEP Y 9
     7 LYP4       13 GROUP        1 Y    LYP  0     **** LYP Y 11
     8 GLP5       10 GROUP        1 Y    GLP  0     **** GLP Y 13
     9 ALL1        2 GROUP        1 Z    ALL  0     ROOT ALL Z 15
    10 SEL2       15 GROUP        1 Z    SEL  0     **** SEL Z 16
    11 LYL4       12 GROUP        1 Z    LYL  0     **** LYL Z 18
    12 GLL5        9 GROUP        1 Z    GLL  0     **** GLL Z 20
@<TRIPOS>SET

