#    Name: 1ve3_SAM_2_ligand
#    Modification time : Tue Mar 25 07:43:55 2014

@<TRIPOS>MOLECULE
1ve3_SAM_2_ligand
   50    52     1     0     0
SMALL
NO_CHARGES


@<TRIPOS>ATOM
      1 N          -4.3430   31.5990  121.3850 N.4       1 SAM301      0.0000 
      2 CA         -4.9960   31.6600  122.7310 C.3       1 SAM301      0.0000 
      3 C          -6.1060   30.6020  122.8220 C.2       1 SAM301      0.0000 
      4 O          -6.3580   30.0960  123.9300 O.co2     1 SAM301      0.0000 
      5 OXT        -6.6880   30.3300  121.7250 O.co2     1 SAM301      0.0000 
      6 CB         -5.5880   33.0320  122.8730 C.3       1 SAM301      0.0000 
      7 CG         -5.5940   33.5450  124.2200 C.3       1 SAM301      0.0000 
      8 SD         -6.3220   35.2380  124.3830 S.3       1 SAM301      0.0000 
      9 CE         -7.8150   35.1590  123.6290 C.3       1 SAM301      0.0000 
     10 C5'        -5.1580   36.2910  123.5180 C.3       1 SAM301      0.0000 
     11 C4'        -3.6340   36.2930  124.0600 C.3       1 SAM301      0.0000 
     12 O4'        -2.8530   37.1900  123.2250 O.3       1 SAM301      0.0000 
     13 C3'        -3.4850   36.9100  125.4380 C.3       1 SAM301      0.0000 
     14 O3'        -3.0090   35.6690  126.1580 O.3       1 SAM301      0.0000 
     15 C2'        -2.3390   37.8430  125.4900 C.3       1 SAM301      0.0000 
     16 O2'        -1.4290   37.8990  126.5420 O.3       1 SAM301      0.0000 
     17 C1'        -1.7810   37.6130  124.0480 C.3       1 SAM301      0.0000 
     18 N9         -1.1460   38.7960  123.4770 N.pl3     1 SAM301      0.0000 
     19 C8         -1.5660   40.1170  123.3380 C.2       1 SAM301      0.0000 
     20 N7         -0.6810   40.8920  122.7550 N.2       1 SAM301      0.0000 
     21 C5          0.3590   40.0750  122.4950 C.ar      1 SAM301      0.0000 
     22 C6          1.6610   40.2670  121.8750 C.ar      1 SAM301      0.0000 
     23 N6          2.0630   41.4650  121.4040 N.pl3     1 SAM301      0.0000 
     24 N1          2.5320   39.1710  121.7610 N.ar      1 SAM301      0.0000 
     25 C2          2.1560   37.9320  122.2300 C.ar      1 SAM301      0.0000 
     26 N3          0.9680   37.6460  122.8240 N.ar      1 SAM301      0.0000 
     27 C4          0.1010   38.7600  122.9340 C.ar      1 SAM301      0.0000 
     28 H          -4.2800   31.4926  123.4929 H         1 SAM301      0.0000 
     29 H          -6.6267   33.0053  122.4616 H         1 SAM301      0.0000 
     30 H          -5.0283   33.7225  122.1956 H         1 SAM301      0.0000 
     31 H          -4.6144   33.7150  124.6694 H         1 SAM301      0.0000 
     32 H          -6.2146   33.0014  124.9340 H         1 SAM301      0.0000 
     33 H          -5.5923   37.2781  123.5928 H         1 SAM301      0.0000 
     34 H          -5.2002   35.9432  122.4954 H         1 SAM301      0.0000 
     35 H          -3.2591   35.3228  124.0402 H         1 SAM301      0.0000 
     36 H          -4.3452   37.2334  125.8112 H         1 SAM301      0.0000 
     37 H          -2.8494   38.8857  125.3376 H         1 SAM301      0.0000 
     38 H          -1.0445   36.8043  124.1355 H         1 SAM301      0.0000 
     39 H          -2.4644   40.4061  123.6650 H         1 SAM301      0.0000 
     40 H           2.9736   41.4926  120.9916 H         1 SAM301      0.0000 
     41 H           1.4147   42.2191  121.5090 H         1 SAM301      0.0000 
     42 H           2.8626   37.1337  122.1136 H         1 SAM301      0.0000 
     43 H          -4.7923   32.2027  120.7265 H         1 SAM301      0.0000 
     44 H          -3.3822   31.8730  121.4256 H         1 SAM301      0.0000 
     45 H          -4.3686   30.6759  121.0013 H         1 SAM301      0.0000 
     46 H          -7.7260   35.0837  122.6358 H         1 SAM301      0.0000 
     47 H          -8.3450   34.3687  123.9365 H         1 SAM301      0.0000 
     48 H          -8.3674   35.9720  123.8129 H         1 SAM301      0.0000 
     49 H          -2.1561   35.4161  125.7013 H         1 SAM301      0.0000 
     50 H          -1.1317   36.9539  126.6773 H         1 SAM301      0.0000 
@<TRIPOS>BOND
     1    2    1 1    
     2   43    1 1    
     3   44    1 1    
     4   45    1 1    
     5    3    2 1    
     6    6    2 1    
     7   28    2 1    
     8    4    3 ar   
     9    5    3 ar   
    10    7    6 1    
    11   29    6 1    
    12   30    6 1    
    13    8    7 1    
    14   31    7 1    
    15   32    7 1    
    16    9    8 1    
    17   10    8 1    
    18   46    9 1    
    19   47    9 1    
    20   48    9 1    
    21   11   10 1    
    22   33   10 1    
    23   34   10 1    
    24   12   11 1    
    25   13   11 1    
    26   35   11 1    
    27   17   12 1    
    28   14   13 1    
    29   15   13 1    
    30   36   13 1    
    31   49   14 1    
    32   16   15 1    
    33   17   15 1    
    34   37   15 1    
    35   50   16 1    
    36   18   17 1    
    37   38   17 1    
    38   19   18 1    
    39   27   18 1    
    40   20   19 2    
    41   39   19 1    
    42   21   20 1    
    43   22   21 ar   
    44   27   21 ar   
    45   23   22 1    
    46   24   22 ar   
    47   40   23 1    
    48   41   23 1    
    49   25   24 ar   
    50   26   25 ar   
    51   42   25 1    
    52   27   26 ar   
@<TRIPOS>SUBSTRUCTURE
     1 SAM301      1 GROUP   
@<TRIPOS>SET

