#    Name: 1kyy_INI_4_INTS_M
#    Modification time : Tue Mar 25 10:50:28 2014

@<TRIPOS>MOLECULE
1kyy_INI_4_INTS_M
   55     0     9     0     0
SMALL
NO_CHARGES


@<TRIPOS>ATOM
      1 N          63.0020   41.3615    8.1980 N.am      2 SEC2        0.0000 
      2 N          61.6860   41.7950    8.5210 N.am      8 SEL2        0.0000 
      3 N          64.3180   40.9280    7.8750 N.am      5 SEP2        0.0000 
      4 N          62.6365   42.3190    9.1930 N.am      2 SEC2        0.0000 
      5 N          63.5870   42.8430    9.8650 N.am      5 SEP2        0.0000 
      6 N          61.3520   43.0895    8.0580 N.am      2 SEC2        0.0000 
      7 N          61.0180   44.3840    7.5950 N.am      5 SEP2        0.0000 
      8 O          59.4625   42.3550    9.9190 O.2       1 ALC1        0.0000 
      9 O          59.7790   41.0210    9.5920 O.2       7 ALL1        0.0000 
     10 O          59.1460   43.6890   10.2460 O.2       4 ALP1        0.0000 
     11 N          57.4720   41.2975   11.9870 N.am      2 SEC2        0.0000 
     12 N          57.9640   40.3810   10.6330 N.am      8 SEL2        0.0000 
     13 N          56.9800   42.2140   13.3410 N.am      5 SEP2        0.0000 
     14 CA         58.1020   38.9640    8.0875 C.3       3 GLC5        0.0000 
     15 CA         59.2000   38.6000    9.3720 C.3       9 GLL5        0.0000 
     16 CA         57.0040   39.3280    6.8030 C.3       6 GLP5        0.0000 
     17 CA         59.2520   38.9040    7.2610 C.3       3 GLC5        0.0000 
     18 CA         60.3440   38.4550    8.5020 C.3       9 GLL5        0.0000 
     19 CA         58.1600   39.3530    6.0200 C.3       6 GLP5        0.0000 
     20 N          64.7680   38.5145    8.6560 N.am      2 SEC2        0.0000 
     21 N          63.4280   37.9030    8.2340 N.am      8 SEL2        0.0000 
     22 N          66.1080   39.1260    9.0780 N.am      5 SEP2        0.0000 
     23 O          64.6685   37.3485    5.3180 O.2       1 ALC1        0.0000 
     24 O          63.2370   36.8630    5.6120 O.2       7 ALL1        0.0000 
     25 O          66.1000   37.8340    5.0240 O.2       4 ALP1        0.0000 
     26 O          63.6715   32.3730    7.5410 O.2       1 ALC1        0.0000 
     27 O          63.1770   33.8810    7.3860 O.2       7 ALL1        0.0000 
     28 O          64.1660   30.8650    7.6960 O.2       4 ALP1        0.0000 
     29 CA         65.7415   32.4905    4.8925 C.3       3 GLC5        0.0000 
     30 CA         64.9580   33.5050    5.8750 C.3       9 GLL5        0.0000 
     31 CA         66.5250   31.4760    3.9100 C.3       6 GLP5        0.0000 
     32 CA         65.7325   32.2650    7.0915 C.3       3 GLC5        0.0000 
     33 CA         66.5070   31.0250    8.3080 C.3       6 GLP5        0.0000 
     34 CA         66.6720   34.3170    7.0220 C.3       3 GLC5        0.0000 
     35 CA         68.3860   35.1290    8.1690 C.3       6 GLP5        0.0000 
     36 N          66.6250   32.9190    6.7680 N.am      2 SEC2        0.0000 
     37 N          66.0620   34.2070    6.3720 N.am      8 SEL2        0.0000 
     38 N          67.1880   31.6310    7.1640 N.am      5 SEP2        0.0000 
     39 O          66.6335   35.0880    5.8060 O.2       1 ALC1        0.0000 
     40 O          66.0620   34.2070    6.3720 O.2       7 ALL1        0.0000 
     41 O          67.2050   35.9690    5.2400 O.2       4 ALP1        0.0000 
     42 CA         60.5610   39.3822   10.7040 C.3       3 GLC5        0.0000 
     43 CA         61.3500   40.2370   12.4710 C.3       6 GLP5        0.0000 
     44 CA         62.4915   36.0025   10.0495 C.3       3 GLC5        0.0000 
     45 CA         61.6240   36.3490    8.4420 C.3       9 GLL5        0.0000 
     46 CA         62.5890   35.5710   11.8350 C.3       6 GLP5        0.0000 
     47 CA         63.6170   38.2170    6.5090 C.3       3 GLC5        0.0000 
     48 CA         63.1640   36.5190    8.0860 C.3       9 GLL5        0.0000 
     49 CA         63.7670   40.1310    5.6500 C.3       6 GLP5        0.0000 
     50 CA         65.0490   36.5230    8.2320 C.3       3 GLC5        0.0000 
     51 CA         63.7700   36.0870    6.6500 C.3       9 GLL5        0.0000 
     52 CA         66.6310   36.7430    9.0960 C.3       6 GLP5        0.0000 
     53 CA         63.1857   32.4720    5.2180 C.3       3 GLC5        0.0000 
     54 CA         63.7310   34.4750    6.1590 C.3       9 GLL5        0.0000 
     55 CA         62.0270   30.9540    4.4190 C.3       6 GLP5        0.0000 
@<TRIPOS>BOND
@<TRIPOS>SUBSTRUCTURE
     1 ALC1        8 GROUP        1 X    ALC  0     ROOT ALC X 1
     2 SEC2        1 GROUP        1 X    SEC  0     **** SEC X 2
     3 GLC5       14 GROUP        1 X    GLC  0     **** GLC X 6
     4 ALP1       10 GROUP        1 Y    ALP  0     ROOT ALP Y 8
     5 SEP2        3 GROUP        1 Y    SEP  0     **** SEP Y 9
     6 GLP5       16 GROUP        1 Y    GLP  0     **** GLP Y 13
     7 ALL1        9 GROUP        1 Z    ALL  0     ROOT ALL Z 15
     8 SEL2        2 GROUP        1 Z    SEL  0     **** SEL Z 16
     9 GLL5       15 GROUP        1 Z    GLL  0     **** GLL Z 20
@<TRIPOS>SET

