#    Name: 1kyy_INI_4_ligand
#    Modification time : Tue Mar 25 10:50:28 2014

@<TRIPOS>MOLECULE
1kyy_INI_4_ligand
   35    35     1     0     0
SMALL
NO_CHARGES


@<TRIPOS>ATOM
      1 N1         61.1610   39.5980    8.3490 N.am      1 INI204      0.0000 
      2 C2         60.8890   40.8850    8.8310 C.2       1 INI204      0.0000 
      3 O2         61.6860   41.7950    8.5210 O.2       1 INI204      0.0000 
      4 N3         59.7790   41.0210    9.5920 N.am      1 INI204      0.0000 
      5 C4         58.9090   40.0100    9.9190 C.2       1 INI204      0.0000 
      6 O4         57.9640   40.3810   10.6330 O.2       1 INI204      0.0000 
      7 C5         59.2000   38.6000    9.3720 C.2       1 INI204      0.0000 
      8 N5         58.2580   37.5650    9.6860 N.pl3     1 INI204      0.0000 
      9 O51        57.2680   37.7940   10.3310 O.2       1 INI204      0.0000 
     10 O52        58.4890   36.4440    9.2800 O.2       1 INI204      0.0000 
     11 C6         60.3440   38.4550    8.5020 C.2       1 INI204      0.0000 
     12 N7         60.6950   37.3010    7.7480 N.pl3     1 INI204      0.0000 
     13 C8         61.6240   36.3490    8.4420 C.3       1 INI204      0.0000 
     14 C9         63.1640   36.5190    8.0860 C.3       1 INI204      0.0000 
     15 O9         63.4280   37.9030    8.2340 O.3       1 INI204      0.0000 
     16 C10        63.7700   36.0870    6.6500 C.3       1 INI204      0.0000 
     17 O10        63.2370   36.8630    5.6120 O.3       1 INI204      0.0000 
     18 C11        63.7310   34.4750    6.1590 C.3       1 INI204      0.0000 
     19 O11        63.1770   33.8810    7.3860 O.3       1 INI204      0.0000 
     20 C12        64.9580   33.5050    5.8750 C.3       1 INI204      0.0000 
     21 O12        66.0620   34.2070    6.3720 O.3       1 INI204      0.0000 
     22 H          62.0752   39.4624    7.8121 H         1 INI204      0.0000 
     23 H          59.5518   41.9991    9.9769 H         1 INI204      0.0000 
     24 H          60.3789   37.1095    6.8524 H         1 INI204      0.0000 
     25 H          61.3529   35.3040    8.2036 H         1 INI204      0.0000 
     26 H          61.5346   36.4547    9.5389 H         1 INI204      0.0000 
     27 H          63.7398   35.9781    8.8516 H         1 INI204      0.0000 
     28 H          64.8840   36.3037    6.7120 H         1 INI204      0.0000 
     29 H          62.9793   34.3838    5.4143 H         1 INI204      0.0000 
     30 H          64.9797   33.3526    4.8149 H         1 INI204      0.0000 
     31 H          64.7478   32.5951    6.3999 H         1 INI204      0.0000 
     32 H          63.7301   38.2068    7.3304 H         1 INI204      0.0000 
     33 H          64.0301   37.2762    5.1644 H         1 INI204      0.0000 
     34 H          63.5174   32.9408    7.3947 H         1 INI204      0.0000 
     35 H          66.5840   34.4751    5.5623 H         1 INI204      0.0000 
@<TRIPOS>BOND
     1    2    1 1    
     2   11    1 1    
     3   22    1 1    
     4    3    2 2    
     5    4    2 1    
     6    5    4 1    
     7   23    4 1    
     8    6    5 2    
     9    7    5 1    
    10    8    7 1    
    11   11    7 2    
    12    9    8 2    
    13   10    8 2    
    14   12   11 1    
    15   13   12 1    
    16   24   12 1    
    17   14   13 1    
    18   25   13 1    
    19   26   13 1    
    20   15   14 1    
    21   16   14 1    
    22   27   14 1    
    23   32   15 1    
    24   17   16 1    
    25   18   16 1    
    26   28   16 1    
    27   33   17 1    
    28   19   18 1    
    29   20   18 1    
    30   29   18 1    
    31   34   19 1    
    32   21   20 1    
    33   30   20 1    
    34   31   20 1    
    35   35   21 1    
@<TRIPOS>SUBSTRUCTURE
     1 INI204      1 GROUP   
@<TRIPOS>SET

