#    Name: 4awi_AQ2_1_INTS_M
#    Modification time : Tue Mar 25 06:18:02 2014

@<TRIPOS>MOLECULE
4awi_AQ2_1_INTS_M
   62     0     9     0     0
SMALL
NO_CHARGES


@<TRIPOS>ATOM
      1 CA         23.8905    7.7860   27.9570 C.3       3 GLC5        0.0000 
      2 CA         24.5540    7.4680   29.9190 C.3       9 GLL5        0.0000 
      3 CA         23.2270    8.1040   25.9950 C.3       6 GLP5        0.0000 
      4 CA         18.0605   10.4765   34.9115 C.3       3 GLC5        0.0000 
      5 CA         19.5360    9.3920   34.0290 C.3       9 GLL5        0.0000 
      6 CA         16.5850   11.5610   35.7940 C.3       6 GLP5        0.0000 
      7 CA         17.0935    8.0370   33.3220 C.3       3 GLC5        0.0000 
      8 CA         19.1030    8.0850   34.0990 C.3       9 GLL5        0.0000 
      9 CA         15.0840    7.9890   32.5450 C.3       6 GLP5        0.0000 
     10 CA         18.5685    6.2120   34.9265 C.3       3 GLC5        0.0000 
     11 CA         18.0340    4.3390   35.7540 C.3       6 GLP5        0.0000 
     12 N          19.1330    5.5755   33.4370 N.am      2 SEC2        0.0000 
     13 N          19.7060    7.0610   33.4780 N.am      8 SEL2        0.0000 
     14 N          18.5600    4.0900   33.3960 N.am      5 SEP2        0.0000 
     15 CA         20.9700    6.0155   34.4250 C.3       3 GLC5        0.0000 
     16 CA         20.7960    7.3540   32.7470 C.3       9 GLL5        0.0000 
     17 CA         21.1440    4.6770   36.1030 C.3       6 GLP5        0.0000 
     18 CA         19.4575    5.8370   31.8680 C.3       3 GLC5        0.0000 
     19 CA         18.1190    4.3200   30.9890 C.3       6 GLP5        0.0000 
     20 O          21.3075    5.0070   32.2550 O.2       1 ALC1        0.0000 
     21 O          21.5620    6.4670   32.0380 O.2       7 ALL1        0.0000 
     22 O          21.0530    3.5470   32.4720 O.2       4 ALP1        0.0000 
     23 CA         24.9365   12.1730   33.3975 C.3       3 GLC5        0.0000 
     24 CA         22.8900   12.7550   33.0920 C.3       9 GLL5        0.0000 
     25 CA         26.9830   11.5910   33.7030 C.3       6 GLP5        0.0000 
     26 CA         18.3920   11.8515   34.5340 C.3       3 GLC5        0.0000 
     27 CA         20.1990   12.1420   33.2740 C.3       9 GLL5        0.0000 
     28 N          20.3270   16.9475   34.4865 N.am      2 SEC2        0.0000 
     29 N          21.6180   16.1930   34.0050 N.am      8 SEL2        0.0000 
     30 N          19.0360   17.7020   34.9680 N.am      5 SEP2        0.0000 
     31 CA         24.0875   14.1490   26.5590 C.3       3 GLC5        0.0000 
     32 CA         23.9010   14.7550   28.5320 C.3       9 GLL5        0.0000 
     33 CA         24.2740   13.5430   24.5860 C.3       6 GLP5        0.0000 
     34 N          24.3945   15.5090   25.5710 N.am      2 SEC2        0.0000 
     35 N          25.0470   16.1710   26.6600 N.am      8 SEL2        0.0000 
     36 N          23.7420   14.8470   24.4820 N.am      5 SEP2        0.0000 
     37 CA         23.5375    4.7955   29.4350 C.3       3 GLC5        0.0000 
     38 CA         23.6040    6.4800   30.5670 C.3       9 GLL5        0.0000 
     39 CA         23.1020    3.6400   27.9070 C.3       6 GLP5        0.0000 
     40 CA         21.5358    7.3827   29.7845 C.3       3 GLC5        0.0000 
     41 CA         19.9840    7.9390   28.5680 C.3       6 GLP5        0.0000 
     42 CA         22.9853    7.5505   33.6292 C.3       3 GLC5        0.0000 
     43 CA         22.5710    7.1730   31.4350 C.3       9 GLL5        0.0000 
     44 CA         23.4430    7.2750   35.6730 C.3       6 GLP5        0.0000 
     45 CA         19.3257    9.8815   31.9440 C.3       3 GLC5        0.0000 
     46 CA         21.3360    8.6340   32.5910 C.3       9 GLL5        0.0000 
     47 CA         17.6480   10.6090   30.9590 C.3       6 GLP5        0.0000 
     48 CA         19.4393    8.3648   35.8285 C.3       3 GLC5        0.0000 
     49 CA         19.5590    7.9910   37.5930 C.3       6 GLP5        0.0000 
     50 CA         18.4838    9.6738   32.5115 C.3       3 GLC5        0.0000 
     51 CA         22.1714    7.7645   34.2555 C.3       3 GLC5        0.0000 
     52 CA         20.6685    7.9471   30.5116 C.3       3 GLC5        0.0000 
     53 CA         21.6031   10.5702   35.2060 C.3       3 GLC5        0.0000 
     54 CA         20.6710    9.6740   33.2670 C.3       9 GLL5        0.0000 
     55 CA         22.5930   10.8240   36.9840 C.3       6 GLP5        0.0000 
     56 CA         22.6898   12.6758   34.7645 C.3       3 GLC5        0.0000 
     57 CA         22.4750   11.4340   33.1340 C.3       9 GLL5        0.0000 
     58 CA         22.6970   13.2570   36.4160 C.3       6 GLP5        0.0000 
     59 CA         20.0905   12.0500   31.4298 C.3       3 GLC5        0.0000 
     60 CA         20.5990   13.4670   33.2380 C.3       9 GLL5        0.0000 
     61 CA         19.5510   11.5560   29.6200 C.3       6 GLP5        0.0000 
     62 CA         21.7162   13.0685   34.8237 C.3       3 GLC5        0.0000 
@<TRIPOS>BOND
@<TRIPOS>SUBSTRUCTURE
     1 ALC1       20 GROUP        1 X    ALC  0     ROOT ALC X 1
     2 SEC2       12 GROUP        1 X    SEC  0     **** SEC X 2
     3 GLC5        1 GROUP        1 X    GLC  0     **** GLC X 6
     4 ALP1       22 GROUP        1 Y    ALP  0     ROOT ALP Y 8
     5 SEP2       14 GROUP        1 Y    SEP  0     **** SEP Y 9
     6 GLP5        3 GROUP        1 Y    GLP  0     **** GLP Y 13
     7 ALL1       21 GROUP        1 Z    ALL  0     ROOT ALL Z 15
     8 SEL2       13 GROUP        1 Z    SEL  0     **** SEL Z 16
     9 GLL5        2 GROUP        1 Z    GLL  0     **** GLL Z 20
@<TRIPOS>SET

