#    Name: 4awi_AQ2_1_ligand
#    Modification time : Tue Mar 25 06:18:02 2014

@<TRIPOS>MOLECULE
4awi_AQ2_1_ligand
   55    58     1     0     0
SMALL
NO_CHARGES


@<TRIPOS>ATOM
      1 C01        24.5540    7.4680   29.9190 C.3       1 AQ21365     0.0000 
      2 C02        23.6040    6.4800   30.5670 C.3       1 AQ21365     0.0000 
      3 C03        24.3420    5.4220   31.3590 C.3       1 AQ21365     0.0000 
      4 C04        22.5710    7.1730   31.4350 C.2       1 AQ21365     0.0000 
      5 C05        22.4840    8.4790   31.7360 C.2       1 AQ21365     0.0000 
      6 C06        21.3360    8.6340   32.5910 C.ar      1 AQ21365     0.0000 
      7 C07        20.6710    9.6740   33.2670 C.ar      1 AQ21365     0.0000 
      8 C08        19.5360    9.3920   34.0290 C.ar      1 AQ21365     0.0000 
      9 C09        19.1030    8.0850   34.0990 C.ar      1 AQ21365     0.0000 
     10 N01        19.7060    7.0610   33.4780 N.ar      1 AQ21365     0.0000 
     11 C10        20.7960    7.3540   32.7470 C.ar      1 AQ21365     0.0000 
     12 N02        21.5620    6.4670   32.0380 N.pl3     1 AQ21365     0.0000 
     13 C11        21.1230   11.1000   33.2080 C.ar      1 AQ21365     0.0000 
     14 C12        22.4750   11.4340   33.1340 C.ar      1 AQ21365     0.0000 
     15 C13        22.8900   12.7550   33.0920 C.ar      1 AQ21365     0.0000 
     16 C14        21.9450   13.7690   33.1400 C.ar      1 AQ21365     0.0000 
     17 C15        20.5990   13.4670   33.2380 C.ar      1 AQ21365     0.0000 
     18 C16        20.1990   12.1420   33.2740 C.ar      1 AQ21365     0.0000 
     19 S01        22.4590   15.4570   33.1110 S.o2      1 AQ21365     0.0000 
     20 O01        23.8790   15.4870   33.2930 O.2       1 AQ21365     0.0000 
     21 O02        21.6180   16.1930   34.0050 O.2       1 AQ21365     0.0000 
     22 N1         22.1540   16.0440   31.6400 N.pl3     1 AQ21365     0.0000 
     23 C17        23.1410   16.0280   30.5520 C.3       1 AQ21365     0.0000 
     24 C18        22.8200   14.8950   29.5940 C.3       1 AQ21365     0.0000 
     25 C19        23.9010   14.7550   28.5320 C.3       1 AQ21365     0.0000 
     26 S          23.9210   16.2210   27.5520 S.o2      1 AQ21365     0.0000 
     27 O03        25.0470   16.1710   26.6600 O.2       1 AQ21365     0.0000 
     28 O1         22.6150   16.4240   26.9860 O.2       1 AQ21365     0.0000 
     29 C20        24.2120   17.4570   28.7750 C.3       1 AQ21365     0.0000 
     30 C1         23.1240   17.3680   29.8390 C.3       1 AQ21365     0.0000 
     31 H          23.0561    5.9619   29.7563 H         1 AQ21365     0.0000 
     32 H          23.0335    9.1941   31.4708 H         1 AQ21365     0.0000 
     33 H          19.0459   10.1383   34.5178 H         1 AQ21365     0.0000 
     34 H          18.2342    7.8926   34.6867 H         1 AQ21365     0.0000 
     35 H          21.4196    5.5263   31.9745 H         1 AQ21365     0.0000 
     36 H          23.1818   10.6742   33.1101 H         1 AQ21365     0.0000 
     37 H          23.8884   12.9823   33.0259 H         1 AQ21365     0.0000 
     38 H          19.9012   14.2190   33.2837 H         1 AQ21365     0.0000 
     39 H          19.1879   11.9146   33.3519 H         1 AQ21365     0.0000 
     40 H          21.2332   16.4243   31.5205 H         1 AQ21365     0.0000 
     41 H          24.1287   15.8668   30.9588 H         1 AQ21365     0.0000 
     42 H          21.8626   15.0915   29.1085 H         1 AQ21365     0.0000 
     43 H          22.7411   13.9604   30.1519 H         1 AQ21365     0.0000 
     44 H          23.6992   13.9883   27.8293 H         1 AQ21365     0.0000 
     45 H          24.8796   14.7116   28.9355 H         1 AQ21365     0.0000 
     46 H          24.1842   18.3639   28.2258 H         1 AQ21365     0.0000 
     47 H          25.1771   17.2201   29.1455 H         1 AQ21365     0.0000 
     48 H          23.2717   18.1692   30.5697 H         1 AQ21365     0.0000 
     49 H          22.1481   17.5145   29.3660 H         1 AQ21365     0.0000 
     50 H          25.1144    7.9437   30.5970 H         1 AQ21365     0.0000 
     51 H          25.1816    7.0178   29.2838 H         1 AQ21365     0.0000 
     52 H          24.0642    8.1685   29.4001 H         1 AQ21365     0.0000 
     53 H          24.9673    4.8956   30.7829 H         1 AQ21365     0.0000 
     54 H          24.8882    5.8224   32.0948 H         1 AQ21365     0.0000 
     55 H          23.7137    4.7692   31.7823 H         1 AQ21365     0.0000 
@<TRIPOS>BOND
     1    2    1 1    
     2   50    1 1    
     3   51    1 1    
     4   52    1 1    
     5    3    2 1    
     6    4    2 1    
     7   31    2 1    
     8   53    3 1    
     9   54    3 1    
    10   55    3 1    
    11    5    4 2    
    12   12    4 1    
    13    6    5 1    
    14   32    5 1    
    15    7    6 ar   
    16   11    6 ar   
    17    8    7 ar   
    18   13    7 1    
    19    9    8 ar   
    20   33    8 1    
    21   10    9 ar   
    22   34    9 1    
    23   11   10 ar   
    24   12   11 1    
    25   35   12 1    
    26   14   13 ar   
    27   18   13 ar   
    28   15   14 ar   
    29   36   14 1    
    30   16   15 ar   
    31   37   15 1    
    32   17   16 ar   
    33   19   16 1    
    34   18   17 ar   
    35   38   17 1    
    36   39   18 1    
    37   20   19 2    
    38   21   19 2    
    39   22   19 1    
    40   23   22 1    
    41   40   22 1    
    42   24   23 1    
    43   30   23 1    
    44   41   23 1    
    45   25   24 1    
    46   42   24 1    
    47   43   24 1    
    48   26   25 1    
    49   44   25 1    
    50   45   25 1    
    51   27   26 2    
    52   28   26 2    
    53   29   26 1    
    54   30   29 1    
    55   46   29 1    
    56   47   29 1    
    57   48   30 1    
    58   49   30 1    
@<TRIPOS>SUBSTRUCTURE
     1 AQ21365     1 GROUP   
@<TRIPOS>SET

