#    Name: 1jkx_138_3_INTS_M
#    Modification time : Tue Mar 25 09:01:05 2014

@<TRIPOS>MOLECULE
1jkx_138_3_INTS_M
  104     0    12     0     0
SMALL
NO_CHARGES


@<TRIPOS>ATOM
      1 N          62.1425   34.4120   64.8980 N.am      2 SEC2        0.0000 
      2 N          62.5770   35.5800   64.0560 N.am     10 SEL2        0.0000 
      3 N          61.7080   33.2440   65.7400 N.am      6 SEP2        0.0000 
      4 CA         60.9690   35.4355   64.5715 C.3       4 GLC5        0.0000 
      5 CA         61.9260   35.9440   62.8520 C.3      12 GLL5        0.0000 
      6 CA         60.0120   34.9270   66.2910 C.3       8 GLP5        0.0000 
      7 CA         59.8465   36.2150   62.7745 C.3       4 GLC5        0.0000 
      8 CA         57.7670   36.4860   62.6970 C.3       8 GLP5        0.0000 
      9 CA         61.2385   37.7750   62.5195 C.3       4 GLC5        0.0000 
     10 CA         60.5510   39.6060   62.1870 C.3       8 GLP5        0.0000 
     11 O          60.1310   34.3195   63.1905 O.2       1 ALC1        0.0000 
     12 O          60.5480   35.5240   62.5990 O.2       9 ALL1        0.0000 
     13 O          59.7140   33.1150   63.7820 O.2       5 ALP1        0.0000 
     14 CA         62.2480   38.3750   62.1410 C.3       4 GLC5        0.0000 
     15 CA         63.9450   37.1440   62.0950 C.3      12 GLL5        0.0000 
     16 CA         62.6295   35.5635   66.5310 C.3       4 GLC5        0.0000 
     17 CA         64.5790   35.6140   65.5210 C.3      12 GLL5        0.0000 
     18 CA         60.6800   35.5130   67.5410 C.3       8 GLP5        0.0000 
     19 CA         71.6615   36.0225   66.1180 C.3       4 GLC5        0.0000 
     20 CA         70.6820   36.6760   64.6280 C.3      12 GLL5        0.0000 
     21 CA         72.6410   35.3690   67.6080 C.3       8 GLP5        0.0000 
     22 CA         71.6830   34.9385   64.0920 C.3       4 GLC5        0.0000 
     23 CA         72.6840   33.2010   63.5560 C.3       8 GLP5        0.0000 
     24 CA         67.5625   32.5945   67.5480 C.3       4 GLC5        0.0000 
     25 CA         69.3050   32.9350   66.1820 C.3      12 GLL5        0.0000 
     26 CA         65.8200   32.2540   68.9140 C.3       8 GLP5        0.0000 
     27 O          68.4405   31.1265   68.0175 O.2       1 ALC1        0.0000 
     28 O          68.3020   30.1760   66.8520 O.2       9 ALL1        0.0000 
     29 O          68.5790   32.0770   69.1830 O.2       5 ALP1        0.0000 
     30 NZ         65.0055   26.5900   67.2285 N.4       3 LYC4        0.0000 
     31 NZ         66.4660   27.0010   67.4960 N.4      11 LYL4        0.0000 
     32 NZ         62.7150   27.2070   66.8380 N.4       7 LYP4        0.0000 
     33 N          65.0055   26.5900   67.2285 N.am      2 SEC2        0.0000 
     34 N          66.4660   27.0010   67.4960 N.am     10 SEL2        0.0000 
     35 N          63.5450   26.1790   66.9610 N.am      6 SEP2        0.0000 
     36 NZ         64.4695   28.8010   67.0405 N.4       3 LYC4        0.0000 
     37 NZ         65.7930   29.1680   66.9930 N.4      11 LYL4        0.0000 
     38 N          64.4695   28.8010   67.0405 N.am      2 SEC2        0.0000 
     39 N          65.7930   29.1680   66.9930 N.am     10 SEL2        0.0000 
     40 N          63.1460   28.4340   67.0880 N.am      6 SEP2        0.0000 
     41 N          65.2580   30.4885   66.8990 N.am      2 SEC2        0.0000 
     42 N          64.7230   31.8090   66.8050 N.am      6 SEP2        0.0000 
     43 NZ         70.4305   29.1060   72.8890 N.4       3 LYC4        0.0000 
     44 NZ         70.4640   28.4680   71.1160 N.4      11 LYL4        0.0000 
     45 NZ         70.3970   29.7440   74.6620 N.4       7 LYP4        0.0000 
     46 N          75.9340   43.6350   69.7610 N.am      2 SEC2        0.0000 
     47 N          75.0810   43.2930   68.4700 N.am     10 SEL2        0.0000 
     48 N          76.7870   43.9770   71.0520 N.am      6 SEP2        0.0000 
     49 O          74.6285   44.2755   67.2490 O.2       1 ALC1        0.0000 
     50 O          75.0810   43.2930   68.4700 O.2       9 ALL1        0.0000 
     51 O          74.1760   45.2580   66.0280 O.2       5 ALP1        0.0000 
     52 O          74.7400   44.5550   68.3080 O.2       1 ALC1        0.0000 
     53 O          74.3990   45.8170   68.1460 O.2       5 ALP1        0.0000 
     54 CA         71.3125   43.4790   67.4555 C.3       4 GLC5        0.0000 
     55 CA         72.9010   42.3080   67.7430 C.3      12 GLL5        0.0000 
     56 CA         69.7240   44.6500   67.1680 C.3       8 GLP5        0.0000 
     57 O          73.6445   44.1210   66.2735 O.2       1 ALC1        0.0000 
     58 O          73.1130   42.9840   66.5190 O.2       9 ALL1        0.0000 
     59 CA         71.6155   40.4650   69.2270 C.3       4 GLC5        0.0000 
     60 CA         73.1260   40.8310   67.6230 C.3      12 GLL5        0.0000 
     61 CA         70.1050   40.0990   70.8310 C.3       8 GLP5        0.0000 
     62 O          70.5925   40.6835   67.2810 O.2       1 ALC1        0.0000 
     63 O          72.0070   40.0760   67.0770 O.2       9 ALL1        0.0000 
     64 O          69.1780   41.2910   67.4850 O.2       5 ALP1        0.0000 
     65 CA         71.1285   37.6540   66.8085 C.3       4 GLC5        0.0000 
     66 CA         70.9070   39.0480   65.1680 C.3      12 GLL5        0.0000 
     67 CA         71.3500   36.2600   68.4490 C.3       8 GLP5        0.0000 
     68 CA         70.9740   40.8205   63.9335 C.3       4 GLC5        0.0000 
     69 CA         71.0410   42.5930   62.6990 C.3       8 GLP5        0.0000 
     70 CA         72.1350   40.1535   64.4690 C.3       4 GLC5        0.0000 
     71 CA         73.3630   41.2590   63.7700 C.3       8 GLP5        0.0000 
     72 N          73.8860   45.0020   73.4700 N.am      2 SEC2        0.0000 
     73 N          72.5480   44.0060   72.9800 N.am     10 SEL2        0.0000 
     74 N          75.2240   45.9980   73.9600 N.am      6 SEP2        0.0000 
     75 N          72.4070   45.3135   73.5700 N.am      2 SEC2        0.0000 
     76 N          72.2660   46.6210   74.1600 N.am      6 SEP2        0.0000 
     77 N          72.6450   44.9025   71.8340 N.am      2 SEC2        0.0000 
     78 N          72.7420   45.7990   70.6880 N.am      6 SEP2        0.0000 
     79 N          74.1035   44.2285   75.0995 N.am      2 SEC2        0.0000 
     80 N          74.8410   43.4270   74.1190 N.am     10 SEL2        0.0000 
     81 N          73.3660   45.0300   76.0800 N.am      6 SEP2        0.0000 
     82 N          75.0325   44.7125   74.0395 N.am      2 SEC2        0.0000 
     83 N          72.8985   42.0295   75.3620 N.am      2 SEC2        0.0000 
     84 N          73.0430   41.7650   73.9510 N.am     10 SEL2        0.0000 
     85 N          72.7540   42.2940   76.7730 N.am      6 SEP2        0.0000 
     86 N          71.9280   40.9195   74.0520 N.am      2 SEC2        0.0000 
     87 N          70.8130   40.0740   74.1530 N.am      6 SEP2        0.0000 
     88 CA         63.6757   37.7208   65.8485 C.3       4 GLC5        0.0000 
     89 CA         63.1020   39.6420   66.7880 C.3       8 GLP5        0.0000 
     90 CA         64.4606   33.9869   65.5102 C.3       4 GLC5        0.0000 
     91 CA         63.8270   32.0630   65.6870 C.3       8 GLP5        0.0000 
     92 CA         70.5675   33.1820   63.6427 C.3       4 GLC5        0.0000 
     93 CA         68.3820   32.4710   63.9030 C.3      12 GLL5        0.0000 
     94 CA         66.9865   31.6773   64.3171 C.3       4 GLC5        0.0000 
     95 CA         65.3590   30.7650   64.1580 C.3       8 GLP5        0.0000 
     96 CA         70.8625   32.8383   64.6292 C.3       4 GLC5        0.0000 
     97 CA         68.7770   32.0160   65.2230 C.3      12 GLL5        0.0000 
     98 CA         69.1277   34.0348   67.7018 C.3       4 GLC5        0.0000 
     99 CA         68.8800   34.4480   69.3850 C.3       8 GLP5        0.0000 
    100 CA         70.9675   33.8778   64.3748 C.3       4 GLC5        0.0000 
    101 CA         69.4460   34.3080   65.8550 C.3      12 GLL5        0.0000 
    102 CA         73.1883   41.4143   65.7265 C.3       4 GLC5        0.0000 
    103 CA         71.8890   40.8067   70.6020 C.3       4 GLC5        0.0000 
    104 CA         73.9760   41.4470   69.6770 C.3      12 GLL5        0.0000 
@<TRIPOS>BOND
@<TRIPOS>SUBSTRUCTURE
     1 ALC1       11 GROUP        1 X    ALC  0     ROOT ALC X 1
     2 SEC2        1 GROUP        1 X    SEC  0     **** SEC X 2
     3 LYC4       30 GROUP        1 X    LYC  0     **** LYC X 4
     4 GLC5        4 GROUP        1 X    GLC  0     **** GLC X 6
     5 ALP1       13 GROUP        1 Y    ALP  0     ROOT ALP Y 8
     6 SEP2        3 GROUP        1 Y    SEP  0     **** SEP Y 9
     7 LYP4       32 GROUP        1 Y    LYP  0     **** LYP Y 11
     8 GLP5        6 GROUP        1 Y    GLP  0     **** GLP Y 13
     9 ALL1       12 GROUP        1 Z    ALL  0     ROOT ALL Z 15
    10 SEL2        2 GROUP        1 Z    SEL  0     **** SEL Z 16
    11 LYL4       31 GROUP        1 Z    LYL  0     **** LYL Z 18
    12 GLL5        5 GROUP        1 Z    GLL  0     **** GLL Z 20
@<TRIPOS>SET

