#    Name: 1jkx_138_3_ligand
#    Modification time : Tue Mar 25 09:01:05 2014

@<TRIPOS>MOLECULE
1jkx_138_3_ligand
   84    87     1     0     0
SMALL
NO_CHARGES


@<TRIPOS>ATOM
      1 N1         62.5770   35.5800   64.0560 N.ar      1 1383221     0.0000 
      2 C2         61.9260   35.9440   62.8520 C.ar      1 1383221     0.0000 
      3 NA2        60.5480   35.5240   62.5990 N.pl3     1 1383221     0.0000 
      4 N3         62.6090   36.7230   61.8860 N.ar      1 1383221     0.0000 
      5 C4         63.9450   37.1440   62.0950 C.ar      1 1383221     0.0000 
      6 O4         64.5810   37.9260   61.0890 O.3       1 1383221     0.0000 
      7 C4A        64.6210   36.7880   63.3010 C.ar      1 1383221     0.0000 
      8 C8A        63.9200   35.9850   64.2970 C.ar      1 1383221     0.0000 
      9 C8         64.5790   35.6140   65.5210 C.ar      1 1383221     0.0000 
     10 C7         65.9390   36.0220   65.7580 C.ar      1 1383221     0.0000 
     11 C6         66.6470   36.8190   64.7570 C.ar      1 1383221     0.0000 
     12 C9         68.1320   37.2620   64.9860 C.3       1 1383221     0.0000 
     13 C10        69.2200   36.3420   64.1900 C.3       1 1383221     0.0000 
     14 OA2        69.1330   36.5390   62.7640 O.3       1 1383221     0.0000 
     15 CA1        70.6820   36.6760   64.6280 C.3       1 1383221     0.0000 
     16 C5         65.9790   37.1940   63.5350 C.ar      1 1383221     0.0000 
     17 C13        68.5200   33.8550   63.5560 C.ar      1 1383221     0.0000 
     18 C12        68.3820   32.4710   63.9030 C.ar      1 1383221     0.0000 
     19 C11        68.7770   32.0160   65.2230 C.ar      1 1383221     0.0000 
     20 C17        68.6390   30.5620   65.6340 C.2       1 1383221     0.0000 
     21 O17        68.9170   29.6980   64.5200 O.2       1 1383221     0.0000 
     22 C16        69.3050   32.9350   66.1820 C.ar      1 1383221     0.0000 
     23 C15        69.4460   34.3080   65.8550 C.ar      1 1383221     0.0000 
     24 C14        69.0560   34.8010   64.5320 C.ar      1 1383221     0.0000 
     25 N          68.3020   30.1760   66.8520 N.am      1 1383221     0.0000 
     26 CA         68.1790   28.7660   67.1710 C.3       1 1383221     0.0000 
     27 C          66.7120   28.3610   67.2070 C.2       1 1383221     0.0000 
     28 O          66.4660   27.0010   67.4960 O.co2     1 1383221     0.0000 
     29 OT         65.7930   29.1680   66.9930 O.co2     1 1383221     0.0000 
     30 CB         68.8830   28.4850   68.5510 C.3       1 1383221     0.0000 
     31 CG         70.4360   28.7120   68.6810 C.3       1 1383221     0.0000 
     32 CD         71.1130   28.4280   70.0310 C.2       1 1383221     0.0000 
     33 OE2        70.4640   28.4680   71.1160 O.co2     1 1383221     0.0000 
     34 OE1        72.3360   28.1570   69.9930 O.co2     1 1383221     0.0000 
     35 C24        73.8120   42.7280   68.8860 C.3       1 1383221     0.0000 
     36 O24        75.0810   43.2930   68.4700 O.3       1 1383221     0.0000 
     37 C23        72.9010   42.3080   67.7430 C.3       1 1383221     0.0000 
     38 O23        73.1130   42.9840   66.5190 O.3       1 1383221     0.0000 
     39 C22        73.1260   40.8310   67.6230 C.3       1 1383221     0.0000 
     40 O26        73.2340   40.4590   68.9710 O.3       1 1383221     0.0000 
     41 C25        73.9760   41.4470   69.6770 C.3       1 1383221     0.0000 
     42 C27        73.3700   41.5820   71.0690 C.3       1 1383221     0.0000 
     43 O28        74.0570   42.5490   71.8470 O.3       1 1383221     0.0000 
     44 N21        72.0070   40.0760   67.0770 N.am      1 1383221     0.0000 
     45 C20        72.1190   39.1870   66.1170 C.2       1 1383221     0.0000 
     46 O20        73.1520   38.4980   65.9860 O.2       1 1383221     0.0000 
     47 C19        70.9070   39.0480   65.1680 C.3       1 1383221     0.0000 
     48 N18        70.8520   38.0880   64.0240 N.4       1 1383221     0.0000 
     49 P29        73.6080   42.8800   73.2850 P.3       1 1383221     0.0000 
     50 O30        72.5480   44.0060   72.9800 O.co2     1 1383221     0.0000 
     51 O31        74.8410   43.4270   74.1190 O.co2     1 1383221     0.0000 
     52 O32        73.0430   41.7650   73.9510 O.co2     1 1383221     0.0000 
     53 H          60.3763   34.5392   62.6251 H         1 1383221     0.0000 
     54 H          59.8906   36.2561   62.4207 H         1 1383221     0.0000 
     55 H          64.0869   35.0664   66.2153 H         1 1383221     0.0000 
     56 H          66.4116   35.7637   66.6098 H         1 1383221     0.0000 
     57 H          68.3738   37.2013   66.0431 H         1 1383221     0.0000 
     58 H          68.2664   38.2842   64.6446 H         1 1383221     0.0000 
     59 H          71.3406   36.0095   64.1687 H         1 1383221     0.0000 
     60 H          70.7275   36.7252   65.6693 H         1 1383221     0.0000 
     61 H          66.4708   37.7451   62.8416 H         1 1383221     0.0000 
     62 H          68.2509   34.1874   62.6423 H         1 1383221     0.0000 
     63 H          68.0121   31.8090   63.2367 H         1 1383221     0.0000 
     64 H          69.5800   32.5975   67.1036 H         1 1383221     0.0000 
     65 H          69.8179   34.9699   66.5288 H         1 1383221     0.0000 
     66 H          68.1126   30.8396   67.6236 H         1 1383221     0.0000 
     67 H          68.6885   28.1646   66.4296 H         1 1383221     0.0000 
     68 H          68.6645   27.4288   68.8400 H         1 1383221     0.0000 
     69 H          68.3782   29.1081   69.3280 H         1 1383221     0.0000 
     70 H          70.6446   29.7708   68.3878 H         1 1383221     0.0000 
     71 H          70.9313   28.0941   67.8913 H         1 1383221     0.0000 
     72 H          73.2448   43.4122   69.5112 H         1 1383221     0.0000 
     73 H          71.8701   42.4323   68.1085 H         1 1383221     0.0000 
     74 H          74.0293   40.6475   67.1126 H         1 1383221     0.0000 
     75 H          74.9967   41.1989   69.7487 H         1 1383221     0.0000 
     76 H          73.3969   40.5828   71.5414 H         1 1383221     0.0000 
     77 H          72.3027   41.8416   70.9430 H         1 1383221     0.0000 
     78 H          71.0696   40.2992   67.5197 H         1 1383221     0.0000 
     79 H          70.6815   40.1032   64.7686 H         1 1383221     0.0000 
     80 H          69.9870   38.8710   65.8360 H         1 1383221     0.0000 
     81 H          65.5293   38.0169   61.3930 H         1 1383221     0.0000 
     82 H          68.9418   37.5137   62.6487 H         1 1383221     0.0000 
     83 H          74.8945   44.2635   68.3174 H         1 1383221     0.0000 
     84 H          73.5237   43.8592   66.7746 H         1 1383221     0.0000 
@<TRIPOS>BOND
     1    2    1 ar   
     2    8    1 ar   
     3    3    2 1    
     4    4    2 ar   
     5   53    3 1    
     6   54    3 1    
     7    5    4 ar   
     8    6    5 1    
     9    7    5 ar   
    10   81    6 1    
    11    8    7 ar   
    12   16    7 ar   
    13    9    8 ar   
    14   10    9 ar   
    15   55    9 1    
    16   11   10 ar   
    17   56   10 1    
    18   12   11 1    
    19   16   11 ar   
    20   13   12 1    
    21   57   12 1    
    22   58   12 1    
    23   14   13 1    
    24   15   13 1    
    25   24   13 1    
    26   82   14 1    
    27   48   15 1    
    28   59   15 1    
    29   60   15 1    
    30   61   16 1    
    31   18   17 ar   
    32   24   17 ar   
    33   62   17 1    
    34   19   18 ar   
    35   63   18 1    
    36   20   19 1    
    37   22   19 ar   
    38   21   20 2    
    39   25   20 am   
    40   23   22 ar   
    41   64   22 1    
    42   24   23 ar   
    43   65   23 1    
    44   26   25 1    
    45   66   25 1    
    46   27   26 1    
    47   30   26 1    
    48   67   26 1    
    49   28   27 ar   
    50   29   27 ar   
    51   31   30 1    
    52   68   30 1    
    53   69   30 1    
    54   32   31 1    
    55   70   31 1    
    56   71   31 1    
    57   33   32 ar   
    58   34   32 ar   
    59   36   35 1    
    60   37   35 1    
    61   41   35 1    
    62   72   35 1    
    63   83   36 1    
    64   38   37 1    
    65   39   37 1    
    66   73   37 1    
    67   84   38 1    
    68   40   39 1    
    69   44   39 1    
    70   74   39 1    
    71   41   40 1    
    72   42   41 1    
    73   75   41 1    
    74   43   42 1    
    75   76   42 1    
    76   77   42 1    
    77   49   43 1    
    78   45   44 am   
    79   78   44 1    
    80   46   45 2    
    81   47   45 1    
    82   48   47 1    
    83   79   47 1    
    84   80   47 1    
    85   50   49 ar   
    86   51   49 ar   
    87   52   49 ar   
@<TRIPOS>SUBSTRUCTURE
     1 1383221     1 GROUP   
@<TRIPOS>SET

