#    Name: 1e7a_PFL_4_INTS_M
#    Modification time : Mon Mar 24 23:11:09 2014

@<TRIPOS>MOLECULE
1e7a_PFL_4_INTS_M
   39     0     6     0     0
SMALL
NO_CHARGES


@<TRIPOS>ATOM
      1 O          74.1320   13.9910   82.0175 O.2       1 ALC1        0.0000 
      2 O          73.3180   14.7270   81.3230 O.2       5 ALL1        0.0000 
      3 O          74.9460   13.2550   82.7120 O.2       3 ALP1        0.0000 
      4 CA         68.0330   12.9805   81.1655 C.3       2 GLC5        0.0000 
      5 CA         70.1150   13.1300   80.4670 C.3       6 GLL5        0.0000 
      6 CA         65.9510   12.8310   81.8640 C.3       4 GLP5        0.0000 
      7 CA         68.3460   14.3905   77.8485 C.3       2 GLC5        0.0000 
      8 CA         69.9570   13.6070   79.1610 C.3       6 GLL5        0.0000 
      9 CA         66.7350   15.1740   76.5360 C.3       4 GLP5        0.0000 
     10 CA         71.6540   16.5270   79.9985 C.3       2 GLC5        0.0000 
     11 CA         73.1210   15.8240   78.7240 C.3       6 GLL5        0.0000 
     12 CA         70.1870   17.2300   81.2730 C.3       4 GLP5        0.0000 
     13 CA         70.8980   10.4420   81.4430 C.3       2 GLC5        0.0000 
     14 CA         71.9460   11.5150   82.6390 C.3       6 GLL5        0.0000 
     15 CA         69.8500    9.3690   80.2470 C.3       4 GLP5        0.0000 
     16 CA         73.3870   10.3610   82.1155 C.3       2 GLC5        0.0000 
     17 CA         74.8280    9.2070   81.5920 C.3       4 GLP5        0.0000 
     18 CA         72.7200   10.9475   84.2735 C.3       2 GLC5        0.0000 
     19 CA         73.4940   10.3800   85.9080 C.3       4 GLP5        0.0000 
     20 CA         68.1695   13.4095   83.2495 C.3       2 GLC5        0.0000 
     21 CA         70.2190   12.9940   83.5300 C.3       6 GLL5        0.0000 
     22 CA         66.1200   13.8250   82.9690 C.3       4 GLP5        0.0000 
     23 CA         71.2775   17.8615   79.5220 C.3       2 GLC5        0.0000 
     24 CA         72.5780   17.2140   78.5630 C.3       6 GLL5        0.0000 
     25 CA         69.9770   18.5090   80.4810 C.3       4 GLP5        0.0000 
     26 CA         73.4710   18.3685   79.8610 C.3       2 GLC5        0.0000 
     27 CA         74.3640   19.5230   81.1590 C.3       4 GLP5        0.0000 
     28 CA         74.9395   16.4115   76.1595 C.3       2 GLC5        0.0000 
     29 CA         73.6280   15.3040   77.3920 C.3       6 GLL5        0.0000 
     30 CA         76.2510   17.5190   74.9270 C.3       4 GLP5        0.0000 
     31 CA         70.9565   15.5723   81.1050 C.3       2 GLC5        0.0000 
     32 CA         72.1850   14.3780   80.6410 C.3       6 GLL5        0.0000 
     33 CA         73.1875   14.2577   81.9910 C.3       2 GLC5        0.0000 
     34 CA         74.6490   14.6010   83.0450 C.3       4 GLP5        0.0000 
     35 CA         70.8317   15.9477   80.1195 C.3       2 GLC5        0.0000 
     36 CA         72.0680   14.8500   79.3180 C.3       6 GLL5        0.0000 
     37 CA         70.1115   15.2993   80.5435 C.3       2 GLC5        0.0000 
     38 CA         73.1780   13.4145   82.8493 C.3       2 GLC5        0.0000 
     39 CA         71.4680   12.9410   82.6680 C.3       6 GLL5        0.0000 
@<TRIPOS>BOND
@<TRIPOS>SUBSTRUCTURE
     1 ALC1        1 GROUP        1 X    ALC  0     ROOT ALC X 1
     2 GLC5        4 GROUP        1 X    GLC  0     **** GLC X 6
     3 ALP1        3 GROUP        1 Y    ALP  0     ROOT ALP Y 8
     4 GLP5        6 GROUP        1 Y    GLP  0     **** GLP Y 13
     5 ALL1        2 GROUP        1 Z    ALL  0     ROOT ALL Z 15
     6 GLL5        5 GROUP        1 Z    GLL  0     **** GLL Z 20
@<TRIPOS>SET

