#    Name: 1e7a_PFL_4_ligand
#    Modification time : Mon Mar 24 23:11:09 2014

@<TRIPOS>MOLECULE
1e7a_PFL_4_ligand
   31    31     1     0     0
SMALL
NO_CHARGES


@<TRIPOS>ATOM
      1 O1         73.3180   14.7270   81.3230 O.3       1 PFL4002     0.0000 
      2 C1         72.1850   14.3780   80.6410 C.ar      1 PFL4002     0.0000 
      3 C2         71.2670   13.4510   81.2330 C.ar      1 PFL4002     0.0000 
      4 C6         72.0680   14.8500   79.3180 C.ar      1 PFL4002     0.0000 
      5 C3         70.1150   13.1300   80.4670 C.ar      1 PFL4002     0.0000 
      6 C7         71.4680   12.9410   82.6680 C.3       1 PFL4002     0.0000 
      7 C4         69.9570   13.6070   79.1610 C.ar      1 PFL4002     0.0000 
      8 C5         70.8850   14.4810   78.6140 C.ar      1 PFL4002     0.0000 
      9 C10        73.1210   15.8240   78.7240 C.3       1 PFL4002     0.0000 
     10 C8         71.9460   11.5150   82.6390 C.3       1 PFL4002     0.0000 
     11 C9         70.2190   12.9940   83.5300 C.3       1 PFL4002     0.0000 
     12 C11        72.5780   17.2140   78.5630 C.3       1 PFL4002     0.0000 
     13 C12        73.6280   15.3040   77.3920 C.3       1 PFL4002     0.0000 
     14 H          69.3874   12.5345   80.8886 H         1 PFL4002     0.0000 
     15 H          72.2424   13.5409   83.1433 H         1 PFL4002     0.0000 
     16 H          69.1433   13.3035   78.6057 H         1 PFL4002     0.0000 
     17 H          70.7296   14.8833   77.6738 H         1 PFL4002     0.0000 
     18 H          73.9657   15.8525   79.4165 H         1 PFL4002     0.0000 
     19 H          72.8142   11.4242   82.1511 H         1 PFL4002     0.0000 
     20 H          72.0880   11.1521   83.5599 H         1 PFL4002     0.0000 
     21 H          71.2899   10.9125   82.1845 H         1 PFL4002     0.0000 
     22 H          70.3911   12.6540   84.4545 H         1 PFL4002     0.0000 
     23 H          69.8698   13.9266   83.6210 H         1 PFL4002     0.0000 
     24 H          69.4796   12.4403   83.1470 H         1 PFL4002     0.0000 
     25 H          73.2599   17.8370   78.1798 H         1 PFL4002     0.0000 
     26 H          71.7861   17.2350   77.9527 H         1 PFL4002     0.0000 
     27 H          72.2849   17.6018   79.4369 H         1 PFL4002     0.0000 
     28 H          74.3091   15.9156   76.9895 H         1 PFL4002     0.0000 
     29 H          74.0581   14.4058   77.4833 H         1 PFL4002     0.0000 
     30 H          72.8891   15.2087   76.7250 H         1 PFL4002     0.0000 
     31 H          73.8905   13.9072   81.3101 H         1 PFL4002     0.0000 
@<TRIPOS>BOND
     1    2    1 1    
     2   31    1 1    
     3    3    2 ar   
     4    4    2 ar   
     5    5    3 ar   
     6    6    3 1    
     7    8    4 ar   
     8    9    4 1    
     9    7    5 ar   
    10   14    5 1    
    11   10    6 1    
    12   11    6 1    
    13   15    6 1    
    14    8    7 ar   
    15   16    7 1    
    16   17    8 1    
    17   12    9 1    
    18   13    9 1    
    19   18    9 1    
    20   19   10 1    
    21   20   10 1    
    22   21   10 1    
    23   22   11 1    
    24   23   11 1    
    25   24   11 1    
    26   25   12 1    
    27   26   12 1    
    28   27   12 1    
    29   28   13 1    
    30   29   13 1    
    31   30   13 1    
@<TRIPOS>SUBSTRUCTURE
     1 PFL4002     1 GROUP   
@<TRIPOS>SET

