#    Name: 3u4c_NDP_1_INTS_M
#    Modification time : Mon Mar 24 21:36:20 2014

@<TRIPOS>MOLECULE
3u4c_NDP_1_INTS_M
  118     0    12     0     0
SMALL
NO_CHARGES


@<TRIPOS>ATOM
      1 NZ        -21.4755   15.1750   19.6860 N.4       3 LYC4        0.0000 
      2 NZ        -21.1430   16.5920   19.0370 N.4      11 LYL4        0.0000 
      3 NZ        -21.5320   13.0970   19.2180 N.4       7 LYP4        0.0000 
      4 N         -21.3485   15.1595   18.5420 N.am      2 SEC2        0.0000 
      5 N         -21.1430   16.5920   19.0370 N.am     10 SEL2        0.0000 
      6 N         -21.5540   13.7270   18.0470 N.am      6 SEP2        0.0000 
      7 N         -21.4755   15.1750   19.6860 N.am      2 SEC2        0.0000 
      8 N         -21.8080   13.7580   20.3350 N.am      6 SEP2        0.0000 
      9 CA        -24.4375   16.2675   20.2585 C.3       4 GLC5        0.0000 
     10 CA        -23.8980   18.1310   19.6800 C.3      12 GLL5        0.0000 
     11 CA        -24.9770   14.4040   20.8370 C.3       8 GLP5        0.0000 
     12 CA        -26.4060   19.9015   20.6205 C.3       4 GLC5        0.0000 
     13 CA        -24.6070   19.2760   20.3570 C.3      12 GLL5        0.0000 
     14 CA        -28.2050   20.5270   20.8840 C.3       8 GLP5        0.0000 
     15 CA        -22.3680   21.0865   20.7010 C.3       4 GLC5        0.0000 
     16 CA        -23.7300   19.9980   21.2870 C.3      12 GLL5        0.0000 
     17 CA        -21.0060   22.1750   20.1150 C.3       8 GLP5        0.0000 
     18 N         -24.8375   22.8025   20.9600 N.am      2 SEC2        0.0000 
     19 N         -24.0420   21.3360   21.1740 N.am     10 SEL2        0.0000 
     20 N         -25.6330   24.2690   20.7460 N.am      6 SEP2        0.0000 
     21 N         -23.6200   22.4440   21.9140 N.am      2 SEC2        0.0000 
     22 N         -23.1980   23.5520   22.6540 N.am      6 SEP2        0.0000 
     23 N         -23.6480   22.5940   20.3315 N.am      2 SEC2        0.0000 
     24 N         -23.2540   23.8520   19.4890 N.am      6 SEP2        0.0000 
     25 N         -23.5685   22.0560   23.0815 N.am      2 SEC2        0.0000 
     26 N         -23.9390   20.5600   23.5090 N.am     10 SEL2        0.0000 
     27 CA        -26.8610   19.8390   21.6590 C.3       4 GLC5        0.0000 
     28 CA        -25.5170   19.1510   22.4340 C.3      12 GLL5        0.0000 
     29 CA        -26.1115   21.0090   23.3810 C.3       4 GLC5        0.0000 
     30 CA        -26.7060   22.8670   24.3280 C.3       8 GLP5        0.0000 
     31 CA        -29.4690   16.9085   27.1070 C.3       4 GLC5        0.0000 
     32 CA        -28.3350   16.4400   25.2340 C.3      12 GLL5        0.0000 
     33 CA        -30.6030   17.3770   28.9800 C.3       8 GLP5        0.0000 
     34 CA        -28.9785   14.9380   23.7740 C.3       4 GLC5        0.0000 
     35 CA        -29.6220   13.4360   22.3140 C.3       8 GLP5        0.0000 
     36 O         -29.2505   14.9540   27.0365 O.2       1 ALC1        0.0000 
     37 O         -28.3990   15.1560   25.8800 O.2       9 ALL1        0.0000 
     38 O         -30.1020   14.7520   28.1930 O.2       5 ALP1        0.0000 
     39 N         -30.6305   17.1715   26.1520 N.am      2 SEC2        0.0000 
     40 N         -29.3390   17.3300   25.3510 N.am     10 SEL2        0.0000 
     41 N         -31.9220   17.0130   26.9530 N.am      6 SEP2        0.0000 
     42 CA        -28.7340   19.5370   22.8085 C.3       4 GLC5        0.0000 
     43 CA        -29.2630   18.5470   24.7330 C.3      12 GLL5        0.0000 
     44 CA        -28.6475   20.4765   24.8395 C.3       4 GLC5        0.0000 
     45 CA        -28.0320   22.4060   24.9460 C.3       8 GLP5        0.0000 
     46 CA        -28.1380   18.4980   26.4365 C.3       4 GLC5        0.0000 
     47 CA        -27.0130   18.4490   28.1400 C.3       8 GLP5        0.0000 
     48 CA        -31.1815   17.8635   24.7620 C.3       4 GLC5        0.0000 
     49 CA        -33.1000   17.1800   24.7910 C.3       8 GLP5        0.0000 
     50 CA        -27.6765   19.2460   22.3780 C.3       4 GLC5        0.0000 
     51 CA        -27.1480   17.9650   23.8720 C.3      12 GLL5        0.0000 
     52 N         -22.2440   15.2550   17.6655 N.am      2 SEC2        0.0000 
     53 N         -22.9340   16.7830   17.2840 N.am     10 SEL2        0.0000 
     54 N         -20.5240   16.7595   14.6865 N.am      2 SEC2        0.0000 
     55 N         -21.6680   16.2240   15.0870 N.am     10 SEL2        0.0000 
     56 N         -19.3800   17.2950   14.2860 N.am      6 SEP2        0.0000 
     57 N         -23.5015   19.5345   14.6180 N.am      2 SEC2        0.0000 
     58 N         -23.1590   18.1960   15.2000 N.am     10 SEL2        0.0000 
     59 N         -23.8440   20.8730   14.0360 N.am      6 SEP2        0.0000 
     60 CA        -25.4960   17.8885   14.1545 C.3       4 GLC5        0.0000 
     61 CA        -25.5190   16.2580   15.5240 C.3      12 GLL5        0.0000 
     62 CA        -25.4730   19.5190   12.7850 C.3       8 GLP5        0.0000 
     63 CA        -26.1710   13.2850   17.9155 C.3       4 GLC5        0.0000 
     64 CA        -26.2450   14.0020   16.0410 C.3      12 GLL5        0.0000 
     65 CA        -26.0970   12.5680   19.7900 C.3       8 GLP5        0.0000 
     66 N         -28.0840   12.0050   16.1690 N.am      2 SEC2        0.0000 
     67 N         -27.4690   13.4640   16.3300 N.am     10 SEL2        0.0000 
     68 N         -28.6990   10.5460   16.0080 N.am      6 SEP2        0.0000 
     69 O         -28.0605   13.1200   17.5785 O.2       1 ALC1        0.0000 
     70 O         -27.4690   13.4640   16.3300 O.2       9 ALL1        0.0000 
     71 O         -28.6520   12.7760   18.8270 O.2       5 ALP1        0.0000 
     72 CA        -23.3360   13.0580   16.0395 C.3       4 GLC5        0.0000 
     73 CA        -25.4230   13.0210   15.3100 C.3      12 GLL5        0.0000 
     74 CA        -21.2490   13.0950   16.7690 C.3       8 GLP5        0.0000 
     75 CA        -27.3250   14.3760   13.2900 C.3       4 GLC5        0.0000 
     76 CA        -25.7840   13.2850   13.9030 C.3      12 GLL5        0.0000 
     77 CA        -28.8660   15.4670   12.6770 C.3       8 GLP5        0.0000 
     78 CA        -26.1145   13.9150   11.8615 C.3       4 GLC5        0.0000 
     79 CA        -26.4450   14.5450    9.8200 C.3       8 GLP5        0.0000 
     80 CA        -24.1590   15.5035   12.1135 C.3       4 GLC5        0.0000 
     81 CA        -23.6040   13.6120   12.7550 C.3      12 GLL5        0.0000 
     82 CA        -24.7140   17.3950   11.4720 C.3       8 GLP5        0.0000 
     83 CA        -25.0245   14.0785   11.2875 C.3       4 GLC5        0.0000 
     84 O         -21.0225   12.4770    9.4790 O.2       1 ALC1        0.0000 
     85 O         -20.5530   13.3120   10.7230 O.2       9 ALL1        0.0000 
     86 O         -21.4920   11.6420    8.2350 O.2       5 ALP1        0.0000 
     87 CA        -25.6795   13.1085   11.0590 C.3       4 GLC5        0.0000 
     88 CA        -24.9140   11.6720   12.2980 C.3      12 GLL5        0.0000 
     89 NZ        -25.0875   18.6455   26.2980 N.4       3 LYC4        0.0000 
     90 NZ        -25.1400   19.8470   25.5460 N.4      11 LYL4        0.0000 
     91 NZ        -24.0710   16.5560   26.8190 N.4       7 LYP4        0.0000 
     92 N         -26.0835   20.5570   26.2130 N.am      2 SEC2        0.0000 
     93 N         -25.1400   19.8470   25.5460 N.am     10 SEL2        0.0000 
     94 N         -27.0270   21.2670   26.8800 N.am      6 SEP2        0.0000 
     95 N         -25.0875   18.6455   26.2980 N.am      2 SEC2        0.0000 
     96 N         -25.0350   17.4440   27.0500 N.am      6 SEP2        0.0000 
     97 NZ        -22.9175   18.1160   25.6970 N.4       3 LYC4        0.0000 
     98 NZ        -22.7740   19.3750   25.3840 N.4      11 LYL4        0.0000 
     99 N         -23.9045   18.4095   26.2170 N.am      2 SEC2        0.0000 
    100 N         -22.7740   19.3750   25.3840 N.am     10 SEL2        0.0000 
    101 N         -22.9175   18.1160   25.6970 N.am      2 SEC2        0.0000 
    102 N         -23.0610   16.8570   26.0100 N.am      6 SEP2        0.0000 
    103 N         -24.6795   22.6070   25.4735 N.am      2 SEC2        0.0000 
    104 N         -23.5150   21.7590   25.6590 N.am     10 SEL2        0.0000 
    105 N         -25.8440   23.4550   25.2880 N.am      6 SEP2        0.0000 
    106 N         -24.2125   22.1490   27.0055 N.am      2 SEC2        0.0000 
    107 N         -24.9100   22.5390   28.3520 N.am      6 SEP2        0.0000 
    108 CA        -26.8317   15.9965   22.6055 C.3       4 GLC5        0.0000 
    109 CA        -27.2250   16.7510   24.4880 C.3      12 GLL5        0.0000 
    110 CA        -26.4770   14.6350   21.0310 C.3       8 GLP5        0.0000 
    111 CA        -26.8165   17.2426   26.1527 C.3       4 GLC5        0.0000 
    112 CA        -26.1690   17.2050   27.9390 C.3       8 GLP5        0.0000 
    113 CA        -27.4138   15.5768   13.9925 C.3       4 GLC5        0.0000 
    114 CA        -26.0598   10.4275   10.9497 C.3       4 GLC5        0.0000 
    115 CA        -23.9410   11.2180   11.3970 C.3      12 GLL5        0.0000 
    116 CA        -27.6920    9.4100   10.0520 C.3       8 GLP5        0.0000 
    117 CA        -24.2645   13.1601   10.2061 C.3       4 GLC5        0.0000 
    118 CA        -25.2020   14.4280    8.9520 C.3       8 GLP5        0.0000 
@<TRIPOS>BOND
@<TRIPOS>SUBSTRUCTURE
     1 ALC1       36 GROUP        1 X    ALC  0     ROOT ALC X 1
     2 SEC2        4 GROUP        1 X    SEC  0     **** SEC X 2
     3 LYC4        1 GROUP        1 X    LYC  0     **** LYC X 4
     4 GLC5        9 GROUP        1 X    GLC  0     **** GLC X 6
     5 ALP1       38 GROUP        1 Y    ALP  0     ROOT ALP Y 8
     6 SEP2        6 GROUP        1 Y    SEP  0     **** SEP Y 9
     7 LYP4        3 GROUP        1 Y    LYP  0     **** LYP Y 11
     8 GLP5       11 GROUP        1 Y    GLP  0     **** GLP Y 13
     9 ALL1       37 GROUP        1 Z    ALL  0     ROOT ALL Z 15
    10 SEL2        5 GROUP        1 Z    SEL  0     **** SEL Z 16
    11 LYL4        2 GROUP        1 Z    LYL  0     **** LYL Z 18
    12 GLL5       10 GROUP        1 Z    GLL  0     **** GLL Z 20
@<TRIPOS>SET

