#    Name: 3u4c_NDP_1_ligand
#    Modification time : Mon Mar 24 21:36:20 2014

@<TRIPOS>MOLECULE
3u4c_NDP_1_ligand
   74    78     1     0     0
SMALL
NO_CHARGES


@<TRIPOS>ATOM
      1 PA        -21.8580   17.5830   18.1460 P.3       1 NDP262      0.0000 
      2 O1A       -20.8720   18.3510   17.3080 O.co2     1 NDP262      0.0000 
      3 O2A       -21.1430   16.5920   19.0370 O.co2     1 NDP262      0.0000 
      4 O5B       -22.6960   18.5600   19.0740 O.3       1 NDP262      0.0000 
      5 C5B       -23.8980   18.1310   19.6800 C.3       1 NDP262      0.0000 
      6 C4B       -24.6070   19.2760   20.3570 C.3       1 NDP262      0.0000 
      7 O4B       -25.7000   18.8100   21.1050 O.3       1 NDP262      0.0000 
      8 C3B       -23.7300   19.9980   21.2870 C.3       1 NDP262      0.0000 
      9 O3B       -24.0420   21.3360   21.1740 O.3       1 NDP262      0.0000 
     10 C2B       -24.1000   19.5190   22.6310 C.3       1 NDP262      0.0000 
     11 O2B       -23.9390   20.5600   23.5090 O.3       1 NDP262      0.0000 
     12 C1B       -25.5170   19.1510   22.4340 C.3       1 NDP262      0.0000 
     13 N9A       -25.9550   18.0160   23.2220 N.pl3     1 NDP262      0.0000 
     14 C8A       -25.3010   16.8410   23.4250 C.2       1 NDP262      0.0000 
     15 N7A       -26.0910   16.0550   24.2160 N.2       1 NDP262      0.0000 
     16 C5A       -27.2250   16.7510   24.4880 C.ar      1 NDP262      0.0000 
     17 C6A       -28.3350   16.4400   25.2340 C.ar      1 NDP262      0.0000 
     18 N6A       -28.3990   15.1560   25.8800 N.pl3     1 NDP262      0.0000 
     19 N1A       -29.3390   17.3300   25.3510 N.ar      1 NDP262      0.0000 
     20 C2A       -29.2630   18.5470   24.7330 C.ar      1 NDP262      0.0000 
     21 N3A       -28.1540   18.8640   23.9860 N.ar      1 NDP262      0.0000 
     22 C4A       -27.1480   17.9650   23.8720 C.ar      1 NDP262      0.0000 
     23 O3        -22.9340   16.7830   17.2840 O.3       1 NDP262      0.0000 
     24 PN        -22.9340   16.7800   15.6920 P.3       1 NDP262      0.0000 
     25 O1N       -21.6680   16.2240   15.0870 O.co2     1 NDP262      0.0000 
     26 O2N       -23.1590   18.1960   15.2000 O.co2     1 NDP262      0.0000 
     27 O5D       -24.1810   15.8740   15.2790 O.3       1 NDP262      0.0000 
     28 C5D       -25.5190   16.2580   15.5240 C.3       1 NDP262      0.0000 
     29 C4D       -26.4040   15.1150   15.0920 C.3       1 NDP262      0.0000 
     30 O4D       -26.0370   14.6560   13.8180 O.3       1 NDP262      0.0000 
     31 C3D       -26.2450   14.0020   16.0410 C.3       1 NDP262      0.0000 
     32 O3D       -27.4690   13.4640   16.3300 O.3       1 NDP262      0.0000 
     33 C2D       -25.4230   13.0210   15.3100 C.3       1 NDP262      0.0000 
     34 O2D       -25.7590   11.7510   15.7100 O.3       1 NDP262      0.0000 
     35 C1D       -25.7840   13.2850   13.9030 C.3       1 NDP262      0.0000 
     36 N1N       -24.7490   12.8590   12.9730 N.pl3     1 NDP262      0.0000 
     37 C2N       -23.6040   13.6120   12.7550 C.2       1 NDP262      0.0000 
     38 C3N       -22.6220   13.1640   11.8580 C.2       1 NDP262      0.0000 
     39 C7N       -21.3560   13.9650   11.5960 C.2       1 NDP262      0.0000 
     40 O7N       -21.3140   15.1350   12.2780 O.2       1 NDP262      0.0000 
     41 N7N       -20.5530   13.3120   10.7230 N.am      1 NDP262      0.0000 
     42 C4N       -22.8040   11.9690   11.1890 C.3       1 NDP262      0.0000 
     43 C5N       -23.9410   11.2180   11.3970 C.2       1 NDP262      0.0000 
     44 C6N       -24.9140   11.6720   12.2980 C.2       1 NDP262      0.0000 
     45 P2B       -23.8340   20.4010   25.0620 P.3       1 NDP262      0.0000 
     46 O1X       -25.1400   19.8470   25.5460 O.co2     1 NDP262      0.0000 
     47 O2X       -22.7740   19.3750   25.3840 O.co2     1 NDP262      0.0000 
     48 O3X       -23.5150   21.7590   25.6590 O.co2     1 NDP262      0.0000 
     49 H         -23.7148   17.3487   20.4405 H         1 NDP262      0.0000 
     50 H         -24.5934   17.6916   18.9403 H         1 NDP262      0.0000 
     51 H         -24.9455   19.9711   19.5887 H         1 NDP262      0.0000 
     52 H         -22.7253   19.7706   21.0811 H         1 NDP262      0.0000 
     53 H         -23.5355   18.6541   22.8462 H         1 NDP262      0.0000 
     54 H         -26.1394   20.0175   22.6793 H         1 NDP262      0.0000 
     55 H         -24.4422   16.6036   23.0781 H         1 NDP262      0.0000 
     56 H         -29.2215   14.9753   26.4193 H         1 NDP262      0.0000 
     57 H         -27.6157   14.5513   25.7358 H         1 NDP262      0.0000 
     58 H         -30.0345   19.2279   24.8252 H         1 NDP262      0.0000 
     59 H         -25.8027   17.1430   14.9534 H         1 NDP262      0.0000 
     60 H         -25.7033   16.4507   16.5815 H         1 NDP262      0.0000 
     61 H         -27.4284   15.4500   15.1146 H         1 NDP262      0.0000 
     62 H         -25.7045   14.3439   16.8899 H         1 NDP262      0.0000 
     63 H         -24.3958   13.2730   15.4553 H         1 NDP262      0.0000 
     64 H         -26.7105   12.7275   13.6962 H         1 NDP262      0.0000 
     65 H         -23.4678   14.5037   13.2497 H         1 NDP262      0.0000 
     66 H         -19.6836   13.7567   10.5075 H         1 NDP262      0.0000 
     67 H         -20.9005   12.4429   10.3711 H         1 NDP262      0.0000 
     68 H         -21.8717   11.2960   11.3665 H         1 NDP262      0.0000 
     69 H         -22.6823   12.1580   10.0475 H         1 NDP262      0.0000 
     70 H         -24.0838   10.3320   10.9012 H         1 NDP262      0.0000 
     71 H         -25.7621   11.0992   12.4491 H         1 NDP262      0.0000 
     72 H         -24.9853   21.3546   20.8426 H         1 NDP262      0.0000 
     73 H         -27.6928   13.8056   17.2429 H         1 NDP262      0.0000 
     74 H         -26.6361   11.8513   16.1798 H         1 NDP262      0.0000 
@<TRIPOS>BOND
     1    2    1 ar   
     2    3    1 ar   
     3    4    1 1    
     4   23    1 1    
     5    5    4 1    
     6    6    5 1    
     7   49    5 1    
     8   50    5 1    
     9    7    6 1    
    10    8    6 1    
    11   51    6 1    
    12   12    7 1    
    13    9    8 1    
    14   10    8 1    
    15   52    8 1    
    16   72    9 1    
    17   11   10 1    
    18   12   10 1    
    19   53   10 1    
    20   45   11 1    
    21   13   12 1    
    22   54   12 1    
    23   14   13 1    
    24   22   13 1    
    25   15   14 2    
    26   55   14 1    
    27   16   15 1    
    28   17   16 ar   
    29   22   16 ar   
    30   18   17 1    
    31   19   17 ar   
    32   56   18 1    
    33   57   18 1    
    34   20   19 ar   
    35   21   20 ar   
    36   58   20 1    
    37   22   21 ar   
    38   24   23 1    
    39   25   24 ar   
    40   26   24 ar   
    41   27   24 1    
    42   28   27 1    
    43   29   28 1    
    44   59   28 1    
    45   60   28 1    
    46   30   29 1    
    47   31   29 1    
    48   61   29 1    
    49   35   30 1    
    50   32   31 1    
    51   33   31 1    
    52   62   31 1    
    53   73   32 1    
    54   34   33 1    
    55   35   33 1    
    56   63   33 1    
    57   74   34 1    
    58   36   35 1    
    59   64   35 1    
    60   37   36 1    
    61   44   36 1    
    62   38   37 2    
    63   65   37 1    
    64   39   38 1    
    65   42   38 1    
    66   40   39 2    
    67   41   39 am   
    68   66   41 1    
    69   67   41 1    
    70   43   42 1    
    71   68   42 1    
    72   69   42 1    
    73   44   43 2    
    74   70   43 1    
    75   71   44 1    
    76   46   45 ar   
    77   47   45 ar   
    78   48   45 ar   
@<TRIPOS>SUBSTRUCTURE
     1 NDP262      1 GROUP   
@<TRIPOS>SET

