#    Name: 1pye_PM1_1_INTS_M
#    Modification time : Mon Mar 24 22:27:33 2014

@<TRIPOS>MOLECULE
1pye_PM1_1_INTS_M
   62     0     6     0     0
SMALL
NO_CHARGES


@<TRIPOS>ATOM
      1 CA         12.6545   -6.9870   22.0435 C.3       2 GLC5        0.0000 
      2 CA         12.1640   -8.8880   22.8640 C.3       6 GLL5        0.0000 
      3 CA         13.1450   -5.0860   21.2230 C.3       4 GLP5        0.0000 
      4 CA         11.7955  -10.6560   25.1755 C.3       2 GLC5        0.0000 
      5 CA         13.0340   -9.2590   23.9350 C.3       6 GLL5        0.0000 
      6 CA         10.5570  -12.0530   26.4160 C.3       4 GLP5        0.0000 
      7 CA         14.1520  -12.3555   20.5485 C.3       2 GLC5        0.0000 
      8 CA         13.3150  -10.6450   21.5040 C.3       6 GLL5        0.0000 
      9 CA         14.9890  -14.0660   19.5930 C.3       4 GLP5        0.0000 
     10 CA         15.8985   -9.0060   24.1910 C.3       2 GLC5        0.0000 
     11 CA         14.9410  -10.7780   24.7210 C.3       6 GLL5        0.0000 
     12 CA         16.8560   -7.2340   23.6610 C.3       4 GLP5        0.0000 
     13 N          15.9720  -12.2500   21.5135 N.am      1 SEC2        0.0000 
     14 N          15.1130  -11.8720   22.7300 N.am      5 SEL2        0.0000 
     15 N          16.8310  -12.6280   20.2970 N.am      3 SEP2        0.0000 
     16 CA         14.1720  -11.5940   26.7135 C.3       2 GLC5        0.0000 
     17 CA         14.6600   -9.4620   26.9840 C.3       6 GLL5        0.0000 
     18 CA         13.6840  -13.7260   26.4430 C.3       4 GLP5        0.0000 
     19 CA         13.2980  -11.7290   27.7590 C.3       2 GLC5        0.0000 
     20 CA         13.3970   -9.7370   27.6360 C.3       6 GLL5        0.0000 
     21 CA         13.1990  -13.7210   27.8820 C.3       4 GLP5        0.0000 
     22 CA         11.9770  -10.8950   27.0260 C.3       2 GLC5        0.0000 
     23 CA         12.4315   -9.9255   30.1270 C.3       2 GLC5        0.0000 
     24 CA         12.7780   -8.7330   28.4710 C.3       6 GLL5        0.0000 
     25 CA         12.0850  -11.1180   31.7830 C.3       4 GLP5        0.0000 
     26 CA         10.9830   -9.4385   27.8750 C.3       2 GLC5        0.0000 
     27 CA          9.1880  -10.1440   27.2790 C.3       4 GLP5        0.0000 
     28 CA         17.1100   -7.1415   26.7685 C.3       2 GLC5        0.0000 
     29 CA         15.2930   -8.1840   27.1670 C.3       6 GLL5        0.0000 
     30 CA         18.9270   -6.0990   26.3700 C.3       4 GLP5        0.0000 
     31 CA         16.0745   -7.7090   25.4140 C.3       2 GLC5        0.0000 
     32 CA          7.4410   -6.6345   25.9655 C.3       2 GLC5        0.0000 
     33 CA          9.5190   -6.5890   26.3420 C.3       6 GLL5        0.0000 
     34 CA          5.3630   -6.6800   25.5890 C.3       4 GLP5        0.0000 
     35 CA          8.0390   -8.3250   22.6655 C.3       2 GLC5        0.0000 
     36 CA          8.8000   -8.0830   24.6690 C.3       6 GLL5        0.0000 
     37 CA          7.2780   -8.5670   20.6620 C.3       4 GLP5        0.0000 
     38 CA         13.9815   -4.1495   24.5200 C.3       2 GLC5        0.0000 
     39 CA         13.0910   -5.8090   24.2780 C.3       6 GLL5        0.0000 
     40 CA         14.8720   -2.4900   24.7620 C.3       4 GLP5        0.0000 
     41 CA         14.9735   -6.5215   23.9695 C.3       2 GLC5        0.0000 
     42 CA         14.0525   -8.4462   22.5033 C.3       2 GLC5        0.0000 
     43 CA         15.5060   -7.8190   21.6070 C.3       4 GLP5        0.0000 
     44 CA         12.1531  -11.5922   22.0761 C.3       2 GLC5        0.0000 
     45 CA         11.5240  -13.2390   22.2770 C.3       4 GLP5        0.0000 
     46 CA         12.8580   -9.3442   19.7728 C.3       2 GLC5        0.0000 
     47 CA         12.8910   -8.5640   17.9790 C.3       4 GLP5        0.0000 
     48 CA         11.3235  -10.5448   20.3998 C.3       2 GLC5        0.0000 
     49 CA         12.3350   -9.6040   21.6290 C.3       6 GLL5        0.0000 
     50 CA          9.8220  -10.9650   19.2330 C.3       4 GLP5        0.0000 
     51 CA         14.1655   -8.9718   21.5868 C.3       2 GLC5        0.0000 
     52 CA         14.4757  -12.5063   25.3975 C.3       2 GLC5        0.0000 
     53 CA          9.9970   -5.4070   24.2308 C.3       2 GLC5        0.0000 
     54 CA         10.9440   -7.0500   24.3110 C.3       6 GLL5        0.0000 
     55 CA          9.6460   -3.6650   23.7620 C.3       4 GLP5        0.0000 
     56 CA          7.5305   -7.7562   24.7918 C.3       2 GLC5        0.0000 
     57 CA          9.7520   -7.2480   25.0880 C.3       6 GLL5        0.0000 
     58 CA          5.7850   -7.8470   24.7050 C.3       4 GLP5        0.0000 
     59 CA          9.8268   -4.8990   25.1810 C.3       2 GLC5        0.0000 
     60 CA          9.2029   -8.8224   26.2355 C.3       2 GLC5        0.0000 
     61 CA         12.7042   -5.6382   22.8302 C.3       2 GLC5        0.0000 
     62 CA         11.0501   -4.7254   24.3280 C.3       2 GLC5        0.0000 
@<TRIPOS>BOND
@<TRIPOS>SUBSTRUCTURE
     1 SEC2       13 GROUP        1 X    SEC  0     ROOT SEC X 2
     2 GLC5        1 GROUP        1 X    GLC  0     **** GLC X 6
     3 SEP2       15 GROUP        1 Y    SEP  0     ROOT SEP Y 9
     4 GLP5        3 GROUP        1 Y    GLP  0     **** GLP Y 13
     5 SEL2       14 GROUP        1 Z    SEL  0     ROOT SEL Z 16
     6 GLL5        2 GROUP        1 Z    GLL  0     **** GLL Z 20
@<TRIPOS>SET

