#    Name: 1pye_PM1_1_ligand
#    Modification time : Mon Mar 24 22:27:33 2014

@<TRIPOS>MOLECULE
1pye_PM1_1_ligand
   41    44     1     0     0
SMALL
NO_CHARGES


@<TRIPOS>ATOM
      1 C1         12.1640   -8.8880   22.8640 C.2       1 PM1700      0.0000 
      2 C2         13.0340   -9.2590   23.9350 C.2       1 PM1700      0.0000 
      3 N3         13.9760  -10.2500   23.8420 N.pl3     1 PM1700      0.0000 
      4 C4         14.1340  -10.9480   22.5960 C.2       1 PM1700      0.0000 
      5 C5         13.3150  -10.6450   21.5040 C.2       1 PM1700      0.0000 
      6 C6         12.3350   -9.6040   21.6290 C.2       1 PM1700      0.0000 
      7 C10        14.9410  -10.7780   24.7210 C.2       1 PM1700      0.0000 
      8 C11        15.5940  -11.7950   23.9830 C.2       1 PM1700      0.0000 
      9 N12        15.1130  -11.8720   22.7300 N.2       1 PM1700      0.0000 
     10 C13        15.2930  -10.4970   26.1290 C.2       1 PM1700      0.0000 
     11 C14        14.6600   -9.4620   26.9840 C.ar      1 PM1700      0.0000 
     12 C15        13.3970   -9.7370   27.6360 C.ar      1 PM1700      0.0000 
     13 C16        12.7780   -8.7330   28.4710 C.ar      1 PM1700      0.0000 
     14 C17        13.4230   -7.4700   28.6490 C.ar      1 PM1700      0.0000 
     15 C18        14.6680   -7.1930   28.0000 C.ar      1 PM1700      0.0000 
     16 C19        15.2930   -8.1840   27.1670 C.ar      1 PM1700      0.0000 
     17 C23        11.1070   -7.7970   22.9750 C.2       1 PM1700      0.0000 
     18 C24        10.9440   -7.0500   24.3110 C.ar      1 PM1700      0.0000 
     19 C25         9.7520   -7.2480   25.0880 C.ar      1 PM1700      0.0000 
     20 C26         9.5190   -6.5890   26.3420 C.ar      1 PM1700      0.0000 
     21 C27        10.4960   -5.6770   26.8580 C.ar      1 PM1700      0.0000 
     22 C28        11.7070   -5.4310   26.1370 C.ar      1 PM1700      0.0000 
     23 C29        11.9280   -6.0940   24.8830 C.ar      1 PM1700      0.0000 
     24 O33        10.3790   -7.5170   21.9890 O.2       1 PM1700      0.0000 
     25 O34        16.2190  -11.1720   26.6280 O.2       1 PM1700      0.0000 
     26 N35        16.6740  -12.6470   24.4810 N.pl3     1 PM1700      0.0000 
     27 F36         8.8000   -8.0830   24.6690 F         1 PM1700      0.0000 
     28 F39        13.0910   -5.8090   24.2780 F         1 PM1700      0.0000 
     29 H          12.9268   -8.7271   24.8365 H         1 PM1700      0.0000 
     30 H          13.3996  -11.1459   20.6257 H         1 PM1700      0.0000 
     31 H          11.7483   -9.3669   20.8273 H         1 PM1700      0.0000 
     32 H          12.9482  -10.6331   27.5063 H         1 PM1700      0.0000 
     33 H          11.8967   -8.9290   28.9221 H         1 PM1700      0.0000 
     34 H          12.9941   -6.7615   29.2418 H         1 PM1700      0.0000 
     35 H          15.1165   -6.2888   28.1273 H         1 PM1700      0.0000 
     36 H          16.1726   -7.9836   26.7124 H         1 PM1700      0.0000 
     37 H           8.6676   -6.7688   26.8584 H         1 PM1700      0.0000 
     38 H          10.3270   -5.2024   27.7415 H         1 PM1700      0.0000 
     39 H          12.4015   -4.7970   26.5051 H         1 PM1700      0.0000 
     40 H          16.9333  -12.5147   25.4377 H         1 PM1700      0.0000 
     41 H          17.0644  -13.2918   23.8239 H         1 PM1700      0.0000 
@<TRIPOS>BOND
     1    2    1 2    
     2    6    1 1    
     3   17    1 1    
     4    3    2 1    
     5   29    2 1    
     6    4    3 1    
     7    7    3 1    
     8    5    4 1    
     9    9    4 2    
    10    6    5 2    
    11   30    5 1    
    12   31    6 1    
    13    8    7 2    
    14   10    7 1    
    15    9    8 1    
    16   26    8 1    
    17   11   10 1    
    18   25   10 2    
    19   12   11 ar   
    20   16   11 ar   
    21   13   12 ar   
    22   32   12 1    
    23   14   13 ar   
    24   33   13 1    
    25   15   14 ar   
    26   34   14 1    
    27   16   15 ar   
    28   35   15 1    
    29   36   16 1    
    30   18   17 1    
    31   24   17 2    
    32   19   18 ar   
    33   23   18 ar   
    34   20   19 ar   
    35   27   19 1    
    36   21   20 ar   
    37   37   20 1    
    38   22   21 ar   
    39   38   21 1    
    40   23   22 ar   
    41   39   22 1    
    42   28   23 1    
    43   40   26 1    
    44   41   26 1    
@<TRIPOS>SUBSTRUCTURE
     1 PM1700      1 GROUP   
@<TRIPOS>SET

