#    Name: 3LCB_3_CAVITY_N1_ALL.mol2
#    Modification time : Tue Mar 11 11:12:26 2014

@<TRIPOS>MOLECULE
3LCB_3_CAVITY_N1_ALL.mol2
   59     0     7     0     0
SMALL
NO_CHARGES


@<TRIPOS>ATOM
      1 N         -67.2863   -6.6386  -12.6924 N.2       2 ALA2        0.0000 
      2 N         -65.8400   -6.8753  -13.0119 N.2       2 ALA2        0.0000 
      3 OD1       -65.6516   -6.4266  -19.5322 O.3       3 ASP3        0.0000 
      4 CA        -64.2052   -6.6632  -19.8517 C.3       6 GLY6        0.0000 
      5 CA        -64.1830   -7.8186  -18.8953 C.3       6 GLY6        0.0000 
      6 OD1       -65.6070   -8.7373  -17.6194 O.3       3 ASP3        0.0000 
      7 CA        -64.1607   -8.9739  -17.9389 C.3       6 GLY6        0.0000 
      8 CZ        -66.7009   -5.2630  -18.1021 C.ar      5 PHE5        0.0000 
      9 OD1       -65.2546   -5.4997  -18.4217 O.3       3 ASP3        0.0000 
     10 CA        -63.8082   -5.7363  -18.7412 C.3       6 GLY6        0.0000 
     11 CZ        -68.1249   -6.1817  -16.8261 C.ar      5 PHE5        0.0000 
     12 OD1       -66.6786   -6.4184  -17.1457 O.3       3 ASP3        0.0000 
     13 OD1       -65.2323   -6.6550  -17.4653 O.3       3 ASP3        0.0000 
     14 CA        -63.7859   -6.8917  -17.7848 C.3       6 GLY6        0.0000 
     15 OD1       -68.1027   -7.3371  -15.8698 O.3       3 ASP3        0.0000 
     16 OD1       -66.6563   -7.5737  -16.1893 O.3       3 ASP3        0.0000 
     17 CA        -65.2100   -7.8104  -16.5089 C.3       6 GLY6        0.0000 
     18 CA        -63.7637   -8.0470  -16.8285 C.3       6 GLY6        0.0000 
     19 O         -68.6355   -0.1470   -9.5240 O.2       2 ALA2        0.0000 
     20 N         -68.0277    0.0733  -13.9774 N.2       2 ALA2        0.0000 
     21 CA        -66.5814   -0.1634  -14.2969 C.3       6 GLY6        0.0000 
     22 N         -68.0055   -1.0821  -13.0210 N.2       2 ALA2        0.0000 
     23 CA        -66.5591   -1.3187  -13.3405 C.3       6 GLY6        0.0000 
     24 CA        -65.1128   -1.5554  -13.6601 C.3       6 GLY6        0.0000 
     25 N         -67.9832   -2.2374  -12.0646 N.2       2 ALA2        0.0000 
     26 CA        -66.5369   -2.4741  -12.3842 C.3       6 GLY6        0.0000 
     27 CZ        -68.4248   -0.8537  -15.0879 C.ar      5 PHE5        0.0000 
     28 CZ        -66.9784   -1.0903  -15.4074 C.ar      5 PHE5        0.0000 
     29 CA        -65.5321   -1.3269  -15.7270 C.3       6 GLY6        0.0000 
     30 OG        -68.4025   -2.0090  -14.1315 O.2       1 SER1        0.0000 
     31 DU        -66.9562   -2.2456  -14.4510 H         7 CUB7        0.0000 
     32 CA        -65.5098   -2.4823  -14.7706 C.3       6 GLY6        0.0000 
     33 CA        -68.3802   -3.1643  -13.1751 C.3       6 GLY6        0.0000 
     34 N         -66.9339   -3.4010  -13.4947 N.2       2 ALA2        0.0000 
     35 CA        -65.4875   -3.6376  -13.8142 C.3       6 GLY6        0.0000 
     36 N         -66.9116   -4.5563  -12.5383 N.2       2 ALA2        0.0000 
     37 CA        -65.4653   -4.7930  -12.8578 C.3       6 GLY6        0.0000 
     38 NZ        -64.5800   -8.7455  -20.0058 N.2       4 LYS4        0.0000 
     39 N         -67.6084   -0.1552  -11.9105 N.2       2 ALA2        0.0000 
     40 CZ        -66.3039   -4.3361  -16.9916 C.ar      5 PHE5        0.0000 
     41 OD1       -64.8575   -4.5728  -17.3112 O.3       3 ASP3        0.0000 
     42 OG        -67.7279   -5.2548  -15.7156 O.2       1 SER1        0.0000 
     43 CZ        -66.2816   -5.4915  -16.0352 C.ar      5 PHE5        0.0000 
     44 CA        -64.8353   -5.7281  -16.3548 C.3       6 GLY6        0.0000 
     45 CA        -63.3889   -5.9648  -16.6743 C.3       6 GLY6        0.0000 
     46 OG        -69.1520   -6.1735  -14.4397 O.2       1 SER1        0.0000 
     47 N         -67.7056   -6.4102  -14.7593 N.2       2 ALA2        0.0000 
     48 N         -66.2593   -6.6468  -15.0788 N.2       2 ALA2        0.0000 
     49 CA        -64.8130   -6.8835  -15.3984 C.3       6 GLY6        0.0000 
     50 N         -69.1297   -7.3289  -13.4833 N.2       2 ALA2        0.0000 
     51 CZ        -67.3755   -2.0172  -16.5179 C.ar      5 PHE5        0.0000 
     52 OD1       -65.9291   -2.2539  -16.8375 O.3       3 ASP3        0.0000 
     53 CZ        -67.3532   -3.1726  -15.5615 C.ar      5 PHE5        0.0000 
     54 OD1       -65.9068   -3.4092  -15.8811 O.3       3 ASP3        0.0000 
     55 CA        -64.4605   -3.6459  -16.2007 C.3       6 GLY6        0.0000 
     56 OG        -67.3309   -4.3279  -14.6052 O.2       1 SER1        0.0000 
     57 CA        -65.8846   -4.5646  -14.9247 C.3       6 GLY6        0.0000 
     58 N         -67.3086   -5.4833  -13.6488 N.2       2 ALA2        0.0000 
     59 CA        -65.8623   -5.7199  -13.9683 C.3       6 GLY6        0.0000 
@<TRIPOS>BOND
@<TRIPOS>SUBSTRUCTURE
     1 SER1       30 GROUP   
     2 ALA2        1 GROUP   
     3 ASP3        3 GROUP   
     4 LYS4       38 GROUP   
     5 PHE5        8 GROUP   
     6 GLY6        4 GROUP   
     7 CUB7       31 GROUP   
@<TRIPOS>SET

