#    Name: 3lcb_ATP_3_INTS_M
#    Modification time : Mon Mar 24 21:27:30 2014

@<TRIPOS>MOLECULE
3lcb_ATP_3_INTS_M
   70     0    15     0     0
SMALL
NO_CHARGES


@<TRIPOS>ATOM
      1 NZ        -69.3660  -12.4955  -18.5365 N.4       3 LYC4        0.0000 
      2 NZ        -68.9430  -11.9430  -19.8150 N.4      13 LYL4        0.0000 
      3 NZ        -69.7890  -13.0480  -17.2580 N.4       8 LYP4        0.0000 
      4 N         -69.3660  -12.4955  -18.5365 N.am      2 SEC2        0.0000 
      5 N         -68.9430  -11.9430  -19.8150 N.am     12 SEL2        0.0000 
      6 N         -69.7890  -13.0480  -17.2580 N.am      7 SEP2        0.0000 
      7 NZ        -66.8415  -13.2590  -22.2220 N.4       3 LYC4        0.0000 
      8 NZ        -67.8360  -13.4210  -21.4970 N.4      13 LYL4        0.0000 
      9 NZ        -65.8470  -13.0970  -22.9470 N.4       8 LYP4        0.0000 
     10 N         -66.8415  -13.2590  -22.2220 N.am      2 SEC2        0.0000 
     11 N         -67.8360  -13.4210  -21.4970 N.am     12 SEL2        0.0000 
     12 N         -65.8470  -13.0970  -22.9470 N.am      7 SEP2        0.0000 
     13 N         -68.4690  -12.4915  -22.3280 N.am      2 SEC2        0.0000 
     14 N         -69.1020  -11.5620  -23.1590 N.am      7 SEP2        0.0000 
     15 NZ        -66.2680  -13.0410  -21.1005 N.4       3 LYC4        0.0000 
     16 NZ        -66.6890  -12.9850  -19.2540 N.4      13 LYL4        0.0000 
     17 NZ        -68.2390  -13.0165  -18.2560 N.4       3 LYC4        0.0000 
     18 Zn        -68.0055   -8.7165  -19.4235 Zn        4 ZIC7        0.0000 
     19 Zn        -68.3510   -9.4430  -19.9100 Zn       14 ZIL7        0.0000 
     20 Zn        -67.6600   -7.9900  -18.9370 Zn        9 ZIP7        0.0000 
     21 N         -62.7345  -10.4425  -19.5155 N.am      2 SEC2        0.0000 
     22 N         -63.5300   -8.9200  -19.7580 N.am     12 SEL2        0.0000 
     23 N         -61.9390  -11.9650  -19.2730 N.am      7 SEP2        0.0000 
     24 N         -62.1570   -9.1675  -19.3270 N.am      2 SEC2        0.0000 
     25 N         -60.7840   -9.4150  -18.8960 N.am      7 SEP2        0.0000 
     26 Zn        -66.7815   -8.4505  -19.5670 Zn        4 ZIC7        0.0000 
     27 Zn        -65.9030   -8.9110  -20.1970 Zn       14 ZIL7        0.0000 
     28 CA        -64.5295   -4.4210  -18.2865 C.3       5 GLC5        0.0000 
     29 CA        -65.8360   -6.1530  -17.9410 C.3      15 GLL5        0.0000 
     30 CA        -63.2230   -2.6890  -18.6320 C.3      10 GLP5        0.0000 
     31 CA        -64.9680   -8.5715  -16.1875 C.3       5 GLC5        0.0000 
     32 CA        -65.9550   -6.6110  -16.4520 C.3      15 GLL5        0.0000 
     33 CA        -63.9810  -10.5320  -15.9230 C.3      10 GLP5        0.0000 
     34 CA        -64.4780   -6.1400  -15.0920 C.3       5 GLC5        0.0000 
     35 CA        -63.0010   -5.6690  -13.7320 C.3      10 GLP5        0.0000 
     36 O         -67.5985   -8.4990  -14.3220 O.2       1 ALC1        0.0000 
     37 O         -67.8290   -7.8540  -15.3990 O.2      11 ALL1        0.0000 
     38 O         -67.3680   -9.1440  -13.2450 O.2       6 ALP1        0.0000 
     39 CA        -68.6025   -4.4755  -15.9610 C.3       5 GLC5        0.0000 
     40 CA        -67.4460   -5.5530  -14.7520 C.3      15 GLL5        0.0000 
     41 CA        -69.7590   -3.3980  -17.1700 C.3      10 GLP5        0.0000 
     42 O         -67.5625   -7.6215  -13.3550 O.2       1 ALC1        0.0000 
     43 O         -67.7570   -6.0990  -13.4650 O.2      11 ALL1        0.0000 
     44 CA        -64.5335   -5.3065  -14.2180 C.3       5 GLC5        0.0000 
     45 CA        -66.0660   -4.9440  -14.7040 C.3      15 GLL5        0.0000 
     46 CA        -67.1525    1.9070  -14.5630 C.3       5 GLC5        0.0000 
     47 CA        -67.2520   -0.0960  -15.4050 C.3      15 GLL5        0.0000 
     48 CA        -67.0530    3.9100  -13.7210 C.3      10 GLP5        0.0000 
     49 O         -66.0890    0.7615  -17.4530 O.2       1 ALC1        0.0000 
     50 O         -67.1280    0.9160  -16.3010 O.2      11 ALL1        0.0000 
     51 O         -65.0500    0.6070  -18.6050 O.2       6 ALP1        0.0000 
     52 O         -66.9610    2.3395  -16.3955 O.2       1 ALC1        0.0000 
     53 O         -66.7940    3.7630  -16.4900 O.2       6 ALP1        0.0000 
     54 N         -68.6100    1.5915  -14.1075 N.am      2 SEC2        0.0000 
     55 N         -67.8940    0.0400  -14.2160 N.am     12 SEL2        0.0000 
     56 N         -69.3260    3.1430  -13.9990 N.am      7 SEP2        0.0000 
     57 CA        -66.1725   -0.1095  -12.9990 C.3       5 GLC5        0.0000 
     58 CA        -67.9980   -0.9920  -13.3520 C.3      15 GLL5        0.0000 
     59 CA        -64.3470    0.7730  -12.6460 C.3      10 GLP5        0.0000 
     60 CA        -69.5820   -2.0355  -12.8260 C.3       5 GLC5        0.0000 
     61 CA        -71.1660   -3.0790  -12.3000 C.3      10 GLP5        0.0000 
     62 CA        -64.8320   -2.8255  -14.3355 C.3       5 GLC5        0.0000 
     63 CA        -66.8210   -2.5000  -14.7320 C.3      15 GLL5        0.0000 
     64 CA        -62.8430   -3.1510  -13.9390 C.3      10 GLP5        0.0000 
     65 CA        -67.8179   -5.2385  -17.3486 C.3       5 GLC5        0.0000 
     66 CA        -67.3920   -6.5780  -15.8860 C.3      15 GLL5        0.0000 
     67 CA        -68.9920   -3.9970  -18.1560 C.3      10 GLP5        0.0000 
     68 CA        -65.3663    0.0457  -15.3342 C.3       5 GLC5        0.0000 
     69 CA        -66.6710   -1.4150  -15.7160 C.3      15 GLL5        0.0000 
     70 CA        -63.7710    0.8470  -15.1080 C.3      10 GLP5        0.0000 
@<TRIPOS>BOND
@<TRIPOS>SUBSTRUCTURE
     1 ALC1       36 GROUP        1 X    ALC  0     ROOT ALC X 1
     2 SEC2        4 GROUP        1 X    SEC  0     **** SEC X 2
     3 LYC4        1 GROUP        1 X    LYC  0     **** LYC X 4
     4 ZIC7       18 GROUP        1 X    ZIC  0     **** ZIC X 5
     5 GLC5       28 GROUP        1 X    GLC  0     **** GLC X 6
     6 ALP1       38 GROUP        1 Y    ALP  0     ROOT ALP Y 8
     7 SEP2        6 GROUP        1 Y    SEP  0     **** SEP Y 9
     8 LYP4        3 GROUP        1 Y    LYP  0     **** LYP Y 11
     9 ZIP7       20 GROUP        1 Y    ZIP  0     **** ZIP Y 12
    10 GLP5       30 GROUP        1 Y    GLP  0     **** GLP Y 13
    11 ALL1       37 GROUP        1 Z    ALL  0     ROOT ALL Z 15
    12 SEL2        5 GROUP        1 Z    SEL  0     **** SEL Z 16
    13 LYL4        2 GROUP        1 Z    LYL  0     **** LYL Z 18
    14 ZIL7       19 GROUP        1 Z    ZIL  0     **** ZIL Z 19
    15 GLL5       29 GROUP        1 Z    GLL  0     **** GLL Z 20
@<TRIPOS>SET

