#    Name: 3lcb_ATP_3_ligand
#    Modification time : Mon Mar 24 21:27:30 2014

@<TRIPOS>MOLECULE
3lcb_ATP_3_ligand
   43    45     1     0     0
SMALL
NO_CHARGES


@<TRIPOS>ATOM
      1 PG        -67.6380  -12.5000  -20.3200 P.3       1 ATP1761     0.0000 
      2 O1G       -68.9430  -11.9430  -19.8150 O.co2     1 ATP1761     0.0000 
      3 O2G       -67.8360  -13.4210  -21.4970 O.co2     1 ATP1761     0.0000 
      4 O3G       -66.6890  -12.9850  -19.2540 O.co2     1 ATP1761     0.0000 
      5 PB        -66.9760  -10.0270  -19.7600 P.3       1 ATP1761     0.0000 
      6 O1B       -68.3510   -9.4430  -19.9100 O.co2     1 ATP1761     0.0000 
      7 O2B       -66.6420  -10.6150  -18.4030 O.co2     1 ATP1761     0.0000 
      8 O3B       -66.8860  -11.1990  -20.8580 O.3       1 ATP1761     0.0000 
      9 PA        -64.8160   -8.4770  -19.1210 P.3       1 ATP1761     0.0000 
     10 O1A       -63.5300   -8.9200  -19.7580 O.co2     1 ATP1761     0.0000 
     11 O2A       -65.1910   -9.1610  -17.8410 O.co2     1 ATP1761     0.0000 
     12 O3A       -65.9030   -8.9110  -20.1970 O.3       1 ATP1761     0.0000 
     13 O5'       -64.9520   -6.8510  -18.8640 O.3       1 ATP1761     0.0000 
     14 C5'       -65.8360   -6.1530  -17.9410 C.3       1 ATP1761     0.0000 
     15 C4'       -65.9550   -6.6110  -16.4520 C.3       1 ATP1761     0.0000 
     16 O4'       -65.2230   -5.7750  -15.5410 O.3       1 ATP1761     0.0000 
     17 C3'       -67.3920   -6.5780  -15.8860 C.3       1 ATP1761     0.0000 
     18 O3'       -67.8290   -7.8540  -15.3990 O.3       1 ATP1761     0.0000 
     19 C2'       -67.4460   -5.5530  -14.7520 C.3       1 ATP1761     0.0000 
     20 O2'       -67.7570   -6.0990  -13.4650 O.3       1 ATP1761     0.0000 
     21 C1'       -66.0660   -4.9440  -14.7040 C.3       1 ATP1761     0.0000 
     22 N9        -66.2050   -3.5680  -15.2610 N.pl3     1 ATP1761     0.0000 
     23 C8        -65.7270   -3.2000  -16.4590 C.2       1 ATP1761     0.0000 
     24 N7        -65.9940   -1.9120  -16.7520 N.2       1 ATP1761     0.0000 
     25 C5        -66.6710   -1.4150  -15.7160 C.ar      1 ATP1761     0.0000 
     26 C6        -67.2520   -0.0960  -15.4050 C.ar      1 ATP1761     0.0000 
     27 N6        -67.1280    0.9160  -16.3010 N.pl3     1 ATP1761     0.0000 
     28 N1        -67.8940    0.0400  -14.2160 N.ar      1 ATP1761     0.0000 
     29 C2        -67.9980   -0.9920  -13.3520 C.ar      1 ATP1761     0.0000 
     30 N3        -67.4900   -2.2230  -13.5850 N.ar      1 ATP1761     0.0000 
     31 C4        -66.8210   -2.5000  -14.7320 C.ar      1 ATP1761     0.0000 
     32 H         -66.8972   -6.1384  -18.3515 H         1 ATP1761     0.0000 
     33 H         -65.5736   -5.0462  -17.9097 H         1 ATP1761     0.0000 
     34 H         -65.6078   -7.6361  -16.3694 H         1 ATP1761     0.0000 
     35 H         -68.0451   -6.2134  -16.6762 H         1 ATP1761     0.0000 
     36 H         -68.1296   -4.7704  -15.0416 H         1 ATP1761     0.0000 
     37 H         -65.7401   -4.9149  -13.7062 H         1 ATP1761     0.0000 
     38 H         -65.2288   -3.8094  -17.0679 H         1 ATP1761     0.0000 
     39 H         -67.5423    1.7879  -16.0401 H         1 ATP1761     0.0000 
     40 H         -66.6333    0.7002  -17.1428 H         1 ATP1761     0.0000 
     41 H         -68.5114   -0.8272  -12.4303 H         1 ATP1761     0.0000 
     42 H         -67.4336   -7.9308  -14.4837 H         1 ATP1761     0.0000 
     43 H         -67.6258   -7.0854  -13.5639 H         1 ATP1761     0.0000 
@<TRIPOS>BOND
     1    2    1 ar   
     2    3    1 ar   
     3    4    1 ar   
     4    8    1 1    
     5    6    5 ar   
     6    7    5 ar   
     7    8    5 1    
     8   12    5 1    
     9   10    9 ar   
    10   11    9 ar   
    11   12    9 1    
    12   13    9 1    
    13   14   13 1    
    14   15   14 1    
    15   32   14 1    
    16   33   14 1    
    17   16   15 1    
    18   17   15 1    
    19   34   15 1    
    20   21   16 1    
    21   18   17 1    
    22   19   17 1    
    23   35   17 1    
    24   42   18 1    
    25   20   19 1    
    26   21   19 1    
    27   36   19 1    
    28   43   20 1    
    29   22   21 1    
    30   37   21 1    
    31   23   22 1    
    32   31   22 1    
    33   24   23 2    
    34   38   23 1    
    35   25   24 1    
    36   26   25 ar   
    37   31   25 ar   
    38   27   26 1    
    39   28   26 ar   
    40   39   27 1    
    41   40   27 1    
    42   29   28 ar   
    43   30   29 ar   
    44   41   29 1    
    45   31   30 ar   
@<TRIPOS>SUBSTRUCTURE
     1 ATP1761     1 GROUP   
@<TRIPOS>SET

