#    Name: 4h4o_506_1_INTS_M
#    Modification time : Tue Mar 25 00:20:52 2014

@<TRIPOS>MOLECULE
4h4o_506_1_INTS_M
   71     0     9     0     0
SMALL
NO_CHARGES


@<TRIPOS>ATOM
      1 N         269.0285  -28.6405   19.1930 N.am      2 SEC2        0.0000 
      2 N         268.7700  -28.4580   20.6140 N.am      8 SEL2        0.0000 
      3 N         269.2870  -28.8230   17.7720 N.am      5 SEP2        0.0000 
      4 O         270.4765  -30.5895   19.8605 O.2       1 ALC1        0.0000 
      5 O         270.1510  -30.1870   21.1760 O.2       7 ALL1        0.0000 
      6 O         270.8020  -30.9920   18.5450 O.2       4 ALP1        0.0000 
      7 CA        267.6860  -27.1500   23.6655 C.3       3 GLC5        0.0000 
      8 CA        269.2520  -26.9480   22.9810 C.3       9 GLL5        0.0000 
      9 CA        266.1200  -27.3520   24.3500 C.3       6 GLP5        0.0000 
     10 CA        269.2235  -24.1060   23.3725 C.3       3 GLC5        0.0000 
     11 CA        270.2360  -25.7400   22.9130 C.3       9 GLL5        0.0000 
     12 CA        268.2110  -22.4720   23.8320 C.3       6 GLP5        0.0000 
     13 CA        271.2480  -24.2315   16.2455 C.3       3 GLC5        0.0000 
     14 CA        271.5400  -23.2130   17.5520 C.3       9 GLL5        0.0000 
     15 CA        270.9560  -25.2500   14.9390 C.3       6 GLP5        0.0000 
     16 CA        271.4205  -21.2120   18.3060 C.3       3 GLC5        0.0000 
     17 CA        271.3010  -19.2110   19.0600 C.3       6 GLP5        0.0000 
     18 CA        274.7445  -22.6270   22.1670 C.3       3 GLC5        0.0000 
     19 CA        273.3100  -23.3760   20.6600 C.3       9 GLL5        0.0000 
     20 CA        276.1790  -21.8780   23.6740 C.3       6 GLP5        0.0000 
     21 CA        270.4275  -18.5435   24.7065 C.3       3 GLC5        0.0000 
     22 CA        270.8230  -20.2840   24.5570 C.3       9 GLL5        0.0000 
     23 CA        270.0320  -16.8030   24.8560 C.3       6 GLP5        0.0000 
     24 CA        269.6570  -20.4930   23.3245 C.3       3 GLC5        0.0000 
     25 CA        268.4910  -20.7020   22.0920 C.3       6 GLP5        0.0000 
     26 CA        271.6300  -19.8700   22.8490 C.3       3 GLC5        0.0000 
     27 CA        272.4370  -19.4560   21.1410 C.3       6 GLP5        0.0000 
     28 CA        270.5690  -19.4780   26.3605 C.3       3 GLC5        0.0000 
     29 CA        270.3150  -18.6720   28.1640 C.3       6 GLP5        0.0000 
     30 CA        273.2380  -21.9615   29.0070 C.3       3 GLC5        0.0000 
     31 CA        273.9820  -22.6600   27.3960 C.3       9 GLL5        0.0000 
     32 CA        272.4940  -21.2630   30.6180 C.3       6 GLP5        0.0000 
     33 CA        275.0925  -26.0920   29.0030 C.3       3 GLC5        0.0000 
     34 CA        275.0580  -23.9680   29.2290 C.3       9 GLL5        0.0000 
     35 CA        275.1270  -28.2160   28.7770 C.3       6 GLP5        0.0000 
     36 CA        272.1308  -28.5948   22.3238 C.3       3 GLC5        0.0000 
     37 CA        270.7670  -28.8880   23.5510 C.3       9 GLL5        0.0000 
     38 CA        273.2090  -27.7020   21.2280 C.3       6 GLP5        0.0000 
     39 CA        272.6458  -29.2652   24.8592 C.3       3 GLC5        0.0000 
     40 CA        274.2390  -29.0430   26.2990 C.3       6 GLP5        0.0000 
     41 CA        269.9412  -30.9878   23.6617 C.3       3 GLC5        0.0000 
     42 CA        271.3380  -30.0870   23.2880 C.3       9 GLL5        0.0000 
     43 CA        268.8300  -32.4880   23.9040 C.3       6 GLP5        0.0000 
     44 CA        271.4765  -27.0230   22.0875 C.3       3 GLC5        0.0000 
     45 CA        271.3408  -25.2462   18.0862 C.3       3 GLC5        0.0000 
     46 CA        270.8780  -24.1410   19.6090 C.3       9 GLL5        0.0000 
     47 CA        271.3340  -26.6840   16.9630 C.3       6 GLP5        0.0000 
     48 CA        273.0884  -23.1124   17.1752 C.3       3 GLC5        0.0000 
     49 CA        273.0490  -23.0890   19.3360 C.3       9 GLL5        0.0000 
     50 CA        273.8130  -23.0080   15.5920 C.3       6 GLP5        0.0000 
     51 CA        272.8721  -25.7559   21.0889 C.3       3 GLC5        0.0000 
     52 CA        274.0723  -24.5231   18.9522 C.3       3 GLC5        0.0000 
     53 CA        275.2730  -25.7170   18.0380 C.3       6 GLP5        0.0000 
     54 CA        273.8183  -25.1600   23.7873 C.3       3 GLC5        0.0000 
     55 CA        272.6190  -23.3270   23.8540 C.3       9 GLL5        0.0000 
     56 CA        274.6640  -26.9260   23.1170 C.3       6 GLP5        0.0000 
     57 CA        274.2709  -22.3477   23.8694 C.3       3 GLC5        0.0000 
     58 CA        273.3260  -23.4610   25.0610 C.3       9 GLL5        0.0000 
     59 CA        270.0627  -22.2628   24.0382 C.3       3 GLC5        0.0000 
     60 CA        274.4785  -21.9352   24.8513 C.3       3 GLC5        0.0000 
     61 CA        272.3490  -21.4490   25.9390 C.3       9 GLL5        0.0000 
     62 CA        271.6829  -23.3694   26.8251 C.3       3 GLC5        0.0000 
     63 CA        270.5580  -24.5150   27.8860 C.3       6 GLP5        0.0000 
     64 CA        272.3135  -23.8642   27.8320 C.3       3 GLC5        0.0000 
     65 CA        273.4425  -23.2372   29.9653 C.3       3 GLC5        0.0000 
     66 CA        274.1560  -23.7670   28.1600 C.3       9 GLL5        0.0000 
     67 CA        272.2780  -22.6070   31.2360 C.3       6 GLP5        0.0000 
     68 CA        275.9992  -24.4849   27.7587 C.3       3 GLC5        0.0000 
     69 CA        277.4350  -25.3790   27.0140 C.3       6 GLP5        0.0000 
     70 CA        275.8297  -22.4454   27.9147 C.3       3 GLC5        0.0000 
     71 CA        277.0960  -21.3000   27.3260 C.3       6 GLP5        0.0000 
@<TRIPOS>BOND
@<TRIPOS>SUBSTRUCTURE
     1 ALC1        4 GROUP        1 X    ALC  0     ROOT ALC X 1
     2 SEC2        1 GROUP        1 X    SEC  0     **** SEC X 2
     3 GLC5        7 GROUP        1 X    GLC  0     **** GLC X 6
     4 ALP1        6 GROUP        1 Y    ALP  0     ROOT ALP Y 8
     5 SEP2        3 GROUP        1 Y    SEP  0     **** SEP Y 9
     6 GLP5        9 GROUP        1 Y    GLP  0     **** GLP Y 13
     7 ALL1        5 GROUP        1 Z    ALL  0     ROOT ALL Z 15
     8 SEL2        2 GROUP        1 Z    SEL  0     **** SEL Z 16
     9 GLL5        8 GROUP        1 Z    GLL  0     **** GLL Z 20
@<TRIPOS>SET

