#    Name: 4h4o_506_1_ligand
#    Modification time : Tue Mar 25 00:20:53 2014

@<TRIPOS>MOLECULE
4h4o_506_1_ligand
   45    47     1     0     0
SMALL
NO_CHARGES


@<TRIPOS>ATOM
      1 OAC       268.7700  -28.4580   20.6140 O.2       1 506601      0.0000 
      2 CBC       269.5490  -28.9420   21.4340 C.2       1 506601      0.0000 
      3 NAS       270.1510  -30.1870   21.1760 N.am      1 506601      0.0000 
      4 CBB       271.0610  -30.8250   22.0550 C.2       1 506601      0.0000 
      5 OAB       271.5330  -31.9160   21.7410 O.2       1 506601      0.0000 
      6 CAK       271.3380  -30.0870   23.2880 C.2       1 506601      0.0000 
      7 CAL       270.7670  -28.8880   23.5510 C.2       1 506601      0.0000 
      8 NBD       269.8690  -28.2730   22.6660 N.am      1 506601      0.0000 
      9 CAR       269.2520  -26.9480   22.9810 C.3       1 506601      0.0000 
     10 CAQ       270.2360  -25.7400   22.9130 C.3       1 506601      0.0000 
     11 OAT       270.0620  -25.1050   21.6050 O.3       1 506601      0.0000 
     12 CBA       271.1220  -24.4460   20.9560 C.ar      1 506601      0.0000 
     13 CAO       270.8780  -24.1410   19.6090 C.ar      1 506601      0.0000 
     14 CAV       271.8170  -23.4760   18.8100 C.ar      1 506601      0.0000 
     15 FAD       271.5400  -23.2130   17.5520 F         1 506601      0.0000 
     16 CAI       273.0490  -23.0890   19.3360 C.ar      1 506601      0.0000 
     17 CAJ       273.3100  -23.3760   20.6600 C.ar      1 506601      0.0000 
     18 CAZ       272.3990  -24.0410   21.5230 C.ar      1 506601      0.0000 
     19 OAU       272.7850  -24.2860   22.8590 O.3       1 506601      0.0000 
     20 CAY       272.6190  -23.3270   23.8540 C.ar      1 506601      0.0000 
     21 CAP       273.3260  -23.4610   25.0610 C.ar      1 506601      0.0000 
     22 CAN       271.7530  -22.2410   23.6720 C.ar      1 506601      0.0000 
     23 CAW       271.6430  -21.3230   24.7260 C.ar      1 506601      0.0000 
     24 FAE       270.8230  -20.2840   24.5570 F         1 506601      0.0000 
     25 CAM       272.3490  -21.4490   25.9390 C.ar      1 506601      0.0000 
     26 CAX       273.2070  -22.5360   26.1180 C.ar      1 506601      0.0000 
     27 CAH       273.9820  -22.6600   27.3960 C.2       1 506601      0.0000 
     28 CAG       274.1560  -23.7670   28.1600 C.2       1 506601      0.0000 
     29 CAF       275.0580  -23.9680   29.2290 C.1       1 506601      0.0000 
     30 NAA       275.7960  -24.1240   30.1410 N.1       1 506601      0.0000 
     31 H         269.9141  -30.6769   20.2779 H         1 506601      0.0000 
     32 H         271.9984  -30.5354   23.9513 H         1 506601      0.0000 
     33 H         270.9909  -28.3838   24.4436 H         1 506601      0.0000 
     34 H         268.8135  -26.9646   23.9960 H         1 506601      0.0000 
     35 H         268.4200  -26.7406   22.2828 H         1 506601      0.0000 
     36 H         271.2369  -26.1230   23.0392 H         1 506601      0.0000 
     37 H         269.9868  -25.0665   23.7184 H         1 506601      0.0000 
     38 H         269.9670  -24.4188   19.1889 H         1 506601      0.0000 
     39 H         273.7310  -22.6093   18.7547 H         1 506601      0.0000 
     40 H         274.2374  -23.0911   21.0715 H         1 506601      0.0000 
     41 H         273.9637  -24.2754   25.1812 H         1 506601      0.0000 
     42 H         271.2313  -22.1241   22.8203 H         1 506601      0.0000 
     43 H         272.2309  -20.7525   26.6728 H         1 506601      0.0000 
     44 H         274.4337  -21.7325   27.6989 H         1 506601      0.0000 
     45 H         273.5246  -24.6290   27.9352 H         1 506601      0.0000 
@<TRIPOS>BOND
     1    2    1 2    
     2    3    2 am   
     3    8    2 am   
     4    4    3 am   
     5   31    3 1    
     6    5    4 2    
     7    6    4 1    
     8    7    6 2    
     9   32    6 1    
    10    8    7 1    
    11   33    7 1    
    12    9    8 1    
    13   10    9 1    
    14   34    9 1    
    15   35    9 1    
    16   11   10 1    
    17   36   10 1    
    18   37   10 1    
    19   12   11 1    
    20   13   12 ar   
    21   18   12 ar   
    22   14   13 ar   
    23   38   13 1    
    24   15   14 1    
    25   16   14 ar   
    26   17   16 ar   
    27   39   16 1    
    28   18   17 ar   
    29   40   17 1    
    30   19   18 1    
    31   20   19 1    
    32   21   20 ar   
    33   22   20 ar   
    34   26   21 ar   
    35   41   21 1    
    36   23   22 ar   
    37   42   22 1    
    38   24   23 1    
    39   25   23 ar   
    40   26   25 ar   
    41   43   25 1    
    42   27   26 1    
    43   28   27 2    
    44   44   27 1    
    45   29   28 1    
    46   45   28 1    
    47   30   29 3    
@<TRIPOS>SUBSTRUCTURE
     1 506601      1 GROUP   
@<TRIPOS>SET

