#    Name: 4l7l_1VA_1_INTS_M
#    Modification time : Tue Mar 25 09:51:53 2014

@<TRIPOS>MOLECULE
4l7l_1VA_1_INTS_M
   43     0     9     0     0
SMALL
NO_CHARGES


@<TRIPOS>ATOM
      1 CA         23.4475   -2.4085   17.5760 C.3       3 GLC5        0.0000 
      2 CA         22.5580   -4.1230   17.1060 C.3       9 GLL5        0.0000 
      3 CA         24.3370   -0.6940   18.0460 C.3       6 GLP5        0.0000 
      4 CA         25.8135   -1.3325   14.0875 C.3       3 GLC5        0.0000 
      5 CA         23.6530   -1.4780   13.7490 C.3       9 GLL5        0.0000 
      6 CA         27.9740   -1.1870   14.4260 C.3       6 GLP5        0.0000 
      7 CA         18.6025   -1.9695   13.0065 C.3       3 GLC5        0.0000 
      8 CA         19.5190   -3.8050   12.8830 C.3       9 GLL5        0.0000 
      9 CA         17.6860   -0.1340   13.1300 C.3       6 GLP5        0.0000 
     10 CA         18.5370   -6.2570   14.6540 C.3       3 GLC5        0.0000 
     11 CA         19.1630   -5.2090   13.2810 C.3       9 GLL5        0.0000 
     12 CA         17.9110   -7.3050   16.0270 C.3       6 GLP5        0.0000 
     13 CA         16.0800  -11.2330   11.4710 C.3       3 GLC5        0.0000 
     14 CA         17.1300   -9.9350   10.3000 C.3       9 GLL5        0.0000 
     15 CA         15.0300  -12.5310   12.6420 C.3       6 GLP5        0.0000 
     16 N          14.3050   -4.2965   11.5470 N.am      2 SEC2        0.0000 
     17 N          14.8110   -5.5680   11.1920 N.am      8 SEL2        0.0000 
     18 N          13.7990   -3.0250   11.9020 N.am      5 SEP2        0.0000 
     19 N          13.5890   -5.8870   10.9655 N.am      2 SEC2        0.0000 
     20 N          12.3670   -6.2060   10.7390 N.am      5 SEP2        0.0000 
     21 O          16.4725   -4.2015   12.7980 O.2       1 ALC1        0.0000 
     22 O          16.8820   -5.3300   12.1810 O.2       7 ALL1        0.0000 
     23 O          16.0630   -3.0730   13.4150 O.2       4 ALP1        0.0000 
     24 CA         25.0017   -4.9878   16.4482 C.3       3 GLC5        0.0000 
     25 CA         23.0160   -5.8130   15.4780 C.3       9 GLL5        0.0000 
     26 CA         26.6650   -5.8810   17.1330 C.3       6 GLP5        0.0000 
     27 CA         23.9229   -1.4786   16.1649 C.3       3 GLC5        0.0000 
     28 CA         23.8580   -3.5510   15.1280 C.3       9 GLL5        0.0000 
     29 CA         18.5140   -8.0813    9.6790 C.3       3 GLC5        0.0000 
     30 CA         17.5890   -7.8250   11.3620 C.3       9 GLL5        0.0000 
     31 CA         19.2470   -7.6880    8.1570 C.3       6 GLP5        0.0000 
     32 CA         17.8800   -8.6837    9.1340 C.3       3 GLC5        0.0000 
     33 CA         16.5265  -11.5038    9.3830 C.3       3 GLC5        0.0000 
     34 CA         16.5400  -13.3280    8.6550 C.3       6 GLP5        0.0000 
     35 CA         15.4240   -7.7825    8.2950 C.3       3 GLC5        0.0000 
     36 CA         15.8960   -9.4240    9.9220 C.3       9 GLL5        0.0000 
     37 CA         15.1580   -6.7820    6.4650 C.3       6 GLP5        0.0000 
     38 CA         13.7750   -8.8905    9.4965 C.3       3 GLC5        0.0000 
     39 CA         15.4840   -8.1420   10.3280 C.3       9 GLL5        0.0000 
     40 CA         11.8600   -8.9980    8.8680 C.3       6 GLP5        0.0000 
     41 CA         14.3350  -10.0490   10.9740 C.3       3 GLC5        0.0000 
     42 CA         12.9800  -11.3150   11.8230 C.3       6 GLP5        0.0000 
     43 CA         17.5727   -7.7145    9.4270 C.3       3 GLC5        0.0000 
@<TRIPOS>BOND
@<TRIPOS>SUBSTRUCTURE
     1 ALC1       21 GROUP        1 X    ALC  0     ROOT ALC X 1
     2 SEC2       16 GROUP        1 X    SEC  0     **** SEC X 2
     3 GLC5        1 GROUP        1 X    GLC  0     **** GLC X 6
     4 ALP1       23 GROUP        1 Y    ALP  0     ROOT ALP Y 8
     5 SEP2       18 GROUP        1 Y    SEP  0     **** SEP Y 9
     6 GLP5        3 GROUP        1 Y    GLP  0     **** GLP Y 13
     7 ALL1       22 GROUP        1 Z    ALL  0     ROOT ALL Z 15
     8 SEL2       17 GROUP        1 Z    SEL  0     **** SEL Z 16
     9 GLL5        2 GROUP        1 Z    GLL  0     **** GLL Z 20
@<TRIPOS>SET

