#    Name: 4l7l_1VA_1_ligand
#    Modification time : Tue Mar 25 09:51:53 2014

@<TRIPOS>MOLECULE
4l7l_1VA_1_ligand
   47    49     1     0     0
SMALL
NO_CHARGES


@<TRIPOS>ATOM
      1 CAI        23.0160   -5.8130   15.4780 C.ar      1 1VA601      0.0000 
      2 CAE        22.3110   -6.7220   16.2670 C.ar      1 1VA601      0.0000 
      3 CAD        21.7050   -6.3300   17.4680 C.ar      1 1VA601      0.0000 
      4 CAF        21.8370   -5.0190   17.8810 C.ar      1 1VA601      0.0000 
      5 CAJ        22.5580   -4.1230   17.1060 C.ar      1 1VA601      0.0000 
      6 CAU        23.1440   -4.4930   15.9050 C.ar      1 1VA601      0.0000 
      7 CAP        23.8580   -3.5510   15.1280 C.3       1 1VA601      0.0000 
      8 CAZ        22.8710   -2.5460   14.5090 C.3       1 1VA601      0.0000 
      9 CAM        23.6530   -1.4780   13.7490 C.3       1 1VA601      0.0000 
     10 OAC        22.6740   -0.4960   13.2420 O.3       1 1VA601      0.0000 
     11 NAR        21.8480   -3.2030   13.6110 N.am      1 1VA601      0.0000 
     12 CAT        20.5140   -3.1930   13.9150 C.2       1 1VA601      0.0000 
     13 OAA        20.0770   -2.6090   14.9010 O.2       1 1VA601      0.0000 
     14 CAN        19.5190   -3.8050   12.8830 C.3       1 1VA601      0.0000 
     15 CAO        19.1630   -5.2090   13.2810 C.3       1 1VA601      0.0000 
     16 CAV        18.1590   -5.8600   12.5040 C.2       1 1VA601      0.0000 
     17 NAQ        18.4410   -7.1070   12.0780 N.2       1 1VA601      0.0000 
     18 CAX        17.5890   -7.8250   11.3620 C.ar      1 1VA601      0.0000 
     19 CAK        17.9730   -9.1240   11.0400 C.ar      1 1VA601      0.0000 
     20 CAG        17.1300   -9.9350   10.3000 C.ar      1 1VA601      0.0000 
     21 CAH        15.8960   -9.4240    9.9220 C.ar      1 1VA601      0.0000 
     22 CAL        15.4840   -8.1420   10.3280 C.ar      1 1VA601      0.0000 
     23 CAY        16.3130   -7.3400   11.0660 C.ar      1 1VA601      0.0000 
     24 CAW        15.9410   -6.0520   11.4490 C.2       1 1VA601      0.0000 
     25 OAB        14.8110   -5.5680   11.1920 O.2       1 1VA601      0.0000 
     26 NAS        16.8820   -5.3300   12.1810 N.am      1 1VA601      0.0000 
     27 H          23.4347   -6.1134   14.5946 H         1 1VA601      0.0000 
     28 H          22.2323   -7.7083   15.9609 H         1 1VA601      0.0000 
     29 H          21.1788   -7.0066   18.0195 H         1 1VA601      0.0000 
     30 H          21.4033   -4.7056   18.7595 H         1 1VA601      0.0000 
     31 H          22.6629   -3.1383   17.4375 H         1 1VA601      0.0000 
     32 H          24.4047   -4.0210   14.3032 H         1 1VA601      0.0000 
     33 H          24.5754   -2.9776   15.7252 H         1 1VA601      0.0000 
     34 H          22.3500   -2.0459   15.3313 H         1 1VA601      0.0000 
     35 H          24.1825   -1.9484   12.9336 H         1 1VA601      0.0000 
     36 H          24.3512   -1.0094   14.4268 H         1 1VA601      0.0000 
     37 H          22.2236   -3.6508   12.7680 H         1 1VA601      0.0000 
     38 H          19.9948   -3.7965   11.9078 H         1 1VA601      0.0000 
     39 H          18.6313   -3.1815   12.8577 H         1 1VA601      0.0000 
     40 H          18.8667   -5.1881   14.3698 H         1 1VA601      0.0000 
     41 H          20.1159   -5.8138   13.2799 H         1 1VA601      0.0000 
     42 H          18.8873   -9.4790   11.3549 H         1 1VA601      0.0000 
     43 H          17.4052  -10.8785   10.0398 H         1 1VA601      0.0000 
     44 H          15.2627   -9.9896    9.3316 H         1 1VA601      0.0000 
     45 H          14.5398   -7.8157   10.0575 H         1 1VA601      0.0000 
     46 H          16.6517   -4.3707   12.5063 H         1 1VA601      0.0000 
     47 H          21.7822   -0.8521   13.5210 H         1 1VA601      0.0000 
@<TRIPOS>BOND
     1    2    1 ar   
     2    6    1 ar   
     3   27    1 1    
     4    3    2 ar   
     5   28    2 1    
     6    4    3 ar   
     7   29    3 1    
     8    5    4 ar   
     9   30    4 1    
    10    6    5 ar   
    11   31    5 1    
    12    7    6 1    
    13    8    7 1    
    14   32    7 1    
    15   33    7 1    
    16    9    8 1    
    17   11    8 1    
    18   34    8 1    
    19   10    9 1    
    20   35    9 1    
    21   36    9 1    
    22   47   10 1    
    23   12   11 am   
    24   37   11 1    
    25   13   12 2    
    26   14   12 1    
    27   15   14 1    
    28   38   14 1    
    29   39   14 1    
    30   16   15 1    
    31   40   15 1    
    32   41   15 1    
    33   17   16 2    
    34   26   16 1    
    35   18   17 1    
    36   19   18 ar   
    37   23   18 ar   
    38   20   19 ar   
    39   42   19 1    
    40   21   20 ar   
    41   43   20 1    
    42   22   21 ar   
    43   44   21 1    
    44   23   22 ar   
    45   45   22 1    
    46   24   23 1    
    47   25   24 2    
    48   26   24 am   
    49   46   26 1    
@<TRIPOS>SUBSTRUCTURE
     1 1VA601      1 GROUP   
@<TRIPOS>SET

