#    Name: 2r9r_NAP_2_INTS_M
#    Modification time : Mon Mar 24 23:28:58 2014

@<TRIPOS>MOLECULE
2r9r_NAP_2_INTS_M
  120     0    12     0     0
SMALL
NO_CHARGES


@<TRIPOS>ATOM
      1 N          18.3285   35.5735  222.9845 N.am      2 SEC2        0.0000 
      2 N          18.9020   36.5750  221.9750 N.am     10 SEL2        0.0000 
      3 N          17.7550   34.5720  223.9940 N.am      6 SEP2        0.0000 
      4 N          20.2115   36.4270  222.1505 N.am      2 SEC2        0.0000 
      5 N          21.5210   36.2790  222.3260 N.am      6 SEP2        0.0000 
      6 CA         16.7960   36.9995  217.7150 C.3       4 GLC5        0.0000 
      7 CA         18.2170   36.0860  218.2860 C.3      12 GLL5        0.0000 
      8 CA         15.3750   37.9130  217.1440 C.3       8 GLP5        0.0000 
      9 CA         20.4775   34.2570  218.5195 C.3       4 GLC5        0.0000 
     10 CA         19.2700   35.6320  217.3080 C.3      12 GLL5        0.0000 
     11 CA         21.6850   32.8820  219.7310 C.3       8 GLP5        0.0000 
     12 CA         17.0935   36.7075  216.5115 C.3       4 GLC5        0.0000 
     13 CA         18.8120   35.5020  215.8790 C.3      12 GLL5        0.0000 
     14 CA         17.1385   35.6220  214.9365 C.3       4 GLC5        0.0000 
     15 CA         15.4650   35.7420  213.9940 C.3       8 GLP5        0.0000 
     16 N          19.7760   37.7455  216.0020 N.am      2 SEC2        0.0000 
     17 N          19.1840   36.6910  215.1830 N.am     10 SEL2        0.0000 
     18 N          20.3680   38.8000  216.8210 N.am      6 SEP2        0.0000 
     19 CA         20.6200   33.1235  218.1385 C.3       4 GLC5        0.0000 
     20 CA         19.5550   33.3650  216.5460 C.3      12 GLL5        0.0000 
     21 N          14.8925   32.1150  217.5835 N.am      2 SEC2        0.0000 
     22 N          16.2410   31.7680  217.1630 N.am     10 SEL2        0.0000 
     23 N          13.5440   32.4620  218.0040 N.am      6 SEP2        0.0000 
     24 CA         16.0825   30.9160  215.2850 C.3       4 GLC5        0.0000 
     25 CA         17.0270   30.7130  216.9040 C.3      12 GLL5        0.0000 
     26 CA         15.1380   31.1190  213.6660 C.3       8 GLP5        0.0000 
     27 CA         16.6430   28.2825  218.5510 C.3       4 GLC5        0.0000 
     28 CA         16.7380   29.3110  216.8720 C.3      12 GLL5        0.0000 
     29 CA         16.5480   27.2540  220.2300 C.3       8 GLP5        0.0000 
     30 CA         16.6005   29.9520  215.0005 C.3       4 GLC5        0.0000 
     31 CA         16.4630   30.5930  213.1290 C.3       8 GLP5        0.0000 
     32 O          15.0340   27.3750  217.5280 O.2       1 ALC1        0.0000 
     33 O          15.5260   28.8190  217.1270 O.2       9 ALL1        0.0000 
     34 O          14.5420   25.9310  217.9290 O.2       5 ALP1        0.0000 
     35 O          14.3750   29.5340  217.6255 O.2       1 ALC1        0.0000 
     36 O          13.2240   30.2490  218.1240 O.2       5 ALP1        0.0000 
     37 CA         19.7230   28.5595  217.9125 C.3       4 GLC5        0.0000 
     38 CA         19.0330   28.9420  216.3030 C.3      12 GLL5        0.0000 
     39 CA         20.4130   28.1770  219.5220 C.3       8 GLP5        0.0000 
     40 CA         20.8295   29.3670  216.1745 C.3       4 GLC5        0.0000 
     41 CA         22.6260   29.7920  216.0460 C.3       8 GLP5        0.0000 
     42 CA         17.7480   29.7675  214.7160 C.3       4 GLC5        0.0000 
     43 N          20.7800   30.3600  215.5560 N.am      2 SEC2        0.0000 
     44 N          19.4180   30.2680  216.3150 N.am     10 SEL2        0.0000 
     45 N          22.1420   30.4520  214.7970 N.am      6 SEP2        0.0000 
     46 CA         17.4125   30.8585  214.8775 C.3       4 GLC5        0.0000 
     47 CA         18.3620   31.1240  216.6260 C.3      12 GLL5        0.0000 
     48 NZ         19.2965   39.1490  217.6900 N.4       3 LYC4        0.0000 
     49 NZ         18.2250   39.4980  218.5590 N.4      11 LYL4        0.0000 
     50 NZ         21.5920   38.8500  217.3190 N.4       7 LYP4        0.0000 
     51 N          19.2965   39.1490  217.6900 N.am      2 SEC2        0.0000 
     52 N          18.2250   39.4980  218.5590 N.am     10 SEL2        0.0000 
     53 N          19.6630   39.9205  222.0625 N.am      2 SEC2        0.0000 
     54 N          19.5570   39.6040  220.7700 N.am     10 SEL2        0.0000 
     55 N          19.7690   40.2370  223.3550 N.am      6 SEP2        0.0000 
     56 N          20.6695   39.4065  219.6820 N.am      2 SEC2        0.0000 
     57 N          21.7820   39.2090  218.5940 N.am      6 SEP2        0.0000 
     58 CA         15.6260   39.3140  218.7355 C.3       4 GLC5        0.0000 
     59 CA         15.8770   40.7150  220.3270 C.3      12 GLL5        0.0000 
     60 CA         15.7595   42.4065  222.4170 C.3       4 GLC5        0.0000 
     61 CA         15.4790   42.1400  220.2150 C.3      12 GLL5        0.0000 
     62 CA         16.0400   42.6730  224.6190 C.3       8 GLP5        0.0000 
     63 N          16.6275   43.5485  216.7770 N.am      2 SEC2        0.0000 
     64 N          16.0450   42.7690  217.9010 N.am     10 SEL2        0.0000 
     65 N          17.2100   44.3280  215.6530 N.am      6 SEP2        0.0000 
     66 CA         16.4675   45.9730  218.6450 C.3       4 GLC5        0.0000 
     67 CA         15.8310   44.3870  219.7580 C.3      12 GLL5        0.0000 
     68 CA         17.1040   47.5590  217.5320 C.3       8 GLP5        0.0000 
     69 O          14.0570   45.7635  219.8115 O.2       1 ALC1        0.0000 
     70 O          14.5380   44.6520  219.2210 O.2       9 ALL1        0.0000 
     71 O          13.5760   46.8750  220.4020 O.2       5 ALP1        0.0000 
     72 CA         15.9395   43.4265  222.9485 C.3       4 GLC5        0.0000 
     73 CA         15.8390   44.1800  221.2780 C.3      12 GLL5        0.0000 
     74 CA         13.9595   44.2800  221.9175 C.3       4 GLC5        0.0000 
     75 CA         12.0800   44.3800  222.5570 C.3       8 GLP5        0.0000 
     76 N          18.9220   49.5455  224.1485 N.am      2 SEC2        0.0000 
     77 N          19.0160   48.0840  224.5810 N.am     10 SEL2        0.0000 
     78 N          18.8280   51.0070  223.7160 N.am      6 SEP2        0.0000 
     79 N          20.0430   48.3750  225.5160 N.am      2 SEC2        0.0000 
     80 N          21.0700   48.6660  226.4510 N.am      6 SEP2        0.0000 
     81 N          20.3360   48.1180  224.4290 N.am      2 SEC2        0.0000 
     82 N          21.6560   48.1520  224.2770 N.am      6 SEP2        0.0000 
     83 O          16.7285   48.5795  225.8265 O.2       1 ALC1        0.0000 
     84 O          16.8210   47.7020  224.8370 O.2       9 ALL1        0.0000 
     85 O          16.6360   49.4570  226.8160 O.2       5 ALP1        0.0000 
     86 O          15.5105   47.4320  224.4105 O.2       1 ALC1        0.0000 
     87 O          14.2000   47.1620  223.9840 O.2       5 ALP1        0.0000 
     88 CA         18.6700   44.1880  219.5475 C.3       4 GLC5        0.0000 
     89 CA         18.3780   44.0250  221.7620 C.3      12 GLL5        0.0000 
     90 CA         18.9620   44.3510  217.3330 C.3       8 GLP5        0.0000 
     91 CA         17.2090   43.3490  223.1905 C.3       4 GLC5        0.0000 
     92 NZ         22.4710   31.8055  214.7885 N.4       3 LYC4        0.0000 
     93 NZ         22.8000   33.1590  214.7800 N.4      11 LYL4        0.0000 
     94 NZ         22.1420   30.4520  214.7970 N.4       7 LYP4        0.0000 
     95 N          22.4710   31.8055  214.7885 N.am      2 SEC2        0.0000 
     96 N          22.8000   33.1590  214.7800 N.am     10 SEL2        0.0000 
     97 N          24.1025   33.9305  214.4655 N.am      2 SEC2        0.0000 
     98 N          25.4050   34.7020  214.1510 N.am      6 SEP2        0.0000 
     99 NZ         21.5045   31.8085  213.9420 N.4       3 LYC4        0.0000 
    100 NZ         20.8670   33.1650  213.0870 N.4      11 LYL4        0.0000 
    101 N          20.1485   33.6040  212.0920 N.am      2 SEC2        0.0000 
    102 N          20.8670   33.1650  213.0870 N.am     10 SEL2        0.0000 
    103 N          19.4300   34.0430  211.0970 N.am      6 SEP2        0.0000 
    104 N          19.8395   32.2020  213.0995 N.am      2 SEC2        0.0000 
    105 N          18.8120   31.2390  213.1120 N.am      6 SEP2        0.0000 
    106 N          22.6765   35.8405  212.0780 N.am      2 SEC2        0.0000 
    107 N          22.5080   35.0940  213.1950 N.am     10 SEL2        0.0000 
    108 N          22.8450   36.5870  210.9610 N.am      6 SEP2        0.0000 
    109 CA         17.2772   31.4767  218.6400 C.3       4 GLC5        0.0000 
    110 CA         16.8600   32.0350  220.5150 C.3       8 GLP5        0.0000 
    111 CA         13.8810   41.6382  221.1905 C.3       4 GLC5        0.0000 
    112 CA         12.0840   41.8490  222.1100 C.3       8 GLP5        0.0000 
    113 CA         17.5033   44.0310  218.4178 C.3       4 GLC5        0.0000 
    114 CA         16.2580   43.0350  219.2470 C.3      12 GLL5        0.0000 
    115 CA         14.4119   43.2401  218.4293 C.3       4 GLC5        0.0000 
    116 CA         12.9740   42.9930  217.1140 C.3       8 GLP5        0.0000 
    117 CA         16.8072   47.6305  222.4595 C.3       4 GLC5        0.0000 
    118 CA         17.0010   45.7220  222.7990 C.3      12 GLL5        0.0000 
    119 CA         16.0620   49.2750  221.7980 C.3       8 GLP5        0.0000 
    120 CA         16.7963   44.3295  223.8700 C.3       4 GLC5        0.0000 
@<TRIPOS>BOND
@<TRIPOS>SUBSTRUCTURE
     1 ALC1       32 GROUP        1 X    ALC  0     ROOT ALC X 1
     2 SEC2        1 GROUP        1 X    SEC  0     **** SEC X 2
     3 LYC4       48 GROUP        1 X    LYC  0     **** LYC X 4
     4 GLC5        6 GROUP        1 X    GLC  0     **** GLC X 6
     5 ALP1       34 GROUP        1 Y    ALP  0     ROOT ALP Y 8
     6 SEP2        3 GROUP        1 Y    SEP  0     **** SEP Y 9
     7 LYP4       50 GROUP        1 Y    LYP  0     **** LYP Y 11
     8 GLP5        8 GROUP        1 Y    GLP  0     **** GLP Y 13
     9 ALL1       33 GROUP        1 Z    ALL  0     ROOT ALL Z 15
    10 SEL2        2 GROUP        1 Z    SEL  0     **** SEL Z 16
    11 LYL4       49 GROUP        1 Z    LYL  0     **** LYL Z 18
    12 GLL5        7 GROUP        1 Z    GLL  0     **** GLL Z 20
@<TRIPOS>SET

