#    Name: 2r9r_NAP_2_ligand
#    Modification time : Mon Mar 24 23:28:58 2014

@<TRIPOS>MOLECULE
2r9r_NAP_2_ligand
   73    77     1     0     0
SMALL
NO_CHARGES


@<TRIPOS>ATOM
      1 PA         17.9750   36.5670  220.8270 P.3       1 NAP1001     0.0000 
      2 O1A        18.9020   36.5750  221.9750 O.co2     1 NAP1001     0.0000 
      3 O2A        16.7170   35.7790  220.8630 O.co2     1 NAP1001     0.0000 
      4 O5B        18.8540   36.1990  219.5700 O.3       1 NAP1001     0.0000 
      5 C5B        18.2170   36.0860  218.2860 C.3       1 NAP1001     0.0000 
      6 C4B        19.2700   35.6320  217.3080 C.3       1 NAP1001     0.0000 
      7 O4B        19.6950   34.2410  217.6920 O.3       1 NAP1001     0.0000 
      8 C3B        18.8120   35.5020  215.8790 C.3       1 NAP1001     0.0000 
      9 O3B        19.1840   36.6910  215.1830 O.3       1 NAP1001     0.0000 
     10 C2B        19.5460   34.2840  215.3780 C.3       1 NAP1001     0.0000 
     11 O2B        20.8730   34.6750  215.0360 O.3       1 NAP1001     0.0000 
     12 C1B        19.5550   33.3650  216.5460 C.3       1 NAP1001     0.0000 
     13 N9A        18.3750   32.4740  216.7320 N.pl3     1 NAP1001     0.0000 
     14 C8A        17.0680   32.8090  217.0550 C.2       1 NAP1001     0.0000 
     15 N7A        16.2410   31.7680  217.1630 N.2       1 NAP1001     0.0000 
     16 C5A        17.0270   30.7130  216.9040 C.ar      1 NAP1001     0.0000 
     17 C6A        16.7380   29.3110  216.8720 C.ar      1 NAP1001     0.0000 
     18 N6A        15.5260   28.8190  217.1270 N.pl3     1 NAP1001     0.0000 
     19 N1A        17.7960   28.4750  216.5610 N.ar      1 NAP1001     0.0000 
     20 C2A        19.0330   28.9420  216.3030 C.ar      1 NAP1001     0.0000 
     21 N3A        19.4180   30.2680  216.3150 N.ar      1 NAP1001     0.0000 
     22 C4A        18.3620   31.1240  216.6260 C.ar      1 NAP1001     0.0000 
     23 O3         17.6070   38.1310  220.5530 O.3       1 NAP1001     0.0000 
     24 PN         18.2280   39.4790  220.0630 P.3       1 NAP1001     0.0000 
     25 O1N        18.2250   39.4980  218.5590 O.co2     1 NAP1001     0.0000 
     26 O2N        19.5570   39.6040  220.7700 O.co2     1 NAP1001     0.0000 
     27 O5D        17.2680   40.6110  220.7040 O.3       1 NAP1001     0.0000 
     28 C5D        15.8770   40.7150  220.3270 C.3       1 NAP1001     0.0000 
     29 C4D        15.4790   42.1400  220.2150 C.3       1 NAP1001     0.0000 
     30 O4D        15.6540   42.8210  221.4950 O.3       1 NAP1001     0.0000 
     31 C3D        16.2580   43.0350  219.2470 C.3       1 NAP1001     0.0000 
     32 O3D        16.0450   42.7690  217.9010 O.3       1 NAP1001     0.0000 
     33 C2D        15.8310   44.3870  219.7580 C.3       1 NAP1001     0.0000 
     34 O2D        14.5380   44.6520  219.2210 O.3       1 NAP1001     0.0000 
     35 C1D        15.8390   44.1800  221.2780 C.3       1 NAP1001     0.0000 
     36 N1N        17.0920   44.6420  221.9680 N.pl3     1 NAP1001     0.0000 
     37 C2N        17.0010   45.7220  222.7990 C.ar      1 NAP1001     0.0000 
     38 C3N        18.1040   46.2500  223.4430 C.ar      1 NAP1001     0.0000 
     39 C7N        18.0110   47.4310  224.3470 C.2       1 NAP1001     0.0000 
     40 O7N        19.0160   48.0840  224.5810 O.2       1 NAP1001     0.0000 
     41 N7N        16.8210   47.7020  224.8370 N.am      1 NAP1001     0.0000 
     42 C4N        19.3930   45.6500  223.2380 C.ar      1 NAP1001     0.0000 
     43 C5N        19.5080   44.5340  222.4000 C.ar      1 NAP1001     0.0000 
     44 C6N        18.3780   44.0250  221.7620 C.ar      1 NAP1001     0.0000 
     45 P2B        21.8460   33.9580  213.9490 P.3       1 NAP1001     0.0000 
     46 O1X        22.8000   33.1590  214.7800 O.co2     1 NAP1001     0.0000 
     47 O2X        20.8670   33.1650  213.0870 O.co2     1 NAP1001     0.0000 
     48 O3X        22.5080   35.0940  213.1950 O.co2     1 NAP1001     0.0000 
     49 H          17.8213   37.0409  217.9525 H         1 NAP1001     0.0000 
     50 H          17.4172   35.3514  218.3017 H         1 NAP1001     0.0000 
     51 H          20.1309   36.2628  217.3561 H         1 NAP1001     0.0000 
     52 H          17.7735   35.3152  215.8764 H         1 NAP1001     0.0000 
     53 H          19.0092   33.8627  214.5841 H         1 NAP1001     0.0000 
     54 H          20.4684   32.7539  216.4912 H         1 NAP1001     0.0000 
     55 H          16.7949   33.7628  217.1905 H         1 NAP1001     0.0000 
     56 H          15.4400   27.8232  217.0967 H         1 NAP1001     0.0000 
     57 H          14.8116   29.4899  217.3257 H         1 NAP1001     0.0000 
     58 H          19.8025   28.2247  216.0637 H         1 NAP1001     0.0000 
     59 H          15.2356   40.2207  221.0727 H         1 NAP1001     0.0000 
     60 H          15.6988   40.2156  219.3623 H         1 NAP1001     0.0000 
     61 H          14.4205   42.2247  219.9473 H         1 NAP1001     0.0000 
     62 H          17.3132   42.9219  219.5599 H         1 NAP1001     0.0000 
     63 H          16.5658   45.0876  219.4992 H         1 NAP1001     0.0000 
     64 H          14.9896   44.7436  221.6800 H         1 NAP1001     0.0000 
     65 H          16.0662   46.1705  222.9583 H         1 NAP1001     0.0000 
     66 H          16.7705   48.4773  225.4666 H         1 NAP1001     0.0000 
     67 H          16.0752   47.1081  224.5353 H         1 NAP1001     0.0000 
     68 H          20.2043   46.0440  223.7043 H         1 NAP1001     0.0000 
     69 H          20.4231   44.0940  222.2578 H         1 NAP1001     0.0000 
     70 H          18.4396   43.2153  221.1443 H         1 NAP1001     0.0000 
     71 H          20.1596   36.5840  214.9913 H         1 NAP1001     0.0000 
     72 H          16.7171   42.0666  217.6666 H         1 NAP1001     0.0000 
     73 H          14.2293   45.4812  219.6870 H         1 NAP1001     0.0000 
@<TRIPOS>BOND
     1    2    1 ar   
     2    3    1 ar   
     3    4    1 1    
     4   23    1 1    
     5    5    4 1    
     6    6    5 1    
     7   49    5 1    
     8   50    5 1    
     9    7    6 1    
    10    8    6 1    
    11   51    6 1    
    12   12    7 1    
    13    9    8 1    
    14   10    8 1    
    15   52    8 1    
    16   71    9 1    
    17   11   10 1    
    18   12   10 1    
    19   53   10 1    
    20   45   11 1    
    21   13   12 1    
    22   54   12 1    
    23   14   13 1    
    24   22   13 1    
    25   15   14 2    
    26   55   14 1    
    27   16   15 1    
    28   17   16 ar   
    29   22   16 ar   
    30   18   17 1    
    31   19   17 ar   
    32   56   18 1    
    33   57   18 1    
    34   20   19 ar   
    35   21   20 ar   
    36   58   20 1    
    37   22   21 ar   
    38   24   23 1    
    39   25   24 ar   
    40   26   24 ar   
    41   27   24 1    
    42   28   27 1    
    43   29   28 1    
    44   59   28 1    
    45   60   28 1    
    46   30   29 1    
    47   31   29 1    
    48   61   29 1    
    49   35   30 1    
    50   32   31 1    
    51   33   31 1    
    52   62   31 1    
    53   72   32 1    
    54   34   33 1    
    55   35   33 1    
    56   63   33 1    
    57   73   34 1    
    58   36   35 1    
    59   64   35 1    
    60   37   36 ar   
    61   44   36 ar   
    62   38   37 ar   
    63   65   37 1    
    64   39   38 1    
    65   42   38 ar   
    66   40   39 2    
    67   41   39 am   
    68   66   41 1    
    69   67   41 1    
    70   43   42 ar   
    71   68   42 1    
    72   44   43 ar   
    73   69   43 1    
    74   70   44 1    
    75   46   45 ar   
    76   47   45 ar   
    77   48   45 ar   
@<TRIPOS>SUBSTRUCTURE
     1 NAP1001     1 GROUP   
@<TRIPOS>SET

