#    Name: 1oip_VIV_1_INTS_M
#    Modification time : Mon Mar 24 20:12:12 2014

@<TRIPOS>MOLECULE
1oip_VIV_1_INTS_M
  115     0     6     0     0
SMALL
NO_CHARGES


@<TRIPOS>ATOM
      1 O          -9.9120   -2.6630   14.4900 O.2       1 ALC1        0.0000 
      2 O         -11.1210   -1.9750   14.4630 O.2       5 ALL1        0.0000 
      3 O          -8.7030   -3.3510   14.5170 O.2       3 ALP1        0.0000 
      4 CA        -11.4185   11.9355   16.8430 C.3       2 GLC5        0.0000 
      5 CA        -11.1940   10.5260   18.2630 C.3       6 GLL5        0.0000 
      6 CA        -11.6430   13.3450   15.4230 C.3       4 GLP5        0.0000 
      7 CA        -10.2840   12.3730   18.5915 C.3       2 GLC5        0.0000 
      8 CA         -9.3740   14.2200   18.9200 C.3       4 GLP5        0.0000 
      9 CA         -9.3300   10.4035   17.6820 C.3       2 GLC5        0.0000 
     10 CA         -7.4660   10.2810   17.1010 C.3       4 GLP5        0.0000 
     11 CA        -12.5170   -0.3545   12.3750 C.3       2 GLC5        0.0000 
     12 CA        -11.8440    0.6640   13.7370 C.3       6 GLL5        0.0000 
     13 CA        -13.1900   -1.3730   11.0130 C.3       4 GLP5        0.0000 
     14 CA        -13.5535    1.6025   12.6810 C.3       2 GLC5        0.0000 
     15 CA        -15.2630    2.5410   11.6250 C.3       4 GLP5        0.0000 
     16 CA        -10.3430   -0.2055   12.7205 C.3       2 GLC5        0.0000 
     17 CA         -8.8420   -1.0750   11.7040 C.3       4 GLP5        0.0000 
     18 CA        -11.7505    2.1010   12.3675 C.3       2 GLC5        0.0000 
     19 CA        -11.6570    3.5380   10.9980 C.3       4 GLP5        0.0000 
     20 CA        -11.0950    2.1740   20.1585 C.3       2 GLC5        0.0000 
     21 CA        -12.0670    2.9580   18.3410 C.3       6 GLL5        0.0000 
     22 CA        -10.1230    1.3900   21.9760 C.3       4 GLP5        0.0000 
     23 CA        -13.6520    4.0200   15.2560 C.3       2 GLC5        0.0000 
     24 CA        -12.3530    2.5540   15.8870 C.3       6 GLL5        0.0000 
     25 CA        -14.9510    5.4860   14.6250 C.3       4 GLP5        0.0000 
     26 CA        -10.5710    2.5420   14.9870 C.3       2 GLC5        0.0000 
     27 CA         -8.7890    2.5300   14.0870 C.3       4 GLP5        0.0000 
     28 CA        -14.0975    4.4755   16.5475 C.3       2 GLC5        0.0000 
     29 CA        -12.9480    3.2740   17.1430 C.3       6 GLL5        0.0000 
     30 CA        -15.2470    5.6770   15.9520 C.3       4 GLP5        0.0000 
     31 CA        -10.7285    0.1570   20.6195 C.3       2 GLC5        0.0000 
     32 CA        -11.3340   -1.0760   19.2630 C.3       6 GLL5        0.0000 
     33 CA        -11.2310   -2.2185   20.8205 C.3       2 GLC5        0.0000 
     34 CA        -11.1280   -3.3610   22.3780 C.3       4 GLP5        0.0000 
     35 CA         -9.2035   -1.8075   17.8700 C.3       2 GLC5        0.0000 
     36 CA        -10.8300   -2.9900   17.1540 C.3       6 GLL5        0.0000 
     37 CA         -7.5770   -0.6250   18.5860 C.3       4 GLP5        0.0000 
     38 CA         -9.9265   -4.4305   17.6535 C.3       2 GLC5        0.0000 
     39 CA         -9.0230   -5.8710   18.1530 C.3       4 GLP5        0.0000 
     40 CA        -11.7925   -4.4920   15.8120 C.3       2 GLC5        0.0000 
     41 CA        -12.7550   -5.9940   14.4700 C.3       4 GLP5        0.0000 
     42 CA         -9.8840    2.8770   19.9280 C.3       2 GLC5        0.0000 
     43 CA        -10.6620    3.4180   17.9960 C.3       6 GLL5        0.0000 
     44 CA         -9.1060    2.3360   21.8600 C.3       4 GLP5        0.0000 
     45 CA         -9.3020    4.7880   17.8565 C.3       2 GLC5        0.0000 
     46 CA         -7.9420    6.1580   17.7170 C.3       4 GLP5        0.0000 
     47 CA         -9.7255    2.9740   16.0415 C.3       2 GLC5        0.0000 
     48 CA        -11.8950    2.6370   21.2170 C.3       2 GLC5        0.0000 
     49 CA        -12.5340    3.6100   19.6710 C.3       6 GLL5        0.0000 
     50 CA        -11.2560    1.6640   22.7630 C.3       4 GLP5        0.0000 
     51 CA        -10.6220    5.7215   19.8590 C.3       2 GLC5        0.0000 
     52 CA        -12.6170    5.1380   19.5970 C.3       6 GLL5        0.0000 
     53 CA         -8.6270    6.3050   20.1210 C.3       4 GLP5        0.0000 
     54 CA        -13.5610    4.3185   22.2815 C.3       2 GLC5        0.0000 
     55 CA        -13.1620    5.6770   20.9330 C.3       6 GLL5        0.0000 
     56 CA        -13.9600    2.9600   23.6300 C.3       4 GLP5        0.0000 
     57 CA        -11.1595    7.4875   20.5055 C.3       2 GLC5        0.0000 
     58 CA        -13.2330    7.2170   20.9410 C.3       6 GLL5        0.0000 
     59 CA         -9.0860    7.7580   20.0700 C.3       4 GLP5        0.0000 
     60 CA        -13.1785    8.3020   24.3410 C.3       2 GLC5        0.0000 
     61 CA        -13.5400    7.6440   22.3900 C.3       6 GLL5        0.0000 
     62 CA        -12.8170    8.9600   26.2920 C.3       4 GLP5        0.0000 
     63 CA        -12.5875    9.3770   22.7235 C.3       2 GLC5        0.0000 
     64 CA        -11.6350   11.1100   23.0570 C.3       4 GLP5        0.0000 
     65 CA        -15.7680    7.0210   21.1910 C.3       2 GLC5        0.0000 
     66 CA        -14.3140    7.6970   19.9710 C.3       6 GLL5        0.0000 
     67 CA        -17.2220    6.3450   22.4110 C.3       4 GLP5        0.0000 
     68 CA        -16.1600   10.1215   19.2530 C.3       2 GLC5        0.0000 
     69 CA        -14.5210    9.2290   19.8820 C.3       6 GLL5        0.0000 
     70 CA        -17.7990   11.0140   18.6240 C.3       4 GLP5        0.0000 
     71 CA        -15.4345   10.2010   21.3375 C.3       2 GLC5        0.0000 
     72 CA        -16.3480   11.1730   22.7930 C.3       4 GLP5        0.0000 
     73 CA        -12.4200   10.5495   21.3755 C.3       2 GLC5        0.0000 
     74 CA        -13.2050    9.9890   19.6940 C.3       6 GLL5        0.0000 
     75 CA        -14.7165   11.1215   15.9360 C.3       2 GLC5        0.0000 
     76 CA        -13.3300    9.8500   17.1150 C.3       6 GLL5        0.0000 
     77 CA        -16.1030   12.3930   14.7570 C.3       4 GLP5        0.0000 
     78 CA        -13.5820    6.8535   15.9270 C.3       2 GLC5        0.0000 
     79 CA        -11.9170    8.0300   15.9020 C.3       6 GLL5        0.0000 
     80 CA         -9.5280    6.0845   16.1245 C.3       2 GLC5        0.0000 
     81 CA        -11.1140    6.0110   14.5320 C.3       6 GLL5        0.0000 
     82 CA         -9.2105    5.3155   14.2780 C.3       2 GLC5        0.0000 
     83 CA         -7.3070    4.6200   14.0240 C.3       4 GLP5        0.0000 
     84 CA        -10.4582    8.9282   19.1938 C.3       2 GLC5        0.0000 
     85 CA        -12.4670    9.6710   18.3720 C.3       6 GLL5        0.0000 
     86 CA        -13.4067    0.7143   18.1567 C.3       2 GLC5        0.0000 
     87 CA        -11.9470    1.1070   16.2150 C.3       6 GLL5        0.0000 
     88 CA        -14.9320    0.5420   19.4420 C.3       4 GLP5        0.0000 
     89 CA        -10.0757    0.8102   17.6193 C.3       2 GLC5        0.0000 
     90 CA        -11.8160    0.6660   17.5280 C.3       6 GLL5        0.0000 
     91 CA         -8.2700    0.7340   18.3670 C.3       4 GLP5        0.0000 
     92 CA        -13.1655   -0.1600   18.9900 C.3       2 GLC5        0.0000 
     93 CA        -11.4640   -0.6480   17.8130 C.3       6 GLL5        0.0000 
     94 CA        -12.4072   -3.6165   17.3953 C.3       2 GLC5        0.0000 
     95 CA        -11.2210   -1.5540   16.7890 C.3       6 GLL5        0.0000 
     96 CA        -13.7890   -4.9610   17.8190 C.3       4 GLP5        0.0000 
     97 CA        -10.3120    1.5945   14.4020 C.3       2 GLC5        0.0000 
     98 CA         -9.8173    1.9610   18.2677 C.3       2 GLC5        0.0000 
     99 CA         -9.8041   -0.1773   18.3245 C.3       2 GLC5        0.0000 
    100 CA        -13.7264    1.9525   19.0742 C.3       2 GLC5        0.0000 
    101 CA        -15.2954    6.6952   22.0373 C.3       2 GLC5        0.0000 
    102 CA        -15.1523    7.6500   18.1442 C.3       2 GLC5        0.0000 
    103 CA        -15.8870    6.8370   16.3620 C.3       4 GLP5        0.0000 
    104 CA        -14.3790   11.6180   19.6140 C.3       2 GLC5        0.0000 
    105 CA        -14.8950   13.6270   19.4400 C.3       4 GLP5        0.0000 
    106 CA        -14.5855    8.7265   15.9470 C.3       2 GLC5        0.0000 
    107 CA        -16.2250    7.8090   15.4210 C.3       4 GLP5        0.0000 
    108 CA        -12.2945   11.4945   15.9480 C.3       2 GLC5        0.0000 
    109 CA        -13.1305    6.1208   14.5732 C.3       2 GLC5        0.0000 
    110 CA        -11.5060    7.5000   14.5110 C.3       6 GLL5        0.0000 
    111 CA        -12.0038    8.9255   12.7993 C.3       2 GLC5        0.0000 
    112 CA        -10.3530    8.3240   13.9400 C.3       6 GLL5        0.0000 
    113 CA        -13.0780    9.9390   11.3730 C.3       4 GLP5        0.0000 
    114 CA        -11.3909    6.7508   12.3509 C.3       2 GLC5        0.0000 
    115 CA        -11.7600    6.5400   10.3230 C.3       4 GLP5        0.0000 
@<TRIPOS>BOND
@<TRIPOS>SUBSTRUCTURE
     1 ALC1        1 GROUP        1 X    ALC  0     ROOT ALC X 1
     2 GLC5        4 GROUP        1 X    GLC  0     **** GLC X 6
     3 ALP1        3 GROUP        1 Y    ALP  0     ROOT ALP Y 8
     4 GLP5        6 GROUP        1 Y    GLP  0     **** GLP Y 13
     5 ALL1        2 GROUP        1 Z    ALL  0     ROOT ALL Z 15
     6 GLL5        5 GROUP        1 Z    GLL  0     **** GLL Z 20
@<TRIPOS>SET

