#    Name: 1oip_VIV_1_ligand
#    Modification time : Mon Mar 24 20:12:12 2014

@<TRIPOS>MOLECULE
1oip_VIV_1_ligand
   81    82     1     0     0
SMALL
NO_CHARGES


@<TRIPOS>ATOM
      1 O1        -12.0390    1.5270   18.5860 O.3       1 VIV1278     0.0000 
      2 O2        -11.1210   -1.9750   14.4630 O.3       1 VIV1278     0.0000 
      3 C1        -11.1940   10.5260   18.2630 C.3       1 VIV1278     0.0000 
      4 C2        -11.7050    0.2010   15.1790 C.ar      1 VIV1278     0.0000 
      5 C3        -11.9470    1.1070   16.2150 C.ar      1 VIV1278     0.0000 
      6 C4        -11.8160    0.6660   17.5280 C.ar      1 VIV1278     0.0000 
      7 C5        -11.4640   -0.6480   17.8130 C.ar      1 VIV1278     0.0000 
      8 C6        -11.2210   -1.5540   16.7890 C.ar      1 VIV1278     0.0000 
      9 C7        -11.3470   -1.1250   15.4680 C.ar      1 VIV1278     0.0000 
     10 C8        -11.8440    0.6640   13.7370 C.3       1 VIV1278     0.0000 
     11 C9        -12.0670    2.9580   18.3410 C.3       1 VIV1278     0.0000 
     12 C10       -12.3530    2.5540   15.8870 C.3       1 VIV1278     0.0000 
     13 C11       -12.9480    3.2740   17.1430 C.3       1 VIV1278     0.0000 
     14 C12       -11.3340   -1.0760   19.2630 C.3       1 VIV1278     0.0000 
     15 C13       -10.8300   -2.9900   17.1540 C.3       1 VIV1278     0.0000 
     16 C14       -10.6620    3.4180   17.9960 C.3       1 VIV1278     0.0000 
     17 C15       -12.5340    3.6100   19.6710 C.3       1 VIV1278     0.0000 
     18 C16       -12.6170    5.1380   19.5970 C.3       1 VIV1278     0.0000 
     19 C17       -13.1620    5.6770   20.9330 C.3       1 VIV1278     0.0000 
     20 C18       -13.2330    7.2170   20.9410 C.3       1 VIV1278     0.0000 
     21 C19       -13.5400    7.6440   22.3900 C.3       1 VIV1278     0.0000 
     22 C20       -14.3140    7.6970   19.9710 C.3       1 VIV1278     0.0000 
     23 C21       -14.5210    9.2290   19.8820 C.3       1 VIV1278     0.0000 
     24 C22       -13.2050    9.9890   19.6940 C.3       1 VIV1278     0.0000 
     25 C23       -12.4670    9.6710   18.3720 C.3       1 VIV1278     0.0000 
     26 C24       -13.3300    9.8500   17.1150 C.3       1 VIV1278     0.0000 
     27 C25       -12.5620    9.4380   15.8310 C.3       1 VIV1278     0.0000 
     28 C26       -11.9170    8.0300   15.9020 C.3       1 VIV1278     0.0000 
     29 C27       -11.5060    7.5000   14.5110 C.3       1 VIV1278     0.0000 
     30 C28       -10.3530    8.3240   13.9400 C.3       1 VIV1278     0.0000 
     31 C29       -11.1140    6.0110   14.5320 C.3       1 VIV1278     0.0000 
     32 H         -13.1037    2.5522   15.1033 H         1 VIV1278     0.0000 
     33 H         -11.4825    3.1089   15.5523 H         1 VIV1278     0.0000 
     34 H         -12.9564    4.3332   16.9560 H         1 VIV1278     0.0000 
     35 H         -13.9451    2.9050   17.3063 H         1 VIV1278     0.0000 
     36 H         -11.8337    3.3230   20.4633 H         1 VIV1278     0.0000 
     37 H         -13.5191    3.2056   19.9291 H         1 VIV1278     0.0000 
     38 H         -13.2854    5.4248   18.7995 H         1 VIV1278     0.0000 
     39 H         -11.6321    5.5449   19.4255 H         1 VIV1278     0.0000 
     40 H         -12.5115    5.3469   21.7426 H         1 VIV1278     0.0000 
     41 H         -14.1609    5.2742   21.0991 H         1 VIV1278     0.0000 
     42 H         -12.2833    7.6027   20.6583 H         1 VIV1278     0.0000 
     43 H         -15.2821    7.2322   20.2519 H         1 VIV1278     0.0000 
     44 H         -14.0788    7.3194   18.9540 H         1 VIV1278     0.0000 
     45 H         -15.0080    9.5700   20.7997 H         1 VIV1278     0.0000 
     46 H         -15.1864    9.4437   19.0412 H         1 VIV1278     0.0000 
     47 H         -12.5314    9.7570   20.5345 H         1 VIV1278     0.0000 
     48 H         -13.4056   11.0718   19.7302 H         1 VIV1278     0.0000 
     49 H         -12.1431    8.6218   18.4154 H         1 VIV1278     0.0000 
     50 H         -13.6261   10.8938   17.0254 H         1 VIV1278     0.0000 
     51 H         -14.2243    9.2350   17.1999 H         1 VIV1278     0.0000 
     52 H         -11.7738   10.1783   15.6393 H         1 VIV1278     0.0000 
     53 H         -13.2567    9.4658   14.9809 H         1 VIV1278     0.0000 
     54 H         -12.6313    7.3376   16.3506 H         1 VIV1278     0.0000 
     55 H         -11.0332    8.0792   16.5402 H         1 VIV1278     0.0000 
     56 H         -12.3593    7.6134   13.8392 H         1 VIV1278     0.0000 
     57 H         -10.5632   10.3510   19.0190 H         1 VIV1278     0.0000 
     58 H         -10.6947   10.3425   17.4162 H         1 VIV1278     0.0000 
     59 H         -11.4015   11.5042   18.2748 H         1 VIV1278     0.0000 
     60 H         -11.2212    1.4177   13.5273 H         1 VIV1278     0.0000 
     61 H         -11.6428   -0.0713   13.0898 H         1 VIV1278     0.0000 
     62 H         -12.7699    0.9848   13.5375 H         1 VIV1278     0.0000 
     63 H         -11.0733   -2.0380   19.3443 H         1 VIV1278     0.0000 
     64 H         -10.6404   -0.5424   19.7470 H         1 VIV1278     0.0000 
     65 H         -12.1928   -0.9618   19.7624 H         1 VIV1278     0.0000 
     66 H         -10.6814   -3.5526   16.3407 H         1 VIV1278     0.0000 
     67 H          -9.9861   -3.0204   17.6896 H         1 VIV1278     0.0000 
     68 H         -11.5382   -3.4411   17.6971 H         1 VIV1278     0.0000 
     69 H         -10.0168    3.2280   18.7360 H         1 VIV1278     0.0000 
     70 H         -10.3122    2.9617   17.1778 H         1 VIV1278     0.0000 
     71 H         -10.6258    4.4019   17.8210 H         1 VIV1278     0.0000 
     72 H         -12.8339    7.3332   23.0263 H         1 VIV1278     0.0000 
     73 H         -13.5983    8.6383   22.4797 H         1 VIV1278     0.0000 
     74 H         -14.4096    7.2692   22.7113 H         1 VIV1278     0.0000 
     75 H          -9.5443    8.2879   14.5271 H         1 VIV1278     0.0000 
     76 H         -10.0744    7.9971   13.0369 H         1 VIV1278     0.0000 
     77 H         -10.5995    9.2879   13.8396 H         1 VIV1278     0.0000 
     78 H         -10.8499    5.6837   13.6248 H         1 VIV1278     0.0000 
     79 H         -10.3406    5.8391   15.1422 H         1 VIV1278     0.0000 
     80 H         -11.8678    5.4329   14.8442 H         1 VIV1278     0.0000 
     81 H         -10.5256   -2.6796   14.8491 H         1 VIV1278     0.0000 
@<TRIPOS>BOND
     1    6    1 1    
     2   11    1 1    
     3    9    2 1    
     4   81    2 1    
     5   25    3 1    
     6   57    3 1    
     7   58    3 1    
     8   59    3 1    
     9    5    4 ar   
    10    9    4 ar   
    11   10    4 1    
    12    6    5 ar   
    13   12    5 1    
    14    7    6 ar   
    15    8    7 ar   
    16   14    7 1    
    17    9    8 ar   
    18   15    8 1    
    19   60   10 1    
    20   61   10 1    
    21   62   10 1    
    22   13   11 1    
    23   16   11 1    
    24   17   11 1    
    25   13   12 1    
    26   32   12 1    
    27   33   12 1    
    28   34   13 1    
    29   35   13 1    
    30   63   14 1    
    31   64   14 1    
    32   65   14 1    
    33   66   15 1    
    34   67   15 1    
    35   68   15 1    
    36   69   16 1    
    37   70   16 1    
    38   71   16 1    
    39   18   17 1    
    40   36   17 1    
    41   37   17 1    
    42   19   18 1    
    43   38   18 1    
    44   39   18 1    
    45   20   19 1    
    46   40   19 1    
    47   41   19 1    
    48   21   20 1    
    49   22   20 1    
    50   42   20 1    
    51   72   21 1    
    52   73   21 1    
    53   74   21 1    
    54   23   22 1    
    55   43   22 1    
    56   44   22 1    
    57   24   23 1    
    58   45   23 1    
    59   46   23 1    
    60   25   24 1    
    61   47   24 1    
    62   48   24 1    
    63   26   25 1    
    64   49   25 1    
    65   27   26 1    
    66   50   26 1    
    67   51   26 1    
    68   28   27 1    
    69   52   27 1    
    70   53   27 1    
    71   29   28 1    
    72   54   28 1    
    73   55   28 1    
    74   30   29 1    
    75   31   29 1    
    76   56   29 1    
    77   75   30 1    
    78   76   30 1    
    79   77   30 1    
    80   78   31 1    
    81   79   31 1    
    82   80   31 1    
@<TRIPOS>SUBSTRUCTURE
     1 VIV1278     1 GROUP   
@<TRIPOS>SET

