#    Name: 3pcf_FHB_8_INTS_M
#    Modification time : Tue Mar 25 06:13:57 2014

@<TRIPOS>MOLECULE
3pcf_FHB_8_INTS_M
   27     0     6     0     0
SMALL
NO_CHARGES


@<TRIPOS>ATOM
      1 CA        -27.1755  -19.1880   22.6390 C.3       2 GLC5        0.0000 
      2 CA        -26.9030  -19.7990   24.5290 C.3       6 GLL5        0.0000 
      3 CA        -27.4480  -18.5770   20.7490 C.3       4 GLP5        0.0000 
      4 CA        -28.7015  -22.2540   22.6785 C.3       2 GLC5        0.0000 
      5 CA        -28.0370  -21.8960   24.7900 C.3       6 GLL5        0.0000 
      6 CA        -29.3660  -22.6120   20.5670 C.3       4 GLP5        0.0000 
      7 CA        -27.7315  -23.6900   22.7585 C.3       2 GLC5        0.0000 
      8 CA        -28.0680  -23.2840   24.7430 C.3       6 GLL5        0.0000 
      9 CA        -27.3950  -24.0960   20.7740 C.3       4 GLP5        0.0000 
     10 CA        -30.9390  -21.4575   24.5615 C.3       2 GLC5        0.0000 
     11 CA        -29.1470  -21.2290   25.3350 C.3       6 GLL5        0.0000 
     12 CA        -32.7310  -21.6860   23.7880 C.3       4 GLP5        0.0000 
     13 O         -31.1655  -21.5585   26.3730 O.2       1 ALC1        0.0000 
     14 O         -30.2220  -21.9690   25.7400 O.2       5 ALL1        0.0000 
     15 O         -32.1090  -21.1480   27.0060 O.2       3 ALP1        0.0000 
     16 CA        -30.0800  -20.5090   27.2800 C.3       2 GLC5        0.0000 
     17 CA        -29.1550  -19.8340   25.4600 C.3       6 GLL5        0.0000 
     18 CA        -31.0050  -21.1840   29.1000 C.3       4 GLP5        0.0000 
     19 CA        -30.6800  -19.2190   24.2780 C.3       2 GLC5        0.0000 
     20 CA        -32.2050  -18.6040   23.0960 C.3       4 GLP5        0.0000 
     21 CA        -28.3545  -18.5005   23.1695 C.3       2 GLC5        0.0000 
     22 CA        -28.0170  -19.1160   25.0690 C.3       6 GLL5        0.0000 
     23 CA        -28.6920  -17.8850   21.2700 C.3       4 GLP5        0.0000 
     24 CA        -25.4140  -20.7587   25.9155 C.3       2 GLC5        0.0000 
     25 CA        -23.9230  -21.0160   27.3650 C.3       4 GLP5        0.0000 
     26 CA        -28.4709  -22.3268   26.9039 C.3       2 GLC5        0.0000 
     27 CA        -28.3420  -22.7440   28.7570 C.3       4 GLP5        0.0000 
@<TRIPOS>BOND
@<TRIPOS>SUBSTRUCTURE
     1 ALC1       13 GROUP        1 X    ALC  0     ROOT ALC X 1
     2 GLC5        1 GROUP        1 X    GLC  0     **** GLC X 6
     3 ALP1       15 GROUP        1 Y    ALP  0     ROOT ALP Y 8
     4 GLP5        3 GROUP        1 Y    GLP  0     **** GLP Y 13
     5 ALL1       14 GROUP        1 Z    ALL  0     ROOT ALL Z 15
     6 GLL5        2 GROUP        1 Z    GLL  0     **** GLL Z 20
@<TRIPOS>SET

