#    Name: 3pcf_FHB_8_ligand
#    Modification time : Tue Mar 25 06:13:57 2014

@<TRIPOS>MOLECULE
3pcf_FHB_8_ligand
   15    15     1     0     0
SMALL
NO_CHARGES


@<TRIPOS>ATOM
      1 C1        -26.9030  -19.7990   24.5290 C.ar      1 FHB551      0.0000 
      2 C2        -26.9070  -21.2040   24.4030 C.ar      1 FHB551      0.0000 
      3 C3        -28.0370  -21.8960   24.7900 C.ar      1 FHB551      0.0000 
      4 F3        -28.0680  -23.2840   24.7430 F         1 FHB551      0.0000 
      5 C4        -29.1470  -21.2290   25.3350 C.ar      1 FHB551      0.0000 
      6 O4        -30.2220  -21.9690   25.7400 O.3       1 FHB551      0.0000 
      7 C5        -29.1550  -19.8340   25.4600 C.ar      1 FHB551      0.0000 
      8 C6        -28.0170  -19.1160   25.0690 C.ar      1 FHB551      0.0000 
      9 C7        -25.6850  -19.0230   24.0990 C.2       1 FHB551      0.0000 
     10 O1        -24.7210  -19.6740   23.6150 O.co2     1 FHB551      0.0000 
     11 O2        -25.6130  -17.7830   24.2300 O.co2     1 FHB551      0.0000 
     12 H         -26.0902  -21.6825   24.0344 H         1 FHB551      0.0000 
     13 H         -29.9703  -19.3516   25.8271 H         1 FHB551      0.0000 
     14 H         -27.9867  -18.0995   25.1718 H         1 FHB551      0.0000 
     15 H         -30.9774  -21.3164   25.8003 H         1 FHB551      0.0000 
@<TRIPOS>BOND
     1    2    1 ar   
     2    8    1 ar   
     3    9    1 1    
     4    3    2 ar   
     5   12    2 1    
     6    4    3 1    
     7    5    3 ar   
     8    6    5 1    
     9    7    5 ar   
    10   15    6 1    
    11    8    7 ar   
    12   13    7 1    
    13   14    8 1    
    14   10    9 ar   
    15   11    9 ar   
@<TRIPOS>SUBSTRUCTURE
     1 FHB551      1 GROUP   
@<TRIPOS>SET

