#    Name: 1n5w_MCN_1_INTS_M
#    Modification time : Tue Mar 25 12:26:49 2014

@<TRIPOS>MOLECULE
1n5w_MCN_1_INTS_M
  135     0     9     0     0
SMALL
NO_CHARGES


@<TRIPOS>ATOM
      1 N          82.8120  146.1055  157.5365 N.am      2 SEC2        0.0000 
      2 N          84.0090  145.6260  156.6920 N.am      8 SEL2        0.0000 
      3 N          81.6150  146.5850  158.3810 N.am      5 SEP2        0.0000 
      4 CA         87.2695  145.4295  157.4685 C.3       3 GLC5        0.0000 
      5 CA         86.1330  144.7560  155.9040 C.3       9 GLL5        0.0000 
      6 CA         88.4060  146.1030  159.0330 C.3       6 GLP5        0.0000 
      7 CA         84.9555  143.0175  155.6685 C.3       3 GLC5        0.0000 
      8 CA         83.7780  141.2790  155.4330 C.3       6 GLP5        0.0000 
      9 CA         88.0110  143.5685  155.8765 C.3       3 GLC5        0.0000 
     10 CA         89.8890  142.3810  155.8490 C.3       6 GLP5        0.0000 
     11 CA         87.8600  146.1325  156.5475 C.3       3 GLC5        0.0000 
     12 CA         86.2540  145.8270  155.0810 C.3       9 GLL5        0.0000 
     13 CA         89.4660  146.4380  158.0140 C.3       6 GLP5        0.0000 
     14 CA         84.2465  145.4755  154.1555 C.3       3 GLC5        0.0000 
     15 CA         82.2390  145.1240  153.2300 C.3       6 GLP5        0.0000 
     16 N          81.8785  147.9715  156.0440 N.am      2 SEC2        0.0000 
     17 N          83.1070  147.4460  155.5890 N.am      8 SEL2        0.0000 
     18 N          80.6500  148.4970  156.4990 N.am      5 SEP2        0.0000 
     19 O          83.9725  143.5455  158.7675 O.2       1 ALC1        0.0000 
     20 O          84.9500  143.7400  157.7360 O.2       7 ALL1        0.0000 
     21 O          82.9950  143.3510  159.7990 O.2       4 ALP1        0.0000 
     22 O          86.3080  143.1120  157.5665 O.2       1 ALC1        0.0000 
     23 O          87.6660  142.4840  157.3970 O.2       4 ALP1        0.0000 
     24 CA         84.5885  149.0490  152.8005 C.3       3 GLC5        0.0000 
     25 CA         85.4340  148.1020  154.3310 C.3       9 GLL5        0.0000 
     26 CA         83.7430  149.9960  151.2700 C.3       6 GLP5        0.0000 
     27 CA         85.7425  150.7305  155.6410 C.3       3 GLC5        0.0000 
     28 CA         86.6580  148.8640  155.0000 C.3       9 GLL5        0.0000 
     29 CA         84.8270  152.5970  156.2820 C.3       6 GLP5        0.0000 
     30 O          86.1085  151.1960  155.8930 O.2       1 ALC1        0.0000 
     31 O          86.0820  149.7040  156.0470 O.2       7 ALL1        0.0000 
     32 O          86.1350  152.6880  155.7390 O.2       4 ALP1        0.0000 
     33 CA         88.7965  150.9820  153.6485 C.3       3 GLC5        0.0000 
     34 CA         87.2950  149.5720  153.7870 C.3       9 GLL5        0.0000 
     35 CA         90.2980  152.3920  153.5100 C.3       6 GLP5        0.0000 
     36 N          86.3135  151.7515  154.6650 N.am      2 SEC2        0.0000 
     37 N          86.4920  150.8150  153.5910 N.am      8 SEL2        0.0000 
     38 N          86.1350  152.6880  155.7390 N.am      5 SEP2        0.0000 
     39 O          86.7485  151.2380  152.3325 O.2       1 ALC1        0.0000 
     40 O          86.4920  150.8150  153.5910 O.2       7 ALL1        0.0000 
     41 O          87.0050  151.6610  151.0740 O.2       4 ALP1        0.0000 
     42 N          88.8975  147.3365  155.3045 N.am      2 SEC2        0.0000 
     43 N          88.9020  147.3940  153.6030 N.am      8 SEL2        0.0000 
     44 N          88.8930  147.2790  157.0060 N.am      5 SEP2        0.0000 
     45 N          91.1490  146.8760  156.3250 N.am      2 SEC2        0.0000 
     46 N          90.6030  146.3900  155.0910 N.am      8 SEL2        0.0000 
     47 N          91.6950  147.3620  157.5590 N.am      5 SEP2        0.0000 
     48 N          89.7480  146.8345  156.0485 N.am      2 SEC2        0.0000 
     49 N          89.1235  143.5775  153.4490 N.am      2 SEC2        0.0000 
     50 N          89.4160  144.9070  153.2700 N.am      8 SEL2        0.0000 
     51 N          88.8310  142.2480  153.6280 N.am      5 SEP2        0.0000 
     52 N          89.2785  144.0370  152.1335 N.am      2 SEC2        0.0000 
     53 N          89.1410  143.1670  150.9970 N.am      5 SEP2        0.0000 
     54 N          93.6780  147.3890  154.5880 N.am      2 SEC2        0.0000 
     55 N          93.3320  147.5690  153.1500 N.am      8 SEL2        0.0000 
     56 N          94.0240  147.2090  156.0260 N.am      5 SEP2        0.0000 
     57 N          93.6710  148.6195  153.8615 N.am      2 SEC2        0.0000 
     58 N          94.0100  149.6700  154.5730 N.am      5 SEP2        0.0000 
     59 N          91.3420  150.3450  152.9530 N.am      2 SEC2        0.0000 
     60 N          91.2690  149.0780  152.6510 N.am      8 SEL2        0.0000 
     61 N          91.4150  151.6120  153.2550 N.am      5 SEP2        0.0000 
     62 CA         91.9375  148.5300  149.6525 C.3       3 GLC5        0.0000 
     63 CA         93.4770  147.0890  150.2310 C.3       9 GLL5        0.0000 
     64 CA         90.3980  149.9710  149.0740 C.3       6 GLP5        0.0000 
     65 CA         94.3215  148.5620  150.8040 C.3       3 GLC5        0.0000 
     66 CA         95.1660  150.0350  151.3770 C.3       6 GLP5        0.0000 
     67 CA         91.0880  144.9990  149.4350 C.3       3 GLC5        0.0000 
     68 CA         92.8880  146.2030  149.1770 C.3       9 GLL5        0.0000 
     69 CA         89.2880  143.7950  149.6930 C.3       6 GLP5        0.0000 
     70 CA         96.8220  145.8820  149.9940 C.3       3 GLC5        0.0000 
     71 CA         95.5420  145.1450  149.0480 C.3       9 GLL5        0.0000 
     72 CA         98.1020  146.6190  150.9400 C.3       6 GLP5        0.0000 
     73 CA         96.4930  144.0980  150.5355 C.3       3 GLC5        0.0000 
     74 CA         97.4440  143.0510  152.0230 C.3       6 GLP5        0.0000 
     75 CA         94.6820  144.5710  150.9000 C.3       3 GLC5        0.0000 
     76 CA         93.8220  143.9970  152.7520 C.3       6 GLP5        0.0000 
     77 CA         94.5980  143.6695  148.6165 C.3       3 GLC5        0.0000 
     78 CA         93.6540  142.1940  148.1850 C.3       6 GLP5        0.0000 
     79 CA         95.2045  143.4465  145.4015 C.3       3 GLC5        0.0000 
     80 CA         95.3890  145.1770  145.9070 C.3       9 GLL5        0.0000 
     81 CA         95.0200  141.7160  144.8960 C.3       6 GLP5        0.0000 
     82 CA         94.3140  146.9155  144.6830 C.3       3 GLC5        0.0000 
     83 CA         92.8060  146.3500  146.1080 C.3       9 GLL5        0.0000 
     84 CA         95.8220  147.4810  143.2580 C.3       6 GLP5        0.0000 
     85 CA         91.5325  144.7165  145.7475 C.3       3 GLC5        0.0000 
     86 CA         91.6790  146.3450  147.0750 C.3       9 GLL5        0.0000 
     87 CA         91.3860  143.0880  144.4200 C.3       6 GLP5        0.0000 
     88 CA         91.0385  148.1580  148.0745 C.3       3 GLC5        0.0000 
     89 CA         90.4835  145.0700  148.3840 C.3       3 GLC5        0.0000 
     90 N          92.3685  148.4375  148.3365 N.am      2 SEC2        0.0000 
     91 N          92.0080  146.9790  148.2920 N.am      8 SEL2        0.0000 
     92 N          92.7290  149.8960  148.3810 N.am      5 SEP2        0.0000 
     93 N          93.0115  148.8190  147.0610 N.am      2 SEC2        0.0000 
     94 N          93.2940  147.7420  145.7410 N.am      8 SEL2        0.0000 
     95 N          89.3915  147.0350  147.3105 N.am      2 SEC2        0.0000 
     96 N          90.5450  147.0640  146.4860 N.am      8 SEL2        0.0000 
     97 N          88.2380  147.0060  148.1350 N.am      5 SEP2        0.0000 
     98 CA         89.3250  151.1045  143.1985 C.3       3 GLC5        0.0000 
     99 CA         89.9710  150.1860  144.9340 C.3       9 GLL5        0.0000 
    100 CA         88.6790  152.0230  141.4630 C.3       6 GLP5        0.0000 
    101 CA         89.7210  152.1830  145.7135 C.3       3 GLC5        0.0000 
    102 CA         89.4710  154.1800  146.4930 C.3       6 GLP5        0.0000 
    103 CA         90.1845  150.0785  147.0040 C.3       3 GLC5        0.0000 
    104 O          87.5400  150.4880  144.6770 O.2       1 ALC1        0.0000 
    105 O          88.9290  151.0160  144.6640 O.2       7 ALL1        0.0000 
    106 O          86.1510  149.9600  144.6900 O.2       4 ALP1        0.0000 
    107 CA         92.9720  151.5170  143.5065 C.3       3 GLC5        0.0000 
    108 CA         92.4170  149.8620  144.9170 C.3       9 GLL5        0.0000 
    109 CA         93.5270  153.1720  142.0960 C.3       6 GLP5        0.0000 
    110 CA         93.3840  151.6910  145.4535 C.3       3 GLC5        0.0000 
    111 CA         94.3510  153.5200  145.9900 C.3       6 GLP5        0.0000 
    112 N          94.3700  151.0195  143.8175 N.am      2 SEC2        0.0000 
    113 N          93.4970  150.3100  144.6330 N.am      8 SEL2        0.0000 
    114 N          95.2430  151.7290  143.0020 N.am      5 SEP2        0.0000 
    115 N          94.6850  149.6010  144.0905 N.am      2 SEC2        0.0000 
    116 N          95.8730  148.8920  143.5480 N.am      5 SEP2        0.0000 
    117 CA         86.1877  144.3173  153.9342 C.3       3 GLC5        0.0000 
    118 CA         86.1820  143.3430  152.3760 C.3       6 GLP5        0.0000 
    119 CA         85.4603  149.5500  152.2405 C.3       3 GLC5        0.0000 
    120 CA         87.0600  148.6360  152.6350 C.3       9 GLL5        0.0000 
    121 CA         88.5943  149.4963  151.2280 C.3       3 GLC5        0.0000 
    122 CA         89.4930  150.7920  149.9770 C.3       6 GLP5        0.0000 
    123 CA         86.8247  147.5667  150.5895 C.3       3 GLC5        0.0000 
    124 CA         88.3310  147.7650  152.3230 C.3       9 GLL5        0.0000 
    125 CA         85.9540  146.9330  148.7000 C.3       6 GLP5        0.0000 
    126 CA         93.5023  145.3215  151.2280 C.3       3 GLC5        0.0000 
    127 CA         93.5637  144.0970  148.4487 C.3       3 GLC5        0.0000 
    128 CA         95.2668  146.4753  144.8320 C.3       3 GLC5        0.0000 
    129 CA         94.0340  145.7620  146.9050 C.3       9 GLL5        0.0000 
    130 CA         93.1670  144.5505  145.4117 C.3       3 GLC5        0.0000 
    131 CA         92.9140  143.0450  144.3170 C.3       6 GLP5        0.0000 
    132 CA         94.1827  143.8317  147.2955 C.3       3 GLC5        0.0000 
    133 CA         94.0460  148.3405  144.2295 C.3       3 GLC5        0.0000 
    134 CA         92.1230  148.5380  145.4850 C.3       9 GLL5        0.0000 
    135 CA         90.9333  149.1725  147.3453 C.3       3 GLC5        0.0000 
@<TRIPOS>BOND
@<TRIPOS>SUBSTRUCTURE
     1 ALC1       19 GROUP        1 X    ALC  0     ROOT ALC X 1
     2 SEC2        1 GROUP        1 X    SEC  0     **** SEC X 2
     3 GLC5        4 GROUP        1 X    GLC  0     **** GLC X 6
     4 ALP1       21 GROUP        1 Y    ALP  0     ROOT ALP Y 8
     5 SEP2        3 GROUP        1 Y    SEP  0     **** SEP Y 9
     6 GLP5        6 GROUP        1 Y    GLP  0     **** GLP Y 13
     7 ALL1       20 GROUP        1 Z    ALL  0     ROOT ALL Z 15
     8 SEL2        2 GROUP        1 Z    SEL  0     **** SEL Z 16
     9 GLL5        5 GROUP        1 Z    GLL  0     **** GLL Z 20
@<TRIPOS>SET

