#    Name: 1n5w_MCN_1_ligand
#    Modification time : Tue Mar 25 12:26:49 2014

@<TRIPOS>MOLECULE
1n5w_MCN_1_ligand
   62    66     1     0     0
SMALL
NO_CHARGES


@<TRIPOS>ATOM
      1 N1         85.2010  146.7830  155.0750 N.am      1 MCN3920     0.0000 
      2 C2         84.0250  146.7020  155.8290 C.2       1 MCN3920     0.0000 
      3 N3         84.0090  145.6260  156.6920 N.2       1 MCN3920     0.0000 
      4 C4         84.9830  144.6540  156.7950 C.2       1 MCN3920     0.0000 
      5 C5         86.1330  144.7560  155.9040 C.2       1 MCN3920     0.0000 
      6 C6         86.2540  145.8270  155.0810 C.2       1 MCN3920     0.0000 
      7 O2         83.1070  147.4460  155.5890 O.2       1 MCN3920     0.0000 
      8 N4         84.9500  143.7400  157.7360 N.pl3     1 MCN3920     0.0000 
      9 C1'        85.4340  148.1020  154.3310 C.3       1 MCN3920     0.0000 
     10 C2D        86.6580  148.8640  155.0000 C.3       1 MCN3920     0.0000 
     11 O2'        86.0820  149.7040  156.0470 O.3       1 MCN3920     0.0000 
     12 C3'        87.2950  149.5720  153.7870 C.3       1 MCN3920     0.0000 
     13 C4D        87.0600  148.6360  152.6350 C.3       1 MCN3920     0.0000 
     14 O4D        85.9460  147.7350  153.0430 O.3       1 MCN3920     0.0000 
     15 O3'        86.4920  150.8150  153.5910 O.3       1 MCN3920     0.0000 
     16 C5'        88.3310  147.7650  152.3230 C.3       1 MCN3920     0.0000 
     17 O5'        88.9020  147.3940  153.6030 O.3       1 MCN3920     0.0000 
     18 PA         90.0060  146.2390  153.7090 P.3       1 MCN3920     0.0000 
     19 O1A        90.6030  146.3900  155.0910 O.co2     1 MCN3920     0.0000 
     20 O2A        89.4160  144.9070  153.2700 O.co2     1 MCN3920     0.0000 
     21 O3A        91.0860  146.5790  152.5410 O.3       1 MCN3920     0.0000 
     22 PB         92.0720  147.8410  152.3940 P.3       1 MCN3920     0.0000 
     23 O1B        93.3320  147.5690  153.1500 O.co2     1 MCN3920     0.0000 
     24 O2B        91.2690  149.0780  152.6510 O.co2     1 MCN3920     0.0000 
     25 O3B        92.3560  147.7630  150.7860 O.3       1 MCN3920     0.0000 
     26 C10        93.4770  147.0890  150.2310 C.3       1 MCN3920     0.0000 
     27 C9'        92.8880  146.2030  149.1770 C.3       1 MCN3920     0.0000 
     28 C8'        94.0590  145.7970  148.2480 C.2       1 MCN3920     0.0000 
     29 S8'        95.5420  145.1450  149.0480 S.3       1 MCN3920     0.0000 
     30 C7'        94.0340  145.7620  146.9050 C.2       1 MCN3920     0.0000 
     31 S7'        95.3890  145.1770  145.9070 S.3       1 MCN3920     0.0000 
     32 C6'        92.8060  146.3500  146.1080 C.ar      1 MCN3920     0.0000 
     33 C7         91.6790  146.3450  147.0750 C.ar      1 MCN3920     0.0000 
     34 O9'        92.0080  146.9790  148.2920 O.3       1 MCN3920     0.0000 
     35 N5'        93.2940  147.7420  145.7410 N.ar      1 MCN3920     0.0000 
     36 C4A        92.1230  148.5380  145.4850 C.ar      1 MCN3920     0.0000 
     37 N8'        90.5450  147.0640  146.4860 N.ar      1 MCN3920     0.0000 
     38 C4B        90.8140  148.2100  145.7480 C.ar      1 MCN3920     0.0000 
     39 N1'        89.6820  148.9990  145.4770 N.ar      1 MCN3920     0.0000 
     40 C2'        89.9710  150.1860  144.9340 C.ar      1 MCN3920     0.0000 
     41 N2'        88.9290  151.0160  144.6640 N.pl3     1 MCN3920     0.0000 
     42 N3'        91.2390  150.6310  144.7380 N.ar      1 MCN3920     0.0000 
     43 C4'        92.4170  149.8620  144.9170 C.ar      1 MCN3920     0.0000 
     44 O4'        93.4970  150.3100  144.6330 O.3       1 MCN3920     0.0000 
     45 H          86.8199  143.9997  155.9339 H         1 MCN3920     0.0000 
     46 H          87.0568  145.9697  154.4776 H         1 MCN3920     0.0000 
     47 H          85.6943  143.0722  157.7271 H         1 MCN3920     0.0000 
     48 H          84.1835  143.7948  158.3760 H         1 MCN3920     0.0000 
     49 H          84.6219  148.6948  154.3120 H         1 MCN3920     0.0000 
     50 H          87.2994  148.1091  155.3552 H         1 MCN3920     0.0000 
     51 H          88.2808  149.7486  153.9596 H         1 MCN3920     0.0000 
     52 H          86.7917  149.1767  151.7655 H         1 MCN3920     0.0000 
     53 H          89.0000  148.3729  151.7390 H         1 MCN3920     0.0000 
     54 H          88.0019  146.9089  151.7600 H         1 MCN3920     0.0000 
     55 H          93.9820  146.4758  150.9599 H         1 MCN3920     0.0000 
     56 H          94.1698  147.7715  149.7657 H         1 MCN3920     0.0000 
     57 H          92.4461  145.3631  149.5549 H         1 MCN3920     0.0000 
     58 H          89.1591  151.8793  144.2148 H         1 MCN3920     0.0000 
     59 H          88.0243  150.6901  144.9384 H         1 MCN3920     0.0000 
     60 H          86.3017  150.6414  155.7767 H         1 MCN3920     0.0000 
     61 H          86.7009  151.1137  152.6598 H         1 MCN3920     0.0000 
     62 H          93.7617  150.8661  145.4208 H         1 MCN3920     0.0000 
@<TRIPOS>BOND
     1    2    1 am   
     2    6    1 1    
     3    9    1 1    
     4    3    2 1    
     5    7    2 2    
     6    4    3 2    
     7    5    4 1    
     8    8    4 1    
     9    6    5 2    
    10   45    5 1    
    11   46    6 1    
    12   47    8 1    
    13   48    8 1    
    14   10    9 1    
    15   14    9 1    
    16   49    9 1    
    17   11   10 1    
    18   12   10 1    
    19   50   10 1    
    20   60   11 1    
    21   13   12 1    
    22   15   12 1    
    23   51   12 1    
    24   14   13 1    
    25   16   13 1    
    26   52   13 1    
    27   61   15 1    
    28   17   16 1    
    29   53   16 1    
    30   54   16 1    
    31   18   17 1    
    32   19   18 ar   
    33   20   18 ar   
    34   21   18 1    
    35   22   21 1    
    36   23   22 ar   
    37   24   22 ar   
    38   25   22 1    
    39   26   25 1    
    40   27   26 1    
    41   55   26 1    
    42   56   26 1    
    43   28   27 1    
    44   34   27 1    
    45   57   27 1    
    46   29   28 1    
    47   30   28 2    
    48   31   30 1    
    49   32   30 1    
    50   33   32 ar   
    51   35   32 ar   
    52   34   33 1    
    53   37   33 ar   
    54   36   35 ar   
    55   38   36 ar   
    56   43   36 ar   
    57   38   37 ar   
    58   39   38 ar   
    59   40   39 ar   
    60   41   40 1    
    61   42   40 ar   
    62   58   41 1    
    63   59   41 1    
    64   43   42 ar   
    65   44   43 1    
    66   62   44 1    
@<TRIPOS>SUBSTRUCTURE
     1 MCN3920     1 GROUP   
@<TRIPOS>SET

