#    Name: 1Z3N_1_CAVITY_N1_ALL.mol2
#    Modification time : Mon Mar 10 21:55:04 2014

@<TRIPOS>MOLECULE
1Z3N_1_CAVITY_N1_ALL.mol2
  110     0     4     0     0
SMALL
NO_CHARGES


@<TRIPOS>ATOM
      1 N          25.2244   -7.4253   11.7771 N.2       1 ALA2        0.0000 
      2 CZ         23.8495   -8.9151   12.4020 C.ar      2 PHE5        0.0000 
      3 N          23.7622   -7.6784   11.5576 N.2       1 ALA2        0.0000 
      4 CZ         22.4747  -10.4048   13.0269 C.ar      2 PHE5        0.0000 
      5 CA         21.0126  -10.6579   12.8074 C.3       3 GLY6        0.0000 
      6 CA         19.5504  -10.9109   12.5880 C.3       3 GLY6        0.0000 
      7 CA         18.0883  -11.1639   12.3685 C.3       3 GLY6        0.0000 
      8 CZ         23.5262   -8.1048   13.6222 C.ar      2 PHE5        0.0000 
      9 N          23.4389   -6.8681   12.7778 N.2       1 ALA2        0.0000 
     10 CZ         22.0640   -8.3579   13.4027 C.ar      2 PHE5        0.0000 
     11 O          21.9767   -7.1211   12.5584 O.2       1 ALA2        0.0000 
     12 CA         20.6019   -8.6109   13.1833 C.3       3 GLY6        0.0000 
     13 CZ         19.3144  -11.3374   14.6525 C.ar      2 PHE5        0.0000 
     14 CZ         19.2271  -10.1006   13.8082 C.ar      2 PHE5        0.0000 
     15 CA         19.1398   -8.8639   12.9639 C.3       3 GLY6        0.0000 
     16 CA         18.7906   -3.9171    9.5865 C.3       3 GLY6        0.0000 
     17 DU         17.9396  -12.8271   15.2775 H         4 CUB7        0.0000 
     18 CZ         17.8523  -11.5904   14.4331 C.ar      2 PHE5        0.0000 
     19 CZ         17.7650  -10.3537   13.5888 C.ar      2 PHE5        0.0000 
     20 CA         17.6777   -9.1170   12.7444 C.3       3 GLY6        0.0000 
     21 CA         17.5031   -6.6435   11.0557 C.3       3 GLY6        0.0000 
     22 CA         17.4158   -5.4068   10.2114 C.3       3 GLY6        0.0000 
     23 CA         17.3285   -4.1701    9.3670 C.3       3 GLY6        0.0000 
     24 CA         17.2412   -2.9334    8.5227 C.3       3 GLY6        0.0000 
     25 CZ         16.3901  -11.8434   14.2137 C.ar      2 PHE5        0.0000 
     26 CZ         16.0409   -6.8966   10.8363 C.ar      2 PHE5        0.0000 
     27 CZ         13.5532  -13.5862   14.6191 C.ar      2 PHE5        0.0000 
     28 O          21.6534   -6.3109   13.7786 O.2       1 ALA2        0.0000 
     29 CZ         20.2786   -7.8006   14.4035 C.ar      2 PHE5        0.0000 
     30 O          20.1913   -6.5639   13.5592 O.2       1 ALA2        0.0000 
     31 O          20.1040   -5.3272   12.7148 O.2       1 ALA2        0.0000 
     32 CZ         19.0783  -11.7638   16.7171 C.ar      2 PHE5        0.0000 
     33 CZ         18.9910  -10.5271   15.8728 C.ar      2 PHE5        0.0000 
     34 CZ         18.9037   -9.2904   15.0284 C.ar      2 PHE5        0.0000 
     35 CZ         18.8164   -8.0537   14.1841 C.ar      2 PHE5        0.0000 
     36 CA         18.7291   -6.8170   13.3397 C.3       3 GLY6        0.0000 
     37 CA         18.6418   -5.5802   12.4954 C.3       3 GLY6        0.0000 
     38 O          18.5545   -4.3435   11.6510 O.2       1 ALA2        0.0000 
     39 CZ         18.4672   -3.1068   10.8067 C.ar      2 PHE5        0.0000 
     40 DU         17.7035  -13.2536   17.3420 H         4 CUB7        0.0000 
     41 DU         17.6162  -12.0168   16.4977 H         4 CUB7        0.0000 
     42 DU         17.5289  -10.7801   15.6533 H         4 CUB7        0.0000 
     43 CZ         17.4416   -9.5434   14.8090 C.ar      2 PHE5        0.0000 
     44 CZ         17.3543   -8.3067   13.9646 C.ar      2 PHE5        0.0000 
     45 CZ         17.2670   -7.0700   13.1203 C.ar      2 PHE5        0.0000 
     46 CZ         17.1797   -5.8333   12.2759 C.ar      2 PHE5        0.0000 
     47 CZ         17.0924   -4.5966   11.4316 C.ar      2 PHE5        0.0000 
     48 CZ         17.0051   -3.3598   10.5872 C.ar      2 PHE5        0.0000 
     49 DU         16.2414  -13.5066   17.1226 H         4 CUB7        0.0000 
     50 DU         16.1541  -12.2699   16.2782 H         4 CUB7        0.0000 
     51 CZ         16.0668  -11.0332   15.4339 C.ar      2 PHE5        0.0000 
     52 CZ         15.8049   -7.3230   12.9008 C.ar      2 PHE5        0.0000 
     53 CZ         15.7176   -6.0863   12.0565 C.ar      2 PHE5        0.0000 
     54 CZ         15.6303   -4.8496   11.2122 C.ar      2 PHE5        0.0000 
     55 DU         14.7792  -13.7596   16.9031 H         4 CUB7        0.0000 
     56 CZ         14.6919  -12.5229   16.0588 C.ar      2 PHE5        0.0000 
     57 CZ         14.6046  -11.2862   15.2144 C.ar      2 PHE5        0.0000 
     58 N          13.3171  -14.0126   16.6837 N.2       1 ALA2        0.0000 
     59 CA         13.2298  -12.7759   15.8393 C.3       3 GLY6        0.0000 
     60 CZ         19.9552   -6.9904   15.6237 C.ar      2 PHE5        0.0000 
     61 O          19.8679   -5.7537   14.7794 O.2       1 ALA2        0.0000 
     62 O          19.7806   -4.5170   13.9350 O.2       1 ALA2        0.0000 
     63 O          18.8423  -12.1903   18.7817 O.2       1 ALA2        0.0000 
     64 CZ         18.7550  -10.9536   17.9373 C.ar      2 PHE5        0.0000 
     65 CZ         18.6677   -9.7168   17.0930 C.ar      2 PHE5        0.0000 
     66 CZ         18.5804   -8.4801   16.2486 C.ar      2 PHE5        0.0000 
     67 CZ         18.4931   -7.2434   15.4043 C.ar      2 PHE5        0.0000 
     68 CZ         18.4058   -6.0067   14.5599 C.ar      2 PHE5        0.0000 
     69 CZ         18.3185   -4.7700   13.7156 C.ar      2 PHE5        0.0000 
     70 O          17.3802  -12.4433   18.5622 O.2       1 ALA2        0.0000 
     71 O          17.2929  -11.2066   17.7179 O.2       1 ALA2        0.0000 
     72 CZ         17.2056   -9.9699   16.8735 C.ar      2 PHE5        0.0000 
     73 DU         17.1183   -8.7332   16.0292 H         4 CUB7        0.0000 
     74 DU         17.0310   -7.4964   15.1848 H         4 CUB7        0.0000 
     75 CZ         16.9437   -6.2597   14.3405 C.ar      2 PHE5        0.0000 
     76 DU         16.0053  -13.9330   19.1871 H         4 CUB7        0.0000 
     77 O          15.9180  -12.6963   18.3428 O.2       1 ALA2        0.0000 
     78 O          15.8307  -11.4596   17.4984 O.2       1 ALA2        0.0000 
     79 DU         15.7434  -10.2229   16.6541 H         4 CUB7        0.0000 
     80 CZ         15.6561   -8.9862   15.8098 C.ar      2 PHE5        0.0000 
     81 CZ         15.5688   -7.7495   14.9654 C.ar      2 PHE5        0.0000 
     82 O          15.4815   -6.5128   14.1211 O.2       1 ALA2        0.0000 
     83 N          14.5432  -14.1861   18.9677 N.2       1 ALA2        0.0000 
     84 N          14.4559  -12.9494   18.1233 N.2       1 ALA2        0.0000 
     85 N          14.3686  -11.7126   17.2790 N.2       1 ALA2        0.0000 
     86 CA         14.2813  -10.4759   16.4347 C.3       3 GLY6        0.0000 
     87 CZ         14.1940   -9.2392   15.5903 C.ar      2 PHE5        0.0000 
     88 CA         19.6319   -6.1801   16.8439 C.3       3 GLY6        0.0000 
     89 CZ         18.2570   -7.6699   17.4688 C.ar      2 PHE5        0.0000 
     90 DU         18.1697   -6.4332   16.6245 H         4 CUB7        0.0000 
     91 CZ         18.0824   -5.1964   15.7802 C.ar      2 PHE5        0.0000 
     92 O          16.8822   -9.1596   18.0938 O.2       1 ALA2        0.0000 
     93 CZ         16.7949   -7.9229   17.2494 C.ar      2 PHE5        0.0000 
     94 O          16.7076   -6.6862   16.4051 O.2       1 ALA2        0.0000 
     95 O          15.5947  -11.8861   19.5630 O.2       1 ALA2        0.0000 
     96 O          15.5074  -10.6494   18.7187 O.2       1 ALA2        0.0000 
     97 O          15.4201   -9.4126   17.8743 O.2       1 ALA2        0.0000 
     98 DU         15.3328   -8.1759   17.0300 H         4 CUB7        0.0000 
     99 O          15.2455   -6.9392   16.1856 O.2       1 ALA2        0.0000 
    100 N          14.1325  -12.1391   19.3436 N.2       1 ALA2        0.0000 
    101 N          14.0452  -10.9024   18.4992 N.2       1 ALA2        0.0000 
    102 CA         13.9579   -9.6657   17.6549 C.3       3 GLY6        0.0000 
    103 CA         13.8706   -8.4290   16.8105 C.3       3 GLY6        0.0000 
    104 CZ         17.9337   -6.8596   18.6891 C.ar      2 PHE5        0.0000 
    105 CA         17.8464   -5.6229   17.8447 C.3       3 GLY6        0.0000 
    106 CZ         16.4715   -7.1126   18.4696 C.ar      2 PHE5        0.0000 
    107 N          16.3842   -5.8759   17.6253 N.2       1 ALA2        0.0000 
    108 CZ         15.0967   -8.6024   19.0945 C.ar      2 PHE5        0.0000 
    109 CZ         15.0094   -7.3657   18.2502 C.ar      2 PHE5        0.0000 
    110 N          14.9221   -6.1290   17.4058 N.2       1 ALA2        0.0000 
@<TRIPOS>BOND
@<TRIPOS>SUBSTRUCTURE
     1 ALA2        1 GROUP   
     2 PHE5        2 GROUP   
     3 GLY6        5 GROUP   
     4 CUB7       17 GROUP   
@<TRIPOS>SET

