#    Name: 1z3n_3NA_1_INTS_M
#    Modification time : Mon Apr  7 16:24:01 2014

@<TRIPOS>MOLECULE
1z3n_3NA_1_INTS_M
   73     0     6     0     0
SMALL
NO_CHARGES


@<TRIPOS>ATOM
      1 CA         17.5235   -7.6440   11.8205 C.3       2 GLC5        0.0000 
      2 CA         16.6480   -6.3470   13.4180 C.3       6 GLL5        0.0000 
      3 CA         18.3990   -8.9410   10.2230 C.3       4 GLP5        0.0000 
      4 CA         19.6185   -5.3950   17.6480 C.3       2 GLC5        0.0000 
      5 CA         18.1250   -6.4660   16.8150 C.3       6 GLL5        0.0000 
      6 CA         21.1120   -4.3240   18.4810 C.3       4 GLP5        0.0000 
      7 CA         18.0465   -4.8265   14.7270 C.3       2 GLC5        0.0000 
      8 CA         19.2850   -6.6000   14.5090 C.3       6 GLL5        0.0000 
      9 CA         16.8080   -3.0530   14.9450 C.3       4 GLP5        0.0000 
     10 CA         20.4250   -7.7035   15.5280 C.3       2 GLC5        0.0000 
     11 CA         21.5650   -8.8070   16.5470 C.3       4 GLP5        0.0000 
     12 CA         20.7925   -5.1780   15.2670 C.3       2 GLC5        0.0000 
     13 CA         22.3000   -3.7560   16.0250 C.3       4 GLP5        0.0000 
     14 CA         13.3530   -6.5440   12.7770 C.3       2 GLC5        0.0000 
     15 CA         14.1620   -5.5470   11.6620 C.3       6 GLL5        0.0000 
     16 CA         12.5440   -7.5410   13.8920 C.3       4 GLP5        0.0000 
     17 CA         12.4585   -5.1765   11.5250 C.3       2 GLC5        0.0000 
     18 CA         10.7550   -4.8060   11.3880 C.3       4 GLP5        0.0000 
     19 CA         13.7210   -4.5125   12.9945 C.3       2 GLC5        0.0000 
     20 CA         13.2800   -3.4780   14.3270 C.3       4 GLP5        0.0000 
     21 CA         13.5320   -6.0635   10.1010 C.3       2 GLC5        0.0000 
     22 CA         12.9020   -6.5800    8.5400 C.3       4 GLP5        0.0000 
     23 CA         14.6440   -7.4485   11.3825 C.3       2 GLC5        0.0000 
     24 CA         15.1260   -9.3500   11.1030 C.3       4 GLP5        0.0000 
     25 CA         17.4895   -8.0965   19.6570 C.3       2 GLC5        0.0000 
     26 CA         16.6530   -6.8140   18.7860 C.3       6 GLL5        0.0000 
     27 CA         18.3260   -9.3790   20.5280 C.3       4 GLP5        0.0000 
     28 CA         15.0725   -7.2940   19.9965 C.3       2 GLC5        0.0000 
     29 CA         13.4920   -7.7740   21.2070 C.3       4 GLP5        0.0000 
     30 CA         17.0630   -5.1055   19.4855 C.3       2 GLC5        0.0000 
     31 CA         17.4730   -3.3970   20.1850 C.3       4 GLP5        0.0000 
     32 CA         18.0415   -2.2250   11.8830 C.3       2 GLC5        0.0000 
     33 CA         18.8970   -3.0920   10.5270 C.3       6 GLL5        0.0000 
     34 CA         17.1860   -1.3580   13.2390 C.3       4 GLP5        0.0000 
     35 CA         20.5485   -3.3030   11.3575 C.3       2 GLC5        0.0000 
     36 CA         22.2000   -3.5140   12.1880 C.3       4 GLP5        0.0000 
     37 CA         19.4830   -2.2585    9.1690 C.3       2 GLC5        0.0000 
     38 CA         20.0690   -1.4250    7.8110 C.3       4 GLP5        0.0000 
     39 CA         19.6115   -1.3565   11.4710 C.3       2 GLC5        0.0000 
     40 CA         20.3260    0.3790   12.4150 C.3       4 GLP5        0.0000 
     41 CA         16.2560   -1.8910   11.0135 C.3       2 GLC5        0.0000 
     42 CA         16.6530   -2.4180    9.1720 C.3       6 GLL5        0.0000 
     43 CA         15.8590   -1.3640   12.8550 C.3       4 GLP5        0.0000 
     44 CA         15.1270   -1.8160    8.2520 C.3       2 GLC5        0.0000 
     45 CA         13.6010   -1.2140    7.3320 C.3       4 GLP5        0.0000 
     46 CA         17.7995   -1.7550    8.1180 C.3       2 GLC5        0.0000 
     47 CA         18.9460   -1.0920    7.0640 C.3       4 GLP5        0.0000 
     48 CA         16.7935   -0.5330    9.1425 C.3       2 GLC5        0.0000 
     49 CA         16.9340    1.3520    9.1130 C.3       4 GLP5        0.0000 
     50 CA         14.4830   -2.5935    8.8455 C.3       2 GLC5        0.0000 
     51 CA         15.3650   -3.9730   10.3590 C.3       6 GLL5        0.0000 
     52 N          14.3695   -5.4345   20.7015 N.am      1 SEC2        0.0000 
     53 N          14.9380   -5.3860   19.4690 N.am      5 SEL2        0.0000 
     54 N          13.8010   -5.4830   21.9340 N.am      3 SEP2        0.0000 
     55 N          13.7865   -4.9120   18.9570 N.am      1 SEC2        0.0000 
     56 N          12.6350   -4.4380   18.4450 N.am      3 SEP2        0.0000 
     57 N          14.7800   -4.7240   16.1585 N.am      1 SEC2        0.0000 
     58 N          15.1450   -5.6120   17.2800 N.am      5 SEL2        0.0000 
     59 N          14.4150   -3.8360   15.0370 N.am      3 SEP2        0.0000 
     60 N          20.1090   -5.1755   11.6015 N.am      1 SEC2        0.0000 
     61 N          18.7500   -5.0580   12.6350 N.am      5 SEL2        0.0000 
     62 N          21.4680   -5.2930   10.5680 N.am      3 SEP2        0.0000 
     63 CA         17.9330   -4.1892    8.8242 C.3       2 GLC5        0.0000 
     64 CA         17.5480   -4.9780    6.9740 C.3       4 GLP5        0.0000 
     65 CA         17.0832   -3.9402    8.3133 C.3       2 GLC5        0.0000 
     66 CA         16.5840   -3.3870   10.1330 C.3       6 GLL5        0.0000 
     67 CA         19.0873   -5.6109   10.6099 C.3       2 GLC5        0.0000 
     68 CA         20.1780   -7.1960    9.9650 C.3       4 GLP5        0.0000 
     69 CA         13.9797   -3.1450   11.6578 C.3       2 GLC5        0.0000 
     70 CA         15.3220   -4.9350   11.3600 C.3       6 GLL5        0.0000 
     71 CA         12.6160   -1.8360   12.4560 C.3       4 GLP5        0.0000 
     72 CA         16.2889   -5.6022    9.6259 C.3       2 GLC5        0.0000 
     73 CA         16.6720   -6.3380    7.7730 C.3       4 GLP5        0.0000 
@<TRIPOS>BOND
@<TRIPOS>SUBSTRUCTURE
     1 SEC2       52 GROUP        1 X    SEC  0     ROOT SEC X 2
     2 GLC5        1 GROUP        1 X    GLC  0     **** GLC X 6
     3 SEP2       54 GROUP        1 Y    SEP  0     ROOT SEP Y 9
     4 GLP5        3 GROUP        1 Y    GLP  0     **** GLP Y 13
     5 SEL2       53 GROUP        1 Z    SEL  0     ROOT SEL Z 16
     6 GLL5        2 GROUP        1 Z    GLL  0     **** GLL Z 20
@<TRIPOS>SET

