#    Name: 1z3n_3NA_1_ligand
#    Modification time : Mon Apr  7 16:24:01 2014

@<TRIPOS>MOLECULE
1z3n_3NA_1_ligand
   36    39     1     0     0
SMALL
NO_CHARGES


@<TRIPOS>ATOM
      1 C2         16.3210   -9.5260   17.3440 C.ar      1 3NA320      0.0000 
      2 C3         17.8950   -9.5600   14.8960 C.ar      1 3NA320      0.0000 
      3 C4         17.1290   -8.4550   16.9420 C.ar      1 3NA320      0.0000 
      4 C5         16.2760  -10.6570   16.5090 C.ar      1 3NA320      0.0000 
      5 C6         17.1360  -10.6740   15.2800 C.ar      1 3NA320      0.0000 
      6 C7         17.8160   -8.4250   15.7690 C.ar      1 3NA320      0.0000 
      7 C11        18.4740   -7.1240   15.6720 C.2       1 3NA320      0.0000 
      8 C13        18.3420   -5.9430   13.4930 C.2       1 3NA320      0.0000 
      9 S14        16.6480   -6.3470   13.4180 S.3       1 3NA320      0.0000 
     10 N15        17.3130   -7.2390   17.5630 N.pl3     1 3NA320      0.0000 
     11 C16        18.1250   -6.4660   16.8150 C.2       1 3NA320      0.0000 
     12 C17        19.2850   -6.6000   14.5090 C.3       1 3NA320      0.0000 
     13 F19        14.1620   -5.5470   11.6620 F         1 3NA320      0.0000 
     14 C20        16.6530   -6.8140   18.7860 C.3       1 3NA320      0.0000 
     15 F22        18.8970   -3.0920   10.5270 F         1 3NA320      0.0000 
     16 F23        16.6530   -2.4180    9.1720 F         1 3NA320      0.0000 
     17 C24        17.6750   -4.6510   11.8350 C.ar      1 3NA320      0.0000 
     18 C25        15.3650   -3.9730   10.3590 C.ar      1 3NA320      0.0000 
     19 C26        17.7390   -3.7090   10.8220 C.ar      1 3NA320      0.0000 
     20 C27        16.4680   -5.2790   12.0980 C.ar      1 3NA320      0.0000 
     21 C28        15.3220   -4.9350   11.3600 C.ar      1 3NA320      0.0000 
     22 C29        16.5840   -3.3870   10.1330 C.ar      1 3NA320      0.0000 
     23 C32        15.4240   -5.8760   18.5050 C.2       1 3NA320      0.0000 
     24 O33        14.9380   -5.3860   19.4690 O.co2     1 3NA320      0.0000 
     25 O34        15.1450   -5.6120   17.2800 O.co2     1 3NA320      0.0000 
     26 N36        18.7500   -5.0580   12.6350 N.2       1 3NA320      0.0000 
     27 H          15.7905   -9.4904   18.1991 H         1 3NA320      0.0000 
     28 H          18.4529   -9.5421   14.0804 H         1 3NA320      0.0000 
     29 H          15.7002  -11.4503   16.6925 H         1 3NA320      0.0000 
     30 H          17.1403  -11.5394   14.7368 H         1 3NA320      0.0000 
     31 H          18.4238   -5.5692   17.0478 H         1 3NA320      0.0000 
     32 H          19.8091   -7.4161   14.0274 H         1 3NA320      0.0000 
     33 H          19.9966   -5.8622   14.8582 H         1 3NA320      0.0000 
     34 H          17.3370   -6.2559   19.4415 H         1 3NA320      0.0000 
     35 H          16.2748   -7.6720   19.3603 H         1 3NA320      0.0000 
     36 H          14.5431   -3.7261    9.8341 H         1 3NA320      0.0000 
@<TRIPOS>BOND
     1    3    1 ar   
     2    4    1 ar   
     3   27    1 1    
     4    5    2 ar   
     5    6    2 ar   
     6   28    2 1    
     7    6    3 ar   
     8   10    3 1    
     9    5    4 ar   
    10   29    4 1    
    11   30    5 1    
    12    7    6 1    
    13   11    7 2    
    14   12    7 1    
    15    9    8 1    
    16   12    8 1    
    17   26    8 2    
    18   20    9 1    
    19   11   10 1    
    20   14   10 1    
    21   31   11 1    
    22   32   12 1    
    23   33   12 1    
    24   21   13 1    
    25   23   14 1    
    26   34   14 1    
    27   35   14 1    
    28   19   15 1    
    29   22   16 1    
    30   19   17 ar   
    31   20   17 ar   
    32   26   17 1    
    33   21   18 ar   
    34   22   18 ar   
    35   36   18 1    
    36   22   19 ar   
    37   21   20 ar   
    38   24   23 ar   
    39   25   23 ar   
@<TRIPOS>SUBSTRUCTURE
     1 3NA320      1 GROUP   
@<TRIPOS>SET

