#    Name: 2pwc_G3G_1_INTS_M
#    Modification time : Mon Mar 24 19:26:45 2014

@<TRIPOS>MOLECULE
2pwc_G3G_1_INTS_M
   94     0    12     0     0
SMALL
NO_CHARGES


@<TRIPOS>ATOM
      1 CA        -12.1995   22.5395   -3.1965 C.3       4 GLC5        0.0000 
      2 CA        -13.4200   24.1610   -3.9240 C.3      12 GLL5        0.0000 
      3 CA        -10.9790   20.9180   -2.4690 C.3       8 GLP5        0.0000 
      4 CA        -15.4915   24.4395   -6.2315 C.3       4 GLC5        0.0000 
      5 CA        -14.5970   23.6370   -4.5150 C.3      12 GLL5        0.0000 
      6 CA        -16.3860   25.2420   -7.9480 C.3       8 GLP5        0.0000 
      7 N         -19.3050   23.9270   -4.3675 N.am      2 SEC2        0.0000 
      8 N         -18.2600   23.0640   -3.6580 N.am     10 SEL2        0.0000 
      9 N         -20.3500   24.7900   -5.0770 N.am      6 SEP2        0.0000 
     10 CA        -12.6275   18.8125   -4.6950 C.3       4 GLC5        0.0000 
     11 CA        -14.6390   19.7940   -4.7320 C.3      12 GLL5        0.0000 
     12 CA        -10.6160   17.8310   -4.6580 C.3       8 GLP5        0.0000 
     13 CA        -12.8090   20.3560   -3.6005 C.3       4 GLC5        0.0000 
     14 OD1       -14.0800   16.9300   -4.6850 O.co2     3 ASC3        0.0000 
     15 OD1       -14.6030   18.3100   -4.6830 O.co2    11 ASL3        0.0000 
     16 OD1       -13.5570   15.5500   -4.6870 O.co2     7 ASP3        0.0000 
     17 OD1       -13.9710   17.5715   -5.5705 O.co2     3 ASC3        0.0000 
     18 OD1       -13.3390   16.8330   -6.4580 O.co2     7 ASP3        0.0000 
     19 OD1       -13.8280   17.8775   -3.5715 O.co2     3 ASC3        0.0000 
     20 OD1       -13.0530   17.4450   -2.4600 O.co2     7 ASP3        0.0000 
     21 OD1       -14.7820   18.3005   -3.2555 O.co2     3 ASC3        0.0000 
     22 OD1       -14.9610   18.2910   -1.8280 O.co2     7 ASP3        0.0000 
     23 CA        -15.8410   16.3040   -3.6700 C.3       4 GLC5        0.0000 
     24 CA        -15.9330   17.7750   -5.0670 C.3      12 GLL5        0.0000 
     25 CA        -15.7490   14.8330   -2.2730 C.3       8 GLP5        0.0000 
     26 CA        -16.5870   15.9130   -5.3785 C.3       4 GLC5        0.0000 
     27 CA        -17.2410   14.0510   -5.6900 C.3       8 GLP5        0.0000 
     28 CA        -11.8100   18.8195   -6.2410 C.3       4 GLC5        0.0000 
     29 CA        -13.0040   19.8080   -7.8240 C.3      12 GLL5        0.0000 
     30 CA        -16.5720   22.2215   -9.6395 C.3       4 GLC5        0.0000 
     31 CA        -15.0110   21.0380   -8.5660 C.3      12 GLL5        0.0000 
     32 CA        -18.1330   23.4050  -10.7130 C.3       8 GLP5        0.0000 
     33 CA        -20.2595   13.5680   -9.5330 C.3       4 GLC5        0.0000 
     34 CA        -19.7440   15.4850   -8.7900 C.3      12 GLL5        0.0000 
     35 CA        -20.7750   11.6510  -10.2760 C.3       8 GLP5        0.0000 
     36 CA        -22.3750   15.8965   -9.5745 C.3       4 GLC5        0.0000 
     37 CA        -20.9710   15.6840   -8.0650 C.3      12 GLL5        0.0000 
     38 CA        -23.7790   16.1090  -11.0840 C.3       8 GLP5        0.0000 
     39 CA        -22.3130   17.2695   -9.2075 C.3       4 GLC5        0.0000 
     40 CA        -21.2110   16.9460   -7.4330 C.3      12 GLL5        0.0000 
     41 CA        -23.4150   17.5930  -10.9820 C.3       8 GLP5        0.0000 
     42 O         -22.3295   13.6505   -8.6485 O.2       1 ALC1        0.0000 
     43 O         -21.9240   14.7290   -7.9830 O.2       9 ALL1        0.0000 
     44 O         -22.7350   12.5720   -9.3140 O.2       5 ALP1        0.0000 
     45 O         -11.7735   24.2825   -0.4740 O.2       1 ALC1        0.0000 
     46 O         -12.1650   24.6900   -1.9540 O.2       9 ALL1        0.0000 
     47 O         -11.3820   23.8750    1.0060 O.2       5 ALP1        0.0000 
     48 CA        -14.2913   26.1150   -1.8067 C.3       4 GLC5        0.0000 
     49 CA        -14.3930   23.8410   -1.7170 C.3      12 GLL5        0.0000 
     50 CA        -14.7390   28.2040   -1.4960 C.3       8 GLP5        0.0000 
     51 CA        -16.1433   22.3850   -0.8907 C.3       4 GLC5        0.0000 
     52 CA        -17.2910   21.1600    0.2330 C.3       8 GLP5        0.0000 
     53 CA        -17.1850   24.5633   -2.9937 C.3       4 GLC5        0.0000 
     54 CA        -15.5980   23.3790   -2.3120 C.3      12 GLL5        0.0000 
     55 CA        -18.7170   25.8070   -2.9730 C.3       8 GLP5        0.0000 
     56 CA        -13.3339   22.3533   -1.7599 C.3       4 GLC5        0.0000 
     57 CA        -11.9470   21.0040   -1.3050 C.3       8 GLP5        0.0000 
     58 CA        -14.5944   24.7638   -0.5769 C.3       4 GLC5        0.0000 
     59 CA        -13.2940   24.2110   -2.5180 C.3      12 GLL5        0.0000 
     60 CA        -14.4680   25.8250    1.0610 C.3       8 GLP5        0.0000 
     61 CA        -18.6435   17.0290   -0.8707 C.3       4 GLC5        0.0000 
     62 CA        -18.8410   18.4070   -2.2460 C.3      12 GLL5        0.0000 
     63 CA        -17.8520   16.0380    0.5070 C.3       8 GLP5        0.0000 
     64 CA        -19.9050   18.4650   -0.2837 C.3       4 GLC5        0.0000 
     65 CA        -20.3750   18.9100    1.6810 C.3       8 GLP5        0.0000 
     66 CA        -17.8716   20.1759   -1.2014 C.3       4 GLC5        0.0000 
     67 CA        -21.1777   20.2900   -2.6502 C.3       4 GLC5        0.0000 
     68 CA        -20.8840   19.1030   -4.0450 C.3      12 GLL5        0.0000 
     69 CA        -21.3860   22.0340   -1.6930 C.3       8 GLP5        0.0000 
     70 CA        -20.9247   21.1698   -4.9495 C.3       4 GLC5        0.0000 
     71 CA        -21.5470   22.8290   -5.8840 C.3       8 GLP5        0.0000 
     72 CA        -20.2363   20.7944   -2.5017 C.3       4 GLC5        0.0000 
     73 CA        -19.7210   19.9180   -3.9850 C.3      12 GLL5        0.0000 
     74 CA        -13.8080   18.2407   -9.0397 C.3       4 GLC5        0.0000 
     75 CA        -15.2420   18.5460   -7.9590 C.3      12 GLL5        0.0000 
     76 CA        -12.7930   17.2950  -10.0390 C.3       8 GLP5        0.0000 
     77 CA        -13.0095   20.0737   -9.8825 C.3       4 GLC5        0.0000 
     78 CA        -14.4040   19.8270   -8.1220 C.3      12 GLL5        0.0000 
     79 CA        -12.3150   20.3300  -11.7920 C.3       8 GLP5        0.0000 
     80 CA        -11.0297   19.2518   -8.0808 C.3       4 GLC5        0.0000 
     81 CA         -9.4590   18.1180   -8.2590 C.3       8 GLP5        0.0000 
     82 CA        -12.6967   18.8403   -8.9707 C.3       4 GLC5        0.0000 
     83 CA        -12.4112   20.9510   -9.9910 C.3       4 GLC5        0.0000 
     84 CA        -12.1970   20.9630   -7.9810 C.3      12 GLL5        0.0000 
     85 CA        -13.4625   20.9770  -10.2135 C.3       4 GLC5        0.0000 
     86 CA        -14.2090   22.2100   -8.7040 C.3      12 GLL5        0.0000 
     87 CA        -15.4980   23.4330   -8.2915 C.3       4 GLC5        0.0000 
     88 CA        -17.8540   15.0787   -7.9115 C.3       4 GLC5        0.0000 
     89 CA        -18.7720   16.5260   -8.8500 C.3      12 GLL5        0.0000 
     90 CA        -16.4500   14.1520   -7.0030 C.3       8 GLP5        0.0000 
     91 CA        -18.9645   15.5672  -10.6555 C.3       4 GLC5        0.0000 
     92 CA        -18.6710   15.1290  -12.4910 C.3       8 GLP5        0.0000 
     93 CA        -20.2400   16.7212  -10.5285 C.3       4 GLC5        0.0000 
     94 CA        -21.2220   17.4370  -12.2370 C.3       8 GLP5        0.0000 
@<TRIPOS>BOND
@<TRIPOS>SUBSTRUCTURE
     1 ALC1       42 GROUP        1 X    ALC  0     ROOT ALC X 1
     2 SEC2        7 GROUP        1 X    SEC  0     **** SEC X 2
     3 ASC3       14 GROUP        1 X    ASC  0     **** ASC X 3
     4 GLC5        1 GROUP        1 X    GLC  0     **** GLC X 6
     5 ALP1       44 GROUP        1 Y    ALP  0     ROOT ALP Y 8
     6 SEP2        9 GROUP        1 Y    SEP  0     **** SEP Y 9
     7 ASP3       16 GROUP        1 Y    ASP  0     **** ASP Y 10
     8 GLP5        3 GROUP        1 Y    GLP  0     **** GLP Y 13
     9 ALL1       43 GROUP        1 Z    ALL  0     ROOT ALL Z 15
    10 SEL2        8 GROUP        1 Z    SEL  0     **** SEL Z 16
    11 ASL3       15 GROUP        1 Z    ASL  0     **** ASL Z 17
    12 GLL5        2 GROUP        1 Z    GLL  0     **** GLL Z 20
@<TRIPOS>SET

