#    Name: 2pwc_G3G_1_ligand
#    Modification time : Mon Mar 24 19:26:45 2014

@<TRIPOS>MOLECULE
2pwc_G3G_1_ligand
   73    77     1     0     0
SMALL
NO_CHARGES


@<TRIPOS>ATOM
      1 C2        -14.3930   23.8410   -1.7170 C.ar      1 G3G501      0.0000 
      2 C6        -13.2940   24.2110   -2.5180 C.ar      1 G3G501      0.0000 
      3 C5        -13.4200   24.1610   -3.9240 C.ar      1 G3G501      0.0000 
      4 C20       -14.5970   23.6370   -4.5150 C.ar      1 G3G501      0.0000 
      5 C27       -15.7080   23.2600   -3.7170 C.ar      1 G3G501      0.0000 
      6 C18       -15.5980   23.3790   -2.3120 C.ar      1 G3G501      0.0000 
      7 S9        -17.1770   22.6560   -4.5330 S.o2      1 G3G501      0.0000 
      8 O40       -18.2600   23.0640   -3.6580 O.2       1 G3G501      0.0000 
      9 O11       -17.0310   22.9690   -5.9390 O.2       1 G3G501      0.0000 
     10 N32       -16.8730   20.9700   -4.2350 N.pl3     1 G3G501      0.0000 
     11 C33       -17.4250   20.3890   -2.9790 C.3       1 G3G501      0.0000 
     12 C34       -18.7020   19.5640   -3.0720 C.ar      1 G3G501      0.0000 
     13 C38       -18.8410   18.4070   -2.2460 C.ar      1 G3G501      0.0000 
     14 C39       -20.0290   17.6330   -2.2510 C.ar      1 G3G501      0.0000 
     15 C37       -21.0550   17.9890   -3.1700 C.ar      1 G3G501      0.0000 
     16 C36       -20.8840   19.1030   -4.0450 C.ar      1 G3G501      0.0000 
     17 C35       -19.7210   19.9180   -3.9850 C.ar      1 G3G501      0.0000 
     18 C24       -16.0310   20.2480   -5.2530 C.3       1 G3G501      0.0000 
     19 C25       -14.6390   19.7940   -4.7320 C.3       1 G3G501      0.0000 
     20 N22       -14.6030   18.3100   -4.6830 N.4       1 G3G501      0.0000 
     21 C21       -15.9330   17.7750   -5.0670 C.3       1 G3G501      0.0000 
     22 C23       -16.7060   18.9120   -5.7750 C.3       1 G3G501      0.0000 
     23 N28       -16.5220   18.8330   -7.2620 N.pl3     1 G3G501      0.0000 
     24 C7        -15.2420   18.5460   -7.9590 C.3       1 G3G501      0.0000 
     25 C12       -14.4040   19.8270   -8.1220 C.ar      1 G3G501      0.0000 
     26 C14       -13.0040   19.8080   -7.8240 C.ar      1 G3G501      0.0000 
     27 C30       -12.1970   20.9630   -7.9810 C.ar      1 G3G501      0.0000 
     28 C31       -12.8180   22.1810   -8.3990 C.ar      1 G3G501      0.0000 
     29 C29       -14.2090   22.2100   -8.7040 C.ar      1 G3G501      0.0000 
     30 C13       -15.0110   21.0380   -8.5660 C.ar      1 G3G501      0.0000 
     31 S8        -17.8690   19.1340   -8.2350 S.o2      1 G3G501      0.0000 
     32 C26       -18.9880   17.7820   -8.2170 C.ar      1 G3G501      0.0000 
     33 C17       -18.7720   16.5260   -8.8500 C.ar      1 G3G501      0.0000 
     34 C1        -19.7440   15.4850   -8.7900 C.ar      1 G3G501      0.0000 
     35 C4        -20.9710   15.6840   -8.0650 C.ar      1 G3G501      0.0000 
     36 C3        -21.2110   16.9460   -7.4330 C.ar      1 G3G501      0.0000 
     37 C19       -20.2130   17.9610   -7.4910 C.ar      1 G3G501      0.0000 
     38 O41       -17.3410   19.2720   -9.6130 O.2       1 G3G501      0.0000 
     39 O10       -18.5680   20.3140   -7.6860 O.2       1 G3G501      0.0000 
     40 N42       -21.9240   14.7290   -7.9830 N.pl3     1 G3G501      0.0000 
     41 N43       -12.1650   24.6900   -1.9540 N.pl3     1 G3G501      0.0000 
     42 H         -14.3278   23.9038   -0.6969 H         1 G3G501      0.0000 
     43 H         -12.6628   24.5025   -4.5179 H         1 G3G501      0.0000 
     44 H         -14.6469   23.5286   -5.5337 H         1 G3G501      0.0000 
     45 H         -16.3921   23.1308   -1.7156 H         1 G3G501      0.0000 
     46 H         -17.6017   21.2160   -2.2362 H         1 G3G501      0.0000 
     47 H         -16.6370   19.7514   -2.4897 H         1 G3G501      0.0000 
     48 H         -18.0602   18.1332   -1.6362 H         1 G3G501      0.0000 
     49 H         -20.1449   16.8560   -1.6252 H         1 G3G501      0.0000 
     50 H         -21.9173   17.4467   -3.2050 H         1 G3G501      0.0000 
     51 H         -21.6169   19.3183   -4.7308 H         1 G3G501      0.0000 
     52 H         -19.6291   20.7259   -4.5792 H         1 G3G501      0.0000 
     53 H         -15.8622   20.8588   -6.1308 H         1 G3G501      0.0000 
     54 H         -14.4944   20.2166   -3.7454 H         1 G3G501      0.0000 
     55 H         -13.8849   20.1765   -5.4088 H         1 G3G501      0.0000 
     56 H         -16.4929   17.4735   -4.1963 H         1 G3G501      0.0000 
     57 H         -15.8327   16.9514   -5.7556 H         1 G3G501      0.0000 
     58 H         -17.6999   18.9094   -5.4849 H         1 G3G501      0.0000 
     59 H         -15.4327   18.1322   -8.9525 H         1 G3G501      0.0000 
     60 H         -14.6529   17.8206   -7.3921 H         1 G3G501      0.0000 
     61 H         -12.5795   18.9339   -7.4888 H         1 G3G501      0.0000 
     62 H         -11.2059   20.9317   -7.8030 H         1 G3G501      0.0000 
     63 H         -12.2616   23.0300   -8.4783 H         1 G3G501      0.0000 
     64 H         -14.6387   23.0799   -9.0255 H         1 G3G501      0.0000 
     65 H         -15.9985   21.0667   -8.7808 H         1 G3G501      0.0000 
     66 H         -17.8957   16.3647   -9.3623 H         1 G3G501      0.0000 
     67 H         -19.5760   14.5997   -9.2575 H         1 G3G501      0.0000 
     68 H         -22.0844   17.1128   -6.9493 H         1 G3G501      0.0000 
     69 H         -20.3711   18.8513   -6.9988 H         1 G3G501      0.0000 
     70 H         -22.0250   14.1382   -8.7835 H         1 G3G501      0.0000 
     71 H         -22.4435   14.6980   -7.1291 H         1 G3G501      0.0000 
     72 H         -11.6199   25.3098   -2.5185 H         1 G3G501      0.0000 
     73 H         -11.9741   24.3824   -1.0218 H         1 G3G501      0.0000 
@<TRIPOS>BOND
     1    2    1 ar   
     2    6    1 ar   
     3   42    1 1    
     4    3    2 ar   
     5   41    2 1    
     6    4    3 ar   
     7   43    3 1    
     8    5    4 ar   
     9   44    4 1    
    10    6    5 ar   
    11    7    5 1    
    12   45    6 1    
    13    8    7 2    
    14    9    7 2    
    15   10    7 1    
    16   11   10 1    
    17   18   10 1    
    18   12   11 1    
    19   46   11 1    
    20   47   11 1    
    21   13   12 ar   
    22   17   12 ar   
    23   14   13 ar   
    24   48   13 1    
    25   15   14 ar   
    26   49   14 1    
    27   16   15 ar   
    28   50   15 1    
    29   17   16 ar   
    30   51   16 1    
    31   52   17 1    
    32   19   18 1    
    33   22   18 1    
    34   53   18 1    
    35   20   19 1    
    36   54   19 1    
    37   55   19 1    
    38   21   20 1    
    39   22   21 1    
    40   56   21 1    
    41   57   21 1    
    42   23   22 1    
    43   58   22 1    
    44   24   23 1    
    45   31   23 1    
    46   25   24 1    
    47   59   24 1    
    48   60   24 1    
    49   26   25 ar   
    50   30   25 ar   
    51   27   26 ar   
    52   61   26 1    
    53   28   27 ar   
    54   62   27 1    
    55   29   28 ar   
    56   63   28 1    
    57   30   29 ar   
    58   64   29 1    
    59   65   30 1    
    60   32   31 1    
    61   38   31 2    
    62   39   31 2    
    63   33   32 ar   
    64   37   32 ar   
    65   34   33 ar   
    66   66   33 1    
    67   35   34 ar   
    68   67   34 1    
    69   36   35 ar   
    70   40   35 1    
    71   37   36 ar   
    72   68   36 1    
    73   69   37 1    
    74   70   40 1    
    75   71   40 1    
    76   72   41 1    
    77   73   41 1    
@<TRIPOS>SUBSTRUCTURE
     1 G3G501      1 GROUP   
@<TRIPOS>SET

