#    Name: 3bqr_4RB_1_INTS_M
#    Modification time : Mon Mar 24 19:58:12 2014

@<TRIPOS>MOLECULE
3bqr_4RB_1_INTS_M
   65     0    12     0     0
SMALL
NO_CHARGES


@<TRIPOS>ATOM
      1 CA          4.8085   44.4795   31.7860 C.3       4 GLC5        0.0000 
      2 CA          3.8150   45.4150   33.1080 C.3      12 GLL5        0.0000 
      3 CA          5.8020   43.5440   30.4640 C.3       8 GLP5        0.0000 
      4 NZ          8.7050   48.3105   35.0420 N.4       3 LYC4        0.0000 
      5 NZ          8.0400   47.1610   34.5930 N.4      11 LYL4        0.0000 
      6 NZ          9.3700   49.4600   35.4910 N.4       7 LYP4        0.0000 
      7 N           8.7050   48.3105   35.0420 N.am      2 SEC2        0.0000 
      8 N           8.0400   47.1610   34.5930 N.am     10 SEL2        0.0000 
      9 N           9.3700   49.4600   35.4910 N.am      6 SEP2        0.0000 
     10 N           8.3790   46.6825   31.9560 N.am      2 SEC2        0.0000 
     11 N           7.3420   47.5480   32.5140 N.am     10 SEL2        0.0000 
     12 N           9.4160   45.8170   31.3980 N.am      6 SEP2        0.0000 
     13 CA         -0.8240   44.4650   33.1215 C.3       4 GLC5        0.0000 
     14 CA          1.1400   44.2640   33.7210 C.3      12 GLL5        0.0000 
     15 CA         -2.7880   44.6660   32.5220 C.3       8 GLP5        0.0000 
     16 CA          0.5815   42.7840   32.2565 C.3       4 GLC5        0.0000 
     17 CA          0.0230   41.3040   30.7920 C.3       8 GLP5        0.0000 
     18 CA          0.3350   44.7150   35.4705 C.3       4 GLC5        0.0000 
     19 CA          0.7350   42.7580   35.1880 C.3      12 GLL5        0.0000 
     20 CA         -0.0650   46.6720   35.7530 C.3       8 GLP5        0.0000 
     21 CA          1.5275   42.3200   38.9740 C.3       4 GLC5        0.0000 
     22 CA          2.3120   41.7690   37.1260 C.3      12 GLL5        0.0000 
     23 CA          0.7430   42.8710   40.8220 C.3       8 GLP5        0.0000 
     24 CA          2.7095   42.7645   39.8660 C.3       4 GLC5        0.0000 
     25 CA          4.6760   42.6580   38.9100 C.3      12 GLL5        0.0000 
     26 CA          4.1105   44.4410   39.4150 C.3       4 GLC5        0.0000 
     27 CA          3.5450   46.2240   39.9200 C.3       8 GLP5        0.0000 
     28 CA          5.4510   44.6300   39.4590 C.3       4 GLC5        0.0000 
     29 CA          5.9710   42.7330   39.6790 C.3      12 GLL5        0.0000 
     30 CA          4.9310   46.5270   39.2390 C.3       8 GLP5        0.0000 
     31 CA          4.4135   41.2480   34.7870 C.3       4 GLC5        0.0000 
     32 CA          5.1510   41.2120   36.8110 C.3      12 GLL5        0.0000 
     33 CA          3.6760   41.2840   32.7630 C.3       8 GLP5        0.0000 
     34 CA          6.2275   41.9140   35.0800 C.3       4 GLC5        0.0000 
     35 CA          7.3040   42.6160   33.3490 C.3       8 GLP5        0.0000 
     36 O           6.2190   39.0125   36.6280 O.2       1 ALC1        0.0000 
     37 O           5.1020   39.8570   36.2760 O.2       9 ALL1        0.0000 
     38 O           7.3360   38.1680   36.9800 O.2       5 ALP1        0.0000 
     39 CA          3.8152   46.1165   31.1408 C.3       4 GLC5        0.0000 
     40 CA          3.2310   46.4640   29.2760 C.3       8 GLP5        0.0000 
     41 CA          3.6655   43.2147   33.2442 C.3       4 GLC5        0.0000 
     42 CA          6.3235   45.0838   32.2528 C.3       4 GLC5        0.0000 
     43 CA          4.9840   46.1230   32.9030 C.3      12 GLL5        0.0000 
     44 CA          7.2130   43.9360   31.0770 C.3       8 GLP5        0.0000 
     45 CA          4.4399   47.8547   33.6274 C.3       4 GLC5        0.0000 
     46 CA          5.8840   46.3400   33.9540 C.3      12 GLL5        0.0000 
     47 CA          3.7380   49.6550   33.7750 C.3       8 GLP5        0.0000 
     48 CA          4.9677   45.9820   37.2710 C.3       4 GLC5        0.0000 
     49 CA          5.5950   45.7910   35.2010 C.3      12 GLL5        0.0000 
     50 CA          6.1543   44.0265   34.3260 C.3       4 GLC5        0.0000 
     51 CA          4.4140   45.0830   35.4050 C.3      12 GLL5        0.0000 
     52 CA          2.6870   42.7515   33.4273 C.3       4 GLC5        0.0000 
     53 CA          2.2560   44.1740   34.4620 C.3      12 GLL5        0.0000 
     54 CA          0.9714   45.5333   34.9074 C.3       4 GLC5        0.0000 
     55 CA         -1.3570   43.0085   35.5697 C.3       4 GLC5        0.0000 
     56 CA          0.2190   41.7760   36.0030 C.3      12 GLL5        0.0000 
     57 CA         -3.1910   43.7500   35.5440 C.3       8 GLP5        0.0000 
     58 CA          1.4870   41.2020   34.5727 C.3       4 GLC5        0.0000 
     59 CA          2.4970   40.1370   33.5500 C.3       8 GLP5        0.0000 
     60 CA         -0.0547   42.7943   37.7156 C.3       4 GLC5        0.0000 
     61 CA         -0.8580   43.8130   39.1310 C.3       8 GLP5        0.0000 
     62 CA          2.0815   40.8317   35.3077 C.3       4 GLC5        0.0000 
     63 CA          1.0200   41.2840   37.0050 C.3      12 GLL5        0.0000 
     64 CA          5.0103   42.5992   41.1662 C.3       4 GLC5        0.0000 
     65 CA          4.6970   42.5030   43.0380 C.3       8 GLP5        0.0000 
@<TRIPOS>BOND
@<TRIPOS>SUBSTRUCTURE
     1 ALC1       36 GROUP        1 X    ALC  0     ROOT ALC X 1
     2 SEC2        7 GROUP        1 X    SEC  0     **** SEC X 2
     3 LYC4        4 GROUP        1 X    LYC  0     **** LYC X 4
     4 GLC5        1 GROUP        1 X    GLC  0     **** GLC X 6
     5 ALP1       38 GROUP        1 Y    ALP  0     ROOT ALP Y 8
     6 SEP2        9 GROUP        1 Y    SEP  0     **** SEP Y 9
     7 LYP4        6 GROUP        1 Y    LYP  0     **** LYP Y 11
     8 GLP5        3 GROUP        1 Y    GLP  0     **** GLP Y 13
     9 ALL1       37 GROUP        1 Z    ALL  0     ROOT ALL Z 15
    10 SEL2        8 GROUP        1 Z    SEL  0     **** SEL Z 16
    11 LYL4        5 GROUP        1 Z    LYL  0     **** LYL Z 18
    12 GLL5        2 GROUP        1 Z    GLL  0     **** GLL Z 20
@<TRIPOS>SET

