#    Name: 3bqr_4RB_1_ligand
#    Modification time : Mon Mar 24 19:58:12 2014

@<TRIPOS>MOLECULE
3bqr_4RB_1_ligand
   42    44     1     0     0
SMALL
NO_CHARGES


@<TRIPOS>ATOM
      1 C1G         3.8150   45.4150   33.1080 C.ar      1 4RB401      0.0000 
      2 C1E         4.9840   46.1230   32.9030 C.ar      1 4RB401      0.0000 
      3 C1R         5.8840   46.3400   33.9540 C.ar      1 4RB401      0.0000 
      4 C1Q         7.1930   47.1070   33.6660 C.2       1 4RB401      0.0000 
      5 O1D         8.0400   47.1610   34.5930 O.co2     1 4RB401      0.0000 
      6 O1B         7.3420   47.5480   32.5140 O.co2     1 4RB401      0.0000 
      7 C1F         5.5950   45.7910   35.2010 C.ar      1 4RB401      0.0000 
      8 C1H         4.4140   45.0830   35.4050 C.ar      1 4RB401      0.0000 
      9 C1S         3.4950   44.8760   34.3430 C.ar      1 4RB401      0.0000 
     10 C1U         2.2560   44.1740   34.4620 C.2       1 4RB401      0.0000 
     11 C1K         1.1400   44.2640   33.7210 C.2       1 4RB401      0.0000 
     12 N1N         0.2000   43.4020   34.1840 N.pl3     1 4RB401      0.0000 
     13 C1V         0.7350   42.7580   35.1880 C.ar      1 4RB401      0.0000 
     14 C1J         0.2190   41.7760   36.0030 C.ar      1 4RB401      0.0000 
     15 C1I         1.0200   41.2840   37.0050 C.ar      1 4RB401      0.0000 
     16 N1X         2.0270   43.2160   35.4100 N.pl3     1 4RB401      0.0000 
     17 N1O         2.7640   42.7330   36.3180 N.ar      1 4RB401      0.0000 
     18 C1T         2.3120   41.7690   37.1260 C.ar      1 4RB401      0.0000 
     19 N1P         3.0460   41.2310   38.0870 N.pl3     1 4RB401      0.0000 
     20 C1W         4.4730   41.3200   38.1940 C.3       1 4RB401      0.0000 
     21 C1L         4.6760   42.6580   38.9100 C.3       1 4RB401      0.0000 
     22 C1A         5.9710   42.7330   39.6790 C.3       1 4RB401      0.0000 
     23 C1M         5.1510   41.2120   36.8110 C.3       1 4RB401      0.0000 
     24 O1C         5.1020   39.8570   36.2760 O.3       1 4RB401      0.0000 
     25 H           3.1545   45.2822   32.3114 H         1 4RB401      0.0000 
     26 H           5.2041   46.5001   31.9663 H         1 4RB401      0.0000 
     27 H           6.2614   45.9102   35.9790 H         1 4RB401      0.0000 
     28 H           4.1929   44.6993   36.3347 H         1 4RB401      0.0000 
     29 H           1.0150   44.8608   32.9578 H         1 4RB401      0.0000 
     30 H          -0.6870   43.3052   33.8203 H         1 4RB401      0.0000 
     31 H          -0.7283   41.4255   35.8664 H         1 4RB401      0.0000 
     32 H           0.6732   40.5716   37.6533 H         1 4RB401      0.0000 
     33 H           2.5742   40.6732   38.8717 H         1 4RB401      0.0000 
     34 H           4.8404   40.5414   38.8409 H         1 4RB401      0.0000 
     35 H           3.8305   42.8207   39.5967 H         1 4RB401      0.0000 
     36 H           4.6455   43.4652   38.1613 H         1 4RB401      0.0000 
     37 H           6.1916   41.5554   36.9227 H         1 4RB401      0.0000 
     38 H           4.6463   41.9217   36.1366 H         1 4RB401      0.0000 
     39 H           6.7645   42.6089   39.0832 H         1 4RB401      0.0000 
     40 H           6.0818   43.6163   40.1345 H         1 4RB401      0.0000 
     41 H           6.0235   42.0292   40.3875 H         1 4RB401      0.0000 
     42 H           5.9267   39.4114   36.6243 H         1 4RB401      0.0000 
@<TRIPOS>BOND
     1    2    1 ar   
     2    9    1 ar   
     3   25    1 1    
     4    3    2 ar   
     5   26    2 1    
     6    4    3 1    
     7    7    3 ar   
     8    5    4 ar   
     9    6    4 ar   
    10    8    7 ar   
    11   27    7 1    
    12    9    8 ar   
    13   28    8 1    
    14   10    9 1    
    15   11   10 2    
    16   16   10 1    
    17   12   11 1    
    18   29   11 1    
    19   13   12 1    
    20   30   12 1    
    21   14   13 ar   
    22   16   13 ar   
    23   15   14 ar   
    24   31   14 1    
    25   18   15 ar   
    26   32   15 1    
    27   17   16 ar   
    28   18   17 ar   
    29   19   18 1    
    30   20   19 1    
    31   33   19 1    
    32   21   20 1    
    33   23   20 1    
    34   34   20 1    
    35   22   21 1    
    36   35   21 1    
    37   36   21 1    
    38   39   22 1    
    39   40   22 1    
    40   41   22 1    
    41   24   23 1    
    42   37   23 1    
    43   38   23 1    
    44   42   24 1    
@<TRIPOS>SUBSTRUCTURE
     1 4RB401      1 GROUP   
@<TRIPOS>SET

