#    Name: 1m0o_MPM_1_INTS_M
#    Modification time : Mon Apr  7 14:25:32 2014

@<TRIPOS>MOLECULE
1m0o_MPM_1_INTS_M
   69     0     9     0     0
SMALL
NO_CHARGES


@<TRIPOS>ATOM
      1 CA         19.2790   50.7060   13.5275 C.3       3 GLC5        0.0000 
      2 CA         18.4330   52.5750   14.3780 C.3       9 GLL5        0.0000 
      3 CA         20.1250   48.8370   12.6770 C.3       6 GLP5        0.0000 
      4 CA         19.3690   54.3110   14.4915 C.3       3 GLC5        0.0000 
      5 CA         20.3050   56.0470   14.6050 C.3       6 GLP5        0.0000 
      6 CA         16.8020   51.7640   13.3280 C.3       3 GLC5        0.0000 
      7 CA         15.1710   50.9530   12.2780 C.3       6 GLP5        0.0000 
      8 N          13.9770   53.1430   17.1345 N.am      1 SEC2        0.0000 
      9 N          15.2290   53.6110   16.8980 N.am      7 SEL2        0.0000 
     10 N          12.7250   52.6750   17.3710 N.am      4 SEP2        0.0000 
     11 N          14.7675   54.9320   17.0880 N.am      1 SEC2        0.0000 
     12 N          14.3060   56.2530   17.2780 N.am      4 SEP2        0.0000 
     13 CA         19.7275   49.9505   14.3900 C.3       3 GLC5        0.0000 
     14 CA         19.3300   51.0640   16.1030 C.3       9 GLL5        0.0000 
     15 CA         18.9730   52.9775   17.0860 C.3       3 GLC5        0.0000 
     16 CA         18.6160   54.8910   18.0690 C.3       6 GLP5        0.0000 
     17 CA         20.8960   52.3595   16.4115 C.3       3 GLC5        0.0000 
     18 CA         22.4620   53.6550   16.7200 C.3       6 GLP5        0.0000 
     19 N          17.6340   54.2315   12.9085 N.am      1 SEC2        0.0000 
     20 N          17.4550   53.4490   13.9930 N.am      7 SEL2        0.0000 
     21 N          17.8130   55.0140   11.8240 N.am      4 SEP2        0.0000 
     22 CA         15.0390   56.3490   13.4720 C.3       3 GLC5        0.0000 
     23 CA         15.3700   54.7740   14.2590 C.3       9 GLL5        0.0000 
     24 CA         14.7080   57.9240   12.6850 C.3       6 GLP5        0.0000 
     25 CA         13.6450   53.4425   14.7180 C.3       3 GLC5        0.0000 
     26 CA         11.9200   52.1110   15.1770 C.3       6 GLP5        0.0000 
     27 CA         17.3845   53.3445   19.1210 C.3       3 GLC5        0.0000 
     28 CA         16.1530   51.7980   20.1730 C.3       9 GLL5        0.0000 
     29 CA         15.3120   50.7220   18.3895 C.3       3 GLC5        0.0000 
     30 CA         14.4710   49.6460   16.6060 C.3       6 GLP5        0.0000 
     31 CA         18.1610   53.8555   20.5360 C.3       3 GLC5        0.0000 
     32 CA         16.7820   52.9600   20.9970 C.3       9 GLL5        0.0000 
     33 CA         19.5400   54.7510   20.0750 C.3       6 GLP5        0.0000 
     34 CA         15.7360   48.8185   21.2770 C.3       3 GLC5        0.0000 
     35 CA         16.9600   50.5120   20.6860 C.3       9 GLL5        0.0000 
     36 CA         14.5120   47.1250   21.8680 C.3       6 GLP5        0.0000 
     37 N          21.8035   49.3495   14.8845 N.am      1 SEC2        0.0000 
     38 N          21.4580   48.7980   16.2110 N.am      7 SEL2        0.0000 
     39 N          22.1490   49.9010   13.5580 N.am      4 SEP2        0.0000 
     40 NZ         14.1420   49.6350   18.8785 N.4       2 LYC4        0.0000 
     41 NZ         14.0230   50.3910   19.9210 N.4       8 LYL4        0.0000 
     42 NZ         14.2610   48.8790   17.8360 N.4       5 LYP4        0.0000 
     43 N          13.8355   49.7480   21.4215 N.am      1 SEC2        0.0000 
     44 N          14.0230   50.3910   19.9210 N.am      7 SEL2        0.0000 
     45 N          13.6480   49.1050   22.9220 N.am      4 SEP2        0.0000 
     46 N          14.1420   49.6350   18.8785 N.am      1 SEC2        0.0000 
     47 N          14.2610   48.8790   17.8360 N.am      4 SEP2        0.0000 
     48 NZ         13.0380   52.3875   22.2110 N.4       2 LYC4        0.0000 
     49 NZ         14.2010   51.7140   21.8970 N.4       8 LYL4        0.0000 
     50 NZ         11.1970   53.9770   21.8460 N.4       5 LYP4        0.0000 
     51 N          13.0380   52.3875   22.2110 N.am      1 SEC2        0.0000 
     52 N          14.2010   51.7140   21.8970 N.am      7 SEL2        0.0000 
     53 N          11.8750   53.0610   22.5250 N.am      4 SEP2        0.0000 
     54 NZ         12.6700   53.5355   20.2030 N.4       2 LYC4        0.0000 
     55 NZ         13.7520   52.7930   19.7790 N.4       8 LYL4        0.0000 
     56 N          13.2385   52.7340   18.5750 N.am      1 SEC2        0.0000 
     57 N          13.7520   52.7930   19.7790 N.am      7 SEL2        0.0000 
     58 N          12.6700   53.5355   20.2030 N.am      1 SEC2        0.0000 
     59 N          11.5880   54.2780   20.6270 N.am      4 SEP2        0.0000 
     60 N          12.8135   52.9270   21.1520 N.am      1 SEC2        0.0000 
     61 CA         17.5510   55.1785   20.2910 C.3       3 GLC5        0.0000 
     62 CA         16.1600   54.3150   20.6450 C.3       9 GLL5        0.0000 
     63 CA         18.9420   56.0420   19.9370 C.3       6 GLP5        0.0000 
     64 CA         15.2285   55.7595   20.5285 C.3       3 GLC5        0.0000 
     65 CA         14.2970   57.2040   20.4120 C.3       6 GLP5        0.0000 
     66 CA         15.6298   51.2193   16.4640 C.3       3 GLC5        0.0000 
     67 CA         16.2880   53.2470   16.0950 C.3       9 GLL5        0.0000 
     68 CA         15.5282   52.6165   13.3993 C.3       3 GLC5        0.0000 
     69 CA         16.4010   53.7860   14.7820 C.3       9 GLL5        0.0000 
@<TRIPOS>BOND
@<TRIPOS>SUBSTRUCTURE
     1 SEC2        8 GROUP        1 X    SEC  0     ROOT SEC X 2
     2 LYC4       40 GROUP        1 X    LYC  0     **** LYC X 4
     3 GLC5        1 GROUP        1 X    GLC  0     **** GLC X 6
     4 SEP2       10 GROUP        1 Y    SEP  0     ROOT SEP Y 9
     5 LYP4       42 GROUP        1 Y    LYP  0     **** LYP Y 11
     6 GLP5        3 GROUP        1 Y    GLP  0     **** GLP Y 13
     7 SEL2        9 GROUP        1 Z    SEL  0     ROOT SEL Z 16
     8 LYL4       41 GROUP        1 Z    LYL  0     **** LYL Z 18
     9 GLL5        2 GROUP        1 Z    GLL  0     **** GLL Z 20
@<TRIPOS>SET

