#    Name: 1m0o_MPM_1_ligand
#    Modification time : Mon Apr  7 14:25:32 2014

@<TRIPOS>MOLECULE
1m0o_MPM_1_ligand
   40    40     1     0     0
SMALL
NO_CHARGES


@<TRIPOS>ATOM
      1 C4         17.2890   52.3380   16.5490 C.ar      1 MPM434      0.0000 
      2 C3         16.2880   53.2470   16.0950 C.ar      1 MPM434      0.0000 
      3 C5         18.3640   52.0000   15.6390 C.ar      1 MPM434      0.0000 
      4 C4A        17.2920   51.7180   17.9640 C.2       1 MPM434      0.0000 
      5 C2         16.4010   53.7860   14.7820 C.ar      1 MPM434      0.0000 
      6 C6         18.4330   52.5750   14.3780 C.ar      1 MPM434      0.0000 
      7 O1         15.2290   53.6110   16.8980 O.3       1 MPM434      0.0000 
      8 C5A        19.3300   51.0640   16.1030 C.3       1 MPM434      0.0000 
      9 N2         16.3730   52.1820   18.7540 N.2       1 MPM434      0.0000 
     10 N1         17.4550   53.4490   13.9930 N.ar      1 MPM434      0.0000 
     11 C2A        15.3700   54.7740   14.2590 C.3       1 MPM434      0.0000 
     12 O2         19.2150   49.7090   16.0170 O.3       1 MPM434      0.0000 
     13 C          16.1530   51.7980   20.1730 C.3       1 MPM434      0.0000 
     14 P1         20.1330   48.7420   16.7460 P.3       1 MPM434      0.0000 
     15 CA2        16.7820   52.9600   20.9970 C.3       1 MPM434      0.0000 
     16 CA1        16.9600   50.5120   20.6860 C.3       1 MPM434      0.0000 
     17 P2         14.4980   51.6870   20.4540 P.3       1 MPM434      0.0000 
     18 O3         19.6780   47.3930   16.4710 O.co2     1 MPM434      0.0000 
     19 O5         20.0630   49.0500   18.1590 O.co2     1 MPM434      0.0000 
     20 O4         21.4580   48.7980   16.2110 O.co2     1 MPM434      0.0000 
     21 O8         14.0230   50.3910   19.9210 O.co2     1 MPM434      0.0000 
     22 O6         14.2010   51.7140   21.8970 O.co2     1 MPM434      0.0000 
     23 O7         13.7520   52.7930   19.7790 O.co2     1 MPM434      0.0000 
     24 CA3        16.1600   54.3150   20.6450 C.3       1 MPM434      0.0000 
     25 H          17.9835   51.0367   18.1309 H         1 MPM434      0.0000 
     26 H          19.2106   52.3414   13.7507 H         1 MPM434      0.0000 
     27 H          19.5748   51.3570   17.2227 H         1 MPM434      0.0000 
     28 H          20.3680   51.3902   15.6385 H         1 MPM434      0.0000 
     29 H          17.8529   52.9874   20.7950 H         1 MPM434      0.0000 
     30 H          16.6308   52.7542   22.0568 H         1 MPM434      0.0000 
     31 H          15.3264   55.5987   14.8229 H         1 MPM434      0.0000 
     32 H          15.5770   55.0677   13.3258 H         1 MPM434      0.0000 
     33 H          14.4512   54.3795   14.2451 H         1 MPM434      0.0000 
     34 H          17.9488   50.6374   20.6052 H         1 MPM434      0.0000 
     35 H          16.7675   50.3116   21.6466 H         1 MPM434      0.0000 
     36 H          16.7247   49.6929   20.1629 H         1 MPM434      0.0000 
     37 H          16.5687   55.0596   21.1728 H         1 MPM434      0.0000 
     38 H          16.2819   54.5397   19.6782 H         1 MPM434      0.0000 
     39 H          15.1770   54.3312   20.8280 H         1 MPM434      0.0000 
     40 H          15.4760   53.2909   17.8126 H         1 MPM434      0.0000 
@<TRIPOS>BOND
     1    2    1 ar   
     2    3    1 ar   
     3    4    1 1    
     4    5    2 ar   
     5    7    2 1    
     6    6    3 ar   
     7    8    3 1    
     8    9    4 2    
     9   25    4 1    
    10   10    5 ar   
    11   11    5 1    
    12   10    6 ar   
    13   26    6 1    
    14   40    7 1    
    15   12    8 1    
    16   27    8 1    
    17   28    8 1    
    18   13    9 1    
    19   31   11 1    
    20   32   11 1    
    21   33   11 1    
    22   14   12 1    
    23   15   13 1    
    24   16   13 1    
    25   17   13 1    
    26   18   14 ar   
    27   19   14 ar   
    28   20   14 ar   
    29   24   15 1    
    30   29   15 1    
    31   30   15 1    
    32   34   16 1    
    33   35   16 1    
    34   36   16 1    
    35   21   17 ar   
    36   22   17 ar   
    37   23   17 ar   
    38   37   24 1    
    39   38   24 1    
    40   39   24 1    
@<TRIPOS>SUBSTRUCTURE
     1 MPM434      1 GROUP   
@<TRIPOS>SET

