#    Name: 3m08_RAR_1_INTS_M
#    Modification time : Mon Mar 24 22:32:22 2014

@<TRIPOS>MOLECULE
3m08_RAR_1_INTS_M
   88     0     6     0     0
SMALL
NO_CHARGES


@<TRIPOS>ATOM
      1 O          -2.8665   27.5395   -2.7290 O.2       1 ALC1        0.0000 
      2 O          -3.2440   28.7430   -3.3640 O.2       5 ALL1        0.0000 
      3 O          -2.4890   26.3360   -2.0940 O.2       3 ALP1        0.0000 
      4 O          -1.9150   29.1975   -3.3135 O.2       1 ALC1        0.0000 
      5 O          -0.5860   29.6520   -3.2630 O.2       3 ALP1        0.0000 
      6 CA         -4.9675   27.9990   -2.1665 C.3       2 GLC5        0.0000 
      7 CA         -4.4060   28.7320   -4.1890 C.3       6 GLL5        0.0000 
      8 CA         -5.5290   27.2660   -0.1440 C.3       4 GLP5        0.0000 
      9 CA         -4.0060   26.7405   -4.0980 C.3       2 GLC5        0.0000 
     10 CA         -3.6060   24.7490   -4.0070 C.3       4 GLP5        0.0000 
     11 CA         -3.9805   31.7815   -3.6915 C.3       2 GLC5        0.0000 
     12 CA         -3.6890   30.8670   -5.1500 C.3       6 GLL5        0.0000 
     13 CA         -4.2720   32.6960   -2.2330 C.3       4 GLP5        0.0000 
     14 CA         -2.3680   29.7375   -5.5940 C.3       2 GLC5        0.0000 
     15 CA         -1.0470   28.6080   -6.0380 C.3       4 GLP5        0.0000 
     16 CA         -4.3425   32.2580   -9.2475 C.3       2 GLC5        0.0000 
     17 CA         -3.6960   33.4480   -7.9020 C.3       6 GLL5        0.0000 
     18 CA         -4.9890   31.0680  -10.5930 C.3       4 GLP5        0.0000 
     19 CA         -3.4105   32.1140   -9.9870 C.3       2 GLC5        0.0000 
     20 CA         -1.8320   33.1600   -9.3810 C.3       6 GLL5        0.0000 
     21 CA         -0.6750   34.8300   -9.6915 C.3       2 GLC5        0.0000 
     22 CA          0.4820   36.5000  -10.0020 C.3       4 GLP5        0.0000 
     23 CA         -0.4085   32.1915   -9.9870 C.3       2 GLC5        0.0000 
     24 CA          1.0150   31.2230  -10.5930 C.3       4 GLP5        0.0000 
     25 CA         -6.2350   33.2220   -9.6360 C.3       2 GLC5        0.0000 
     26 CA         -6.1830   35.0400   -9.4020 C.3       6 GLL5        0.0000 
     27 CA         -6.2870   31.4040   -9.8700 C.3       4 GLP5        0.0000 
     28 CA         -8.2035   34.3700   -8.8005 C.3       2 GLC5        0.0000 
     29 CA        -10.2240   33.7000   -8.1990 C.3       4 GLP5        0.0000 
     30 CA         -6.4850   35.7005   -3.3355 C.3       2 GLC5        0.0000 
     31 CA         -7.2940   35.1170   -5.0350 C.3       6 GLL5        0.0000 
     32 CA         -5.6760   36.2840   -1.6360 C.3       4 GLP5        0.0000 
     33 CA        -11.5530   34.3885   -5.2020 C.3       2 GLC5        0.0000 
     34 CA        -11.8020   36.0740   -4.2600 C.3       6 GLL5        0.0000 
     35 CA        -11.3040   32.7030   -6.1440 C.3       4 GLP5        0.0000 
     36 CA        -15.3030   33.9610   -3.8890 C.3       2 GLC5        0.0000 
     37 CA        -14.1560   35.3310   -3.6470 C.3       6 GLL5        0.0000 
     38 CA        -16.4500   32.5910   -4.1310 C.3       4 GLP5        0.0000 
     39 CA        -11.5995   35.9870    0.6050 C.3       2 GLC5        0.0000 
     40 CA        -10.2280   37.0320    0.2370 C.3       6 GLL5        0.0000 
     41 CA        -12.9710   34.9420    0.9730 C.3       4 GLP5        0.0000 
     42 CA         -8.1725   37.6470    0.0480 C.3       2 GLC5        0.0000 
     43 CA         -6.1170   38.2620   -0.1410 C.3       4 GLP5        0.0000 
     44 CA         -7.1825   32.3380   -6.2945 C.3       2 GLC5        0.0000 
     45 CA         -5.3210   32.7720   -5.6940 C.3       6 GLL5        0.0000 
     46 CA         -9.0440   31.9040   -6.8950 C.3       4 GLP5        0.0000 
     47 CA         -5.0295   29.7780   -7.8905 C.3       2 GLC5        0.0000 
     48 CA         -5.7750   29.6510   -5.8640 C.3       6 GLL5        0.0000 
     49 CA         -4.2840   29.9050   -9.9170 C.3       4 GLP5        0.0000 
     50 CA         -7.4095   30.7775   -6.3795 C.3       2 GLC5        0.0000 
     51 CA         -5.0050   26.1740   -4.4070 C.3       2 GLC5        0.0000 
     52 CA         -6.4040   27.5990   -4.8070 C.3       6 GLL5        0.0000 
     53 CA         -6.4590   26.4005   -6.2915 C.3       2 GLC5        0.0000 
     54 CA         -6.5140   25.2020   -7.7760 C.3       4 GLP5        0.0000 
     55 CA         -7.3245   28.5190   -3.7955 C.3       2 GLC5        0.0000 
     56 CA         -8.2450   29.4390   -2.7840 C.3       4 GLP5        0.0000 
     57 O          -8.8460   26.3055   -4.9925 O.2       1 ALC1        0.0000 
     58 O          -7.3220   26.5240   -4.6150 O.2       5 ALL1        0.0000 
     59 O         -10.3700   26.0870   -5.3700 O.2       3 ALP1        0.0000 
     60 O          -8.1705   26.8215   -5.6800 O.2       1 ALC1        0.0000 
     61 O          -9.0190   27.1190   -6.7450 O.2       3 ALP1        0.0000 
     62 O          -7.6755   25.3770   -3.5575 O.2       1 ALC1        0.0000 
     63 O          -8.0290   24.2300   -2.5000 O.2       3 ALP1        0.0000 
     64 CA         -4.0075   31.0533   -8.2390 C.3       2 GLC5        0.0000 
     65 CA         -4.1290   32.0140   -6.0050 C.3       6 GLL5        0.0000 
     66 CA         -3.8140   35.2458   -6.6091 C.3       2 GLC5        0.0000 
     67 CA         -5.6900   33.8670   -6.5110 C.3       6 GLL5        0.0000 
     68 CA         -2.6290   36.6440   -6.0910 C.3       4 GLP5        0.0000 
     69 CA         -7.9230   33.2993   -6.3044 C.3       2 GLC5        0.0000 
     70 CA        -13.8730   35.7705   -1.6970 C.3       2 GLC5        0.0000 
     71 CA        -13.1340   36.4130   -3.6950 C.3       6 GLL5        0.0000 
     72 CA        -14.1010   35.6690    0.2770 C.3       4 GLP5        0.0000 
     73 CA        -11.4457   35.2940   -0.7405 C.3       2 GLC5        0.0000 
     74 CA        -10.7000   37.1070   -2.1070 C.3       6 GLL5        0.0000 
     75 CA        -12.4630   33.8050    0.0970 C.3       4 GLP5        0.0000 
     76 CA         -8.5260   37.5091   -2.2521 C.3       2 GLC5        0.0000 
     77 CA        -10.1570   36.4590   -1.0490 C.3       6 GLL5        0.0000 
     78 CA         -6.6520   38.3940   -2.5790 C.3       4 GLP5        0.0000 
     79 CA        -10.4062   40.2193    0.3598 C.3       2 GLC5        0.0000 
     80 CA        -10.8760   38.2950    0.4250 C.3       6 GLL5        0.0000 
     81 CA         -9.6540   41.8080    0.8430 C.3       4 GLP5        0.0000 
     82 CA        -12.8414   37.7609   -0.0386 C.3       2 GLC5        0.0000 
     83 CA        -11.4410   38.9660   -0.6720 C.3       6 GLL5        0.0000 
     84 CA        -14.4190   36.9960    0.9430 C.3       4 GLP5        0.0000 
     85 CA         -5.8000   32.4044   -8.1205 C.3       2 GLC5        0.0000 
     86 CA         -3.5090   34.2069   -5.4463 C.3       2 GLC5        0.0000 
     87 CA         -2.4920   35.9270   -4.7650 C.3       4 GLP5        0.0000 
     88 CA         -6.6971   29.4379   -4.0164 C.3       2 GLC5        0.0000 
@<TRIPOS>BOND
@<TRIPOS>SUBSTRUCTURE
     1 ALC1        1 GROUP        1 X    ALC  0     ROOT ALC X 1
     2 GLC5        6 GROUP        1 X    GLC  0     **** GLC X 6
     3 ALP1        3 GROUP        1 Y    ALP  0     ROOT ALP Y 8
     4 GLP5        8 GROUP        1 Y    GLP  0     **** GLP Y 13
     5 ALL1        2 GROUP        1 Z    ALL  0     ROOT ALL Z 15
     6 GLL5        7 GROUP        1 Z    GLL  0     **** GLL Z 20
@<TRIPOS>SET

