#    Name: 3m08_RAR_1_ligand
#    Modification time : Mon Mar 24 22:32:22 2014

@<TRIPOS>MOLECULE
3m08_RAR_1_ligand
   66    69     1     0     0
SMALL
NO_CHARGES


@<TRIPOS>ATOM
      1 N01        -3.2440   28.7430   -3.3640 N.pl3     1 RAR200      0.0000 
      2 C02        -4.4060   28.7320   -4.1890 C.ar      1 RAR200      0.0000 
      3 C03        -4.6410   29.7130   -5.0780 C.ar      1 RAR200      0.0000 
      4 C04        -3.6890   30.8670   -5.1500 C.3       1 RAR200      0.0000 
      5 C05        -4.1290   32.0140   -6.0050 C.ar      1 RAR200      0.0000 
      6 C06        -3.3330   32.3890   -7.1170 C.ar      1 RAR200      0.0000 
      7 C07        -3.6960   33.4480   -7.9020 C.ar      1 RAR200      0.0000 
      8 O08        -2.9590   33.8540   -8.9920 O.3       1 RAR200      0.0000 
      9 C09        -1.8320   33.1600   -9.3810 C.3       1 RAR200      0.0000 
     10 C10        -4.9200   34.2080   -7.5850 C.ar      1 RAR200      0.0000 
     11 O11        -5.2690   35.2550   -8.3950 O.3       1 RAR200      0.0000 
     12 C12        -6.1830   35.0400   -9.4020 C.3       1 RAR200      0.0000 
     13 C13        -5.6900   33.8670   -6.5110 C.ar      1 RAR200      0.0000 
     14 C14        -6.9300   34.6770   -6.2740 C.2       1 RAR200      0.0000 
     15 C15        -7.2940   35.1170   -5.0350 C.2       1 RAR200      0.0000 
     16 C16        -8.5920   35.8390   -4.8750 C.2       1 RAR200      0.0000 
     17 N17        -9.3320   35.7240   -3.6550 N.am      1 RAR200      0.0000 
     18 N18        -8.6950   35.0810   -2.4980 N.2       1 RAR200      0.0000 
     19 C19        -9.4840   35.1220   -1.2680 C.2       1 RAR200      0.0000 
     20 C20       -10.5860   36.4720   -3.4960 C.3       1 RAR200      0.0000 
     21 C21       -11.8020   36.0740   -4.2600 C.3       1 RAR200      0.0000 
     22 C22       -13.1340   36.4130   -3.6950 C.3       1 RAR200      0.0000 
     23 C23       -14.1560   35.3310   -3.6470 C.3       1 RAR200      0.0000 
     24 C24       -10.7000   37.1070   -2.1070 C.ar      1 RAR200      0.0000 
     25 C25       -10.1570   36.4590   -1.0490 C.ar      1 RAR200      0.0000 
     26 C26       -10.2280   37.0320    0.2370 C.ar      1 RAR200      0.0000 
     27 C27       -10.8760   38.2950    0.4250 C.ar      1 RAR200      0.0000 
     28 C28       -11.4410   38.9660   -0.6720 C.ar      1 RAR200      0.0000 
     29 C29       -11.3690   38.4210   -1.9170 C.ar      1 RAR200      0.0000 
     30 O30        -9.0230   36.5320   -5.7870 O.2       1 RAR200      0.0000 
     31 C31        -5.3210   32.7720   -5.6940 C.ar      1 RAR200      0.0000 
     32 C32        -5.7750   29.6510   -5.8640 C.ar      1 RAR200      0.0000 
     33 N33        -6.6490   28.5920   -5.7300 N.ar      1 RAR200      0.0000 
     34 C34        -6.4040   27.5990   -4.8070 C.ar      1 RAR200      0.0000 
     35 N35        -7.3220   26.5240   -4.6150 N.pl3     1 RAR200      0.0000 
     36 N36        -5.3120   27.6510   -4.0490 N.ar      1 RAR200      0.0000 
     37 H          -3.3380   28.3135   -2.4658 H         1 RAR200      0.0000 
     38 H          -2.4325   29.1794   -3.7527 H         1 RAR200      0.0000 
     39 H          -2.7018   30.4989   -5.5178 H         1 RAR200      0.0000 
     40 H          -3.4938   31.2397   -4.1164 H         1 RAR200      0.0000 
     41 H          -2.4800   31.8459   -7.3160 H         1 RAR200      0.0000 
     42 H          -7.4929   34.8801   -7.1182 H         1 RAR200      0.0000 
     43 H          -6.7364   34.9860   -4.2031 H         1 RAR200      0.0000 
     44 H          -9.5794   34.4072   -0.6604 H         1 RAR200      0.0000 
     45 H         -10.2577   37.5282   -4.1342 H         1 RAR200      0.0000 
     46 H         -11.7607   34.9589   -4.4441 H         1 RAR200      0.0000 
     47 H         -11.7296   36.5095   -5.3012 H         1 RAR200      0.0000 
     48 H         -13.5594   37.2851   -4.2680 H         1 RAR200      0.0000 
     49 H         -12.9929   36.8216   -2.6543 H         1 RAR200      0.0000 
     50 H          -9.8209   36.5548    1.0398 H         1 RAR200      0.0000 
     51 H         -10.9210   38.6974    1.3607 H         1 RAR200      0.0000 
     52 H         -11.9073   39.8728   -0.5135 H         1 RAR200      0.0000 
     53 H         -11.7525   38.8648   -2.7469 H         1 RAR200      0.0000 
     54 H          -5.8804   32.5090   -4.8912 H         1 RAR200      0.0000 
     55 H          -5.9677   30.3962   -6.5505 H         1 RAR200      0.0000 
     56 H          -7.0703   25.8490   -3.9214 H         1 RAR200      0.0000 
     57 H          -8.1400   26.5359   -5.1901 H         1 RAR200      0.0000 
     58 H          -1.4013   33.5714  -10.1843 H         1 RAR200      0.0000 
     59 H          -1.1418   33.1372   -8.6577 H         1 RAR200      0.0000 
     60 H          -2.0427   32.2109   -9.6152 H         1 RAR200      0.0000 
     61 H          -6.3602   35.8726   -9.9267 H         1 RAR200      0.0000 
     62 H          -5.8659   34.3473  -10.0497 H         1 RAR200      0.0000 
     63 H          -7.0626   34.7261   -9.0444 H         1 RAR200      0.0000 
     64 H         -14.3637   34.9756   -4.5583 H         1 RAR200      0.0000 
     65 H         -13.8511   34.5565   -3.0928 H         1 RAR200      0.0000 
     66 H         -15.0179   35.6514   -3.2540 H         1 RAR200      0.0000 
@<TRIPOS>BOND
     1    2    1 1    
     2   37    1 1    
     3   38    1 1    
     4    3    2 ar   
     5   36    2 ar   
     6    4    3 1    
     7   32    3 ar   
     8    5    4 1    
     9   39    4 1    
    10   40    4 1    
    11    6    5 ar   
    12   31    5 ar   
    13    7    6 ar   
    14   41    6 1    
    15    8    7 1    
    16   10    7 ar   
    17    9    8 1    
    18   58    9 1    
    19   59    9 1    
    20   60    9 1    
    21   11   10 1    
    22   13   10 ar   
    23   12   11 1    
    24   61   12 1    
    25   62   12 1    
    26   63   12 1    
    27   14   13 1    
    28   31   13 ar   
    29   15   14 2    
    30   42   14 1    
    31   16   15 1    
    32   43   15 1    
    33   17   16 am   
    34   30   16 2    
    35   18   17 1    
    36   20   17 1    
    37   19   18 2    
    38   25   19 1    
    39   44   19 1    
    40   21   20 1    
    41   24   20 1    
    42   45   20 1    
    43   22   21 1    
    44   46   21 1    
    45   47   21 1    
    46   23   22 1    
    47   48   22 1    
    48   49   22 1    
    49   64   23 1    
    50   65   23 1    
    51   66   23 1    
    52   25   24 ar   
    53   29   24 ar   
    54   26   25 ar   
    55   27   26 ar   
    56   50   26 1    
    57   28   27 ar   
    58   51   27 1    
    59   29   28 ar   
    60   52   28 1    
    61   53   29 1    
    62   54   31 1    
    63   33   32 ar   
    64   55   32 1    
    65   34   33 ar   
    66   35   34 1    
    67   36   34 ar   
    68   56   35 1    
    69   57   35 1    
@<TRIPOS>SUBSTRUCTURE
     1 RAR200      1 GROUP   
@<TRIPOS>SET

