#    Name: 3dkc_ATP_1_INTS_M
#    Modification time : Mon Mar 24 23:34:49 2014

@<TRIPOS>MOLECULE
3dkc_ATP_1_INTS_M
   80     0    15     0     0
SMALL
NO_CHARGES


@<TRIPOS>ATOM
      1 N          11.1655   28.7100   23.2610 N.am      2 SEC2        0.0000 
      2 N          12.1870   28.1860   22.5850 N.am     12 SEL2        0.0000 
      3 N          10.1440   29.2340   23.9370 N.am      7 SEP2        0.0000 
      4 N          10.7645   27.4240   22.0505 N.am      2 SEC2        0.0000 
      5 N           9.3420   26.6620   21.5160 N.am      7 SEP2        0.0000 
      6 NZ         15.2625   28.3320   22.9520 N.4       3 LYC4        0.0000 
      7 NZ         14.3650   27.6900   21.3370 N.4      13 LYL4        0.0000 
      8 NZ         16.1600   28.9740   24.5670 N.4       8 LYP4        0.0000 
      9 Zn         15.1725   28.1975   21.0310 Zn        4 ZIC7        0.0000 
     10 Zn         14.3650   27.6900   21.3370 Zn       14 ZIL7        0.0000 
     11 Zn         15.9800   28.7050   20.7250 Zn        9 ZIP7        0.0000 
     12 N          14.8295   26.5430   20.4695 N.am      2 SEC2        0.0000 
     13 N          14.3650   27.6900   21.3370 N.am     12 SEL2        0.0000 
     14 N          15.2940   25.3960   19.6020 N.am      7 SEP2        0.0000 
     15 NZ         11.7935   26.6020   19.3300 N.4       3 LYC4        0.0000 
     16 NZ         12.2070   26.5200   20.6960 N.4      13 LYL4        0.0000 
     17 NZ         10.6700   25.6540   17.5100 N.4       8 LYP4        0.0000 
     18 N          10.7745   26.5910   21.1060 N.am      2 SEC2        0.0000 
     19 N          12.2070   26.5200   20.6960 N.am     12 SEL2        0.0000 
     20 N          12.7415   25.4425   21.1410 N.am      2 SEC2        0.0000 
     21 N          13.2760   24.3650   21.5860 N.am      7 SEP2        0.0000 
     22 N          11.7935   26.6020   19.3300 N.am      2 SEC2        0.0000 
     23 N          11.3800   26.6840   17.9640 N.am      7 SEP2        0.0000 
     24 N          13.7505   25.9580   20.1490 N.am      2 SEC2        0.0000 
     25 Zn         15.3715   29.2650   20.1175 Zn        4 ZIC7        0.0000 
     26 Zn         14.7630   29.8250   19.5100 Zn       14 ZIL7        0.0000 
     27 N          11.9455   27.8150   19.1060 N.am      2 SEC2        0.0000 
     28 N          12.5110   28.9460   20.2480 N.am     12 SEL2        0.0000 
     29 NZ         15.9765   29.6025   23.3095 N.4       3 LYC4        0.0000 
     30 NZ         15.7930   30.2310   22.0520 N.4      13 LYL4        0.0000 
     31 Zn         15.8865   29.4680   21.3885 Zn        4 ZIC7        0.0000 
     32 Zn         15.7930   30.2310   22.0520 Zn       14 ZIL7        0.0000 
     33 N          15.9765   29.6025   23.3095 N.am      2 SEC2        0.0000 
     34 N          15.7930   30.2310   22.0520 N.am     12 SEL2        0.0000 
     35 N          16.1600   28.9740   24.5670 N.am      7 SEP2        0.0000 
     36 N          16.5080   28.9920   22.0860 N.am      2 SEC2        0.0000 
     37 N          17.2230   27.7530   22.1200 N.am      7 SEP2        0.0000 
     38 NZ         15.2010   30.2645   24.0985 N.4       3 LYC4        0.0000 
     39 NZ         14.2420   31.5550   23.6300 N.4      13 LYL4        0.0000 
     40 N          15.2010   30.2645   24.0985 N.am      2 SEC2        0.0000 
     41 N          14.2420   31.5550   23.6300 N.am     12 SEL2        0.0000 
     42 CA         13.1250   34.4310   22.8920 C.3       5 GLC5        0.0000 
     43 CA         14.7710   33.8810   21.6090 C.3      15 GLL5        0.0000 
     44 CA         11.4790   34.9810   24.1750 C.3      10 GLP5        0.0000 
     45 CA         16.6405   36.4765   20.4495 C.3       5 GLC5        0.0000 
     46 CA         15.4240   34.8390   20.6240 C.3      15 GLL5        0.0000 
     47 CA         17.8570   38.1140   20.2750 C.3      10 GLP5        0.0000 
     48 CA         17.7160   36.3455   20.0050 C.3       5 GLC5        0.0000 
     49 CA         17.5750   34.5770   19.7350 C.3      15 GLL5        0.0000 
     50 CA         18.3405   35.0570   21.7710 C.3       5 GLC5        0.0000 
     51 CA         19.1060   35.5370   23.8070 C.3      10 GLP5        0.0000 
     52 CA         23.6245   33.1105   18.7630 C.3       5 GLC5        0.0000 
     53 CA         22.4320   33.8180   20.2470 C.3      15 GLL5        0.0000 
     54 CA         24.8170   32.4030   17.2790 C.3      10 GLP5        0.0000 
     55 O          24.8145   33.1960   20.7615 O.2       1 ALC1        0.0000 
     56 O          23.4130   33.0140   20.7560 O.2      11 ALL1        0.0000 
     57 O          26.2160   33.3780   20.7670 O.2       6 ALP1        0.0000 
     58 N          24.0130   35.1350   18.8005 N.am      2 SEC2        0.0000 
     59 N          22.7300   34.9440   19.5340 N.am     12 SEL2        0.0000 
     60 N          25.2960   35.3260   18.0670 N.am      7 SEP2        0.0000 
     61 CA         21.1090   37.2230   20.4675 C.3       5 GLC5        0.0000 
     62 CA         21.7840   35.7590   19.0250 C.3      15 GLL5        0.0000 
     63 CA         20.4340   38.6870   21.9100 C.3      10 GLP5        0.0000 
     64 CA         22.4115   35.6700   21.1050 C.3       5 GLC5        0.0000 
     65 CA         23.0390   35.5810   23.1850 C.3      10 GLP5        0.0000 
     66 CA         23.0300   34.7120   17.8200 C.3       5 GLC5        0.0000 
     67 CA         24.2760   33.6650   16.6150 C.3      10 GLP5        0.0000 
     68 CA         21.1355   34.1095   18.0415 C.3       5 GLC5        0.0000 
     69 CA         20.4870   32.4600   17.0580 C.3      10 GLP5        0.0000 
     70 CA         18.9430   36.2790   20.0680 C.3       5 GLC5        0.0000 
     71 CA         20.0290   34.4440   19.8610 C.3      15 GLL5        0.0000 
     72 CA         14.2788   35.9705   21.6812 C.3       5 GLC5        0.0000 
     73 CA         13.4600   37.5810   22.2460 C.3      10 GLP5        0.0000 
     74 CA         16.2278   34.0860   22.6797 C.3       5 GLC5        0.0000 
     75 CA         17.3580   33.8120   24.2430 C.3      10 GLP5        0.0000 
     76 CA         18.8012   33.2825   18.2085 C.3       5 GLC5        0.0000 
     77 CA         19.8103   34.7580   21.9812 C.3       5 GLC5        0.0000 
     78 CA         22.3775   34.6235   21.7668 C.3       5 GLC5        0.0000 
     79 CA         21.0000   33.5140   20.4500 C.3      15 GLL5        0.0000 
     80 CA         20.6797   33.2575   18.5814 C.3       5 GLC5        0.0000 
@<TRIPOS>BOND
@<TRIPOS>SUBSTRUCTURE
     1 ALC1       55 GROUP        1 X    ALC  0     ROOT ALC X 1
     2 SEC2        1 GROUP        1 X    SEC  0     **** SEC X 2
     3 LYC4        6 GROUP        1 X    LYC  0     **** LYC X 4
     4 ZIC7        9 GROUP        1 X    ZIC  0     **** ZIC X 5
     5 GLC5       42 GROUP        1 X    GLC  0     **** GLC X 6
     6 ALP1       57 GROUP        1 Y    ALP  0     ROOT ALP Y 8
     7 SEP2        3 GROUP        1 Y    SEP  0     **** SEP Y 9
     8 LYP4        8 GROUP        1 Y    LYP  0     **** LYP Y 11
     9 ZIP7       11 GROUP        1 Y    ZIP  0     **** ZIP Y 12
    10 GLP5       44 GROUP        1 Y    GLP  0     **** GLP Y 13
    11 ALL1       56 GROUP        1 Z    ALL  0     ROOT ALL Z 15
    12 SEL2        2 GROUP        1 Z    SEL  0     **** SEL Z 16
    13 LYL4        7 GROUP        1 Z    LYL  0     **** LYL Z 18
    14 ZIL7       10 GROUP        1 Z    ZIL  0     **** ZIL Z 19
    15 GLL5       43 GROUP        1 Z    GLL  0     **** GLL Z 20
@<TRIPOS>SET

