#    Name: 3dkc_ATP_1_ligand
#    Modification time : Mon Mar 24 23:34:49 2014

@<TRIPOS>MOLECULE
3dkc_ATP_1_ligand
   43    45     1     0     0
SMALL
NO_CHARGES


@<TRIPOS>ATOM
      1 PG         12.8740   27.7640   21.2910 P.3       1 ATP1        0.0000 
      2 O1G        12.1870   28.1860   22.5850 O.co2     1 ATP1        0.0000 
      3 O2G        14.3650   27.6900   21.3370 O.co2     1 ATP1        0.0000 
      4 O3G        12.2070   26.5200   20.6960 O.co2     1 ATP1        0.0000 
      5 PB         13.3910   30.2590   19.9060 P.3       1 ATP1        0.0000 
      6 O1B        14.7630   29.8250   19.5100 O.co2     1 ATP1        0.0000 
      7 O2B        12.6100   31.1430   18.9690 O.co2     1 ATP1        0.0000 
      8 O3B        12.5110   28.9460   20.2480 O.3       1 ATP1        0.0000 
      9 PA         14.7720   31.3270   22.2420 P.3       1 ATP1        0.0000 
     10 O1A        15.7930   30.2310   22.0520 O.co2     1 ATP1        0.0000 
     11 O2A        14.2420   31.5550   23.6300 O.co2     1 ATP1        0.0000 
     12 O3A        13.4660   31.0310   21.3370 O.3       1 ATP1        0.0000 
     13 O5'        15.4700   32.6210   21.6410 O.3       1 ATP1        0.0000 
     14 C5'        14.7710   33.8810   21.6090 C.3       1 ATP1        0.0000 
     15 C4'        15.4240   34.8390   20.6240 C.3       1 ATP1        0.0000 
     16 O4'        16.8200   34.9590   20.8870 O.3       1 ATP1        0.0000 
     17 C3'        15.3190   34.2940   19.2020 C.3       1 ATP1        0.0000 
     18 O3'        15.1710   35.4150   18.3130 O.3       1 ATP1        0.0000 
     19 C2'        16.6560   33.6330   18.9830 C.3       1 ATP1        0.0000 
     20 O2'        17.0480   33.4970   17.6070 O.3       1 ATP1        0.0000 
     21 C1'        17.5750   34.5770   19.7350 C.3       1 ATP1        0.0000 
     22 N9         18.8250   33.9390   20.1540 N.pl3     1 ATP1        0.0000 
     23 C8         18.9740   32.8050   20.8740 C.2       1 ATP1        0.0000 
     24 N7         20.2920   32.5460   21.0470 N.2       1 ATP1        0.0000 
     25 C5         21.0000   33.5140   20.4500 C.ar      1 ATP1        0.0000 
     26 C6         22.4320   33.8180   20.2470 C.ar      1 ATP1        0.0000 
     27 N6         23.4130   33.0140   20.7560 N.pl3     1 ATP1        0.0000 
     28 N1         22.7300   34.9440   19.5340 N.ar      1 ATP1        0.0000 
     29 C2         21.7840   35.7590   19.0250 C.ar      1 ATP1        0.0000 
     30 N3         20.4630   35.5270   19.1610 N.ar      1 ATP1        0.0000 
     31 C4         20.0290   34.4440   19.8610 C.ar      1 ATP1        0.0000 
     32 H          14.7688   34.3603   22.5989 H         1 ATP1        0.0000 
     33 H          13.7217   33.7466   21.3079 H         1 ATP1        0.0000 
     34 H          14.9338   35.7832   20.6581 H         1 ATP1        0.0000 
     35 H          14.5545   33.6007   19.1536 H         1 ATP1        0.0000 
     36 H          16.6576   32.7029   19.5212 H         1 ATP1        0.0000 
     37 H          17.7593   35.4292   19.1150 H         1 ATP1        0.0000 
     38 H          18.2472   32.2577   21.2162 H         1 ATP1        0.0000 
     39 H          23.1040   32.1929   21.2359 H         1 ATP1        0.0000 
     40 H          24.3536   33.3174   20.6039 H         1 ATP1        0.0000 
     41 H          22.0945   36.6248   18.4916 H         1 ATP1        0.0000 
     42 H          15.8261   35.2488   17.5759 H         1 ATP1        0.0000 
     43 H          16.6262   32.6435   17.3010 H         1 ATP1        0.0000 
@<TRIPOS>BOND
     1    2    1 ar   
     2    3    1 ar   
     3    4    1 ar   
     4    8    1 1    
     5    6    5 ar   
     6    7    5 ar   
     7    8    5 1    
     8   12    5 1    
     9   10    9 ar   
    10   11    9 ar   
    11   12    9 1    
    12   13    9 1    
    13   14   13 1    
    14   15   14 1    
    15   32   14 1    
    16   33   14 1    
    17   16   15 1    
    18   17   15 1    
    19   34   15 1    
    20   21   16 1    
    21   18   17 1    
    22   19   17 1    
    23   35   17 1    
    24   42   18 1    
    25   20   19 1    
    26   21   19 1    
    27   36   19 1    
    28   43   20 1    
    29   22   21 1    
    30   37   21 1    
    31   23   22 1    
    32   31   22 1    
    33   24   23 2    
    34   38   23 1    
    35   25   24 1    
    36   26   25 ar   
    37   31   25 ar   
    38   27   26 1    
    39   28   26 ar   
    40   39   27 1    
    41   40   27 1    
    42   29   28 ar   
    43   30   29 ar   
    44   41   29 1    
    45   31   30 ar   
@<TRIPOS>SUBSTRUCTURE
     1 ATP1        1 GROUP   
@<TRIPOS>SET

