#    Name: 3v0t_ATR_1_INTS_M
#    Modification time : Mon Mar 24 23:51:06 2014

@<TRIPOS>MOLECULE
3v0t_ATR_1_INTS_M
   56     0    12     0     0
SMALL
NO_CHARGES


@<TRIPOS>ATOM
      1 N          24.2735    6.3925   22.5955 N.am      2 SEC2        0.0000 
      2 N          23.0020    7.1190   22.7260 N.am     10 SEL2        0.0000 
      3 N          25.5450    5.6660   22.4650 N.am      6 SEP2        0.0000 
      4 N          21.2295    8.3515   16.9055 N.am      2 SEC2        0.0000 
      5 N          21.8850    8.1620   18.0360 N.am     10 SEL2        0.0000 
      6 N          20.5740    8.5410   15.7750 N.am      6 SEP2        0.0000 
      7 N          25.8670    8.0495   18.9300 N.am      2 SEC2        0.0000 
      8 N          24.2980    8.0310   19.2300 N.am     10 SEL2        0.0000 
      9 N          27.4360    8.0680   18.6300 N.am      6 SEP2        0.0000 
     10 N          25.1935    8.6890   19.9595 N.am      2 SEC2        0.0000 
     11 N          26.0890    9.3470   20.6890 N.am      6 SEP2        0.0000 
     12 CA         23.6490   12.6730   20.3840 C.3       4 GLC5        0.0000 
     13 CA         21.7470   11.6140   20.4710 C.3      12 GLL5        0.0000 
     14 CA         25.5510   13.7320   20.2970 C.3       8 GLP5        0.0000 
     15 CA         19.3525   13.1220   17.7490 C.3       4 GLC5        0.0000 
     16 CA         20.5400   13.4530   19.6130 C.3      12 GLL5        0.0000 
     17 CA         18.1650   12.7910   15.8850 C.3       8 GLP5        0.0000 
     18 N          17.0330   14.6380   17.6225 N.am      2 SEC2        0.0000 
     19 N          17.7520   15.0020   18.8240 N.am     10 SEL2        0.0000 
     20 N          16.3140   14.2740   16.4210 N.am      6 SEP2        0.0000 
     21 N          16.5085   15.5420   18.5770 N.am      2 SEC2        0.0000 
     22 N          15.2650   16.0820   18.3300 N.am      6 SEP2        0.0000 
     23 N          19.4405   15.4145   16.7330 N.am      2 SEC2        0.0000 
     24 N          19.8970   15.7530   17.8280 N.am     10 SEL2        0.0000 
     25 N          18.9840   15.0760   15.6380 N.am      6 SEP2        0.0000 
     26 N          20.6465   16.8085   17.3240 N.am      2 SEC2        0.0000 
     27 N          21.3960   17.8640   16.8200 N.am      6 SEP2        0.0000 
     28 NZ         19.2695   18.5105   19.4250 N.4       3 LYC4        0.0000 
     29 NZ         18.9530   16.9210   19.7970 N.4      11 LYL4        0.0000 
     30 NZ         19.5860   20.1000   19.0530 N.4       7 LYP4        0.0000 
     31 N          19.2695   18.5105   19.4250 N.am      2 SEC2        0.0000 
     32 N          18.9530   16.9210   19.7970 N.am     10 SEL2        0.0000 
     33 N          19.5860   20.1000   19.0530 N.am      6 SEP2        0.0000 
     34 CA         23.7745   13.7190   19.9060 C.3       4 GLC5        0.0000 
     35 CA         21.9980   13.7060   19.5150 C.3      12 GLL5        0.0000 
     36 N          22.9940   13.3575   14.6800 N.am      2 SEC2        0.0000 
     37 N          22.8920   14.1280   16.0690 N.am     10 SEL2        0.0000 
     38 N          23.0960   12.5870   13.2910 N.am      6 SEP2        0.0000 
     39 CA         26.4405   16.0695   15.8295 C.3       4 GLC5        0.0000 
     40 CA         24.4330   16.1280   16.1350 C.3      12 GLL5        0.0000 
     41 CA         28.4480   16.0110   15.5240 C.3       8 GLP5        0.0000 
     42 O          24.9055   14.9260   13.9625 O.2       1 ALC1        0.0000 
     43 O          24.7390   16.1980   14.7390 O.2       9 ALL1        0.0000 
     44 O          25.0720   13.6540   13.1860 O.2       5 ALP1        0.0000 
     45 CA         25.8955   16.3025   19.5855 C.3       4 GLC5        0.0000 
     46 CA         24.7040   16.9590   18.3090 C.3      12 GLL5        0.0000 
     47 CA         27.0870   15.6460   20.8620 C.3       8 GLP5        0.0000 
     48 CA         23.5343   10.3767   20.9832 C.3       4 GLC5        0.0000 
     49 CA         25.3730    9.7890   21.8730 C.3       8 GLP5        0.0000 
     50 CA         24.4355   13.2583   17.0020 C.3       4 GLC5        0.0000 
     51 CA         23.3100   15.1060   17.9950 C.3      12 GLL5        0.0000 
     52 CA         25.4260   11.3910   16.6870 C.3       8 GLP5        0.0000 
     53 CA         24.4980   14.4288   18.8070 C.3       4 GLC5        0.0000 
     54 CA         23.5800   15.1450   16.6390 C.3      12 GLL5        0.0000 
     55 CA         22.5926   16.2096   15.8680 C.3       4 GLC5        0.0000 
     56 CA         21.5270   17.0480   14.5450 C.3       8 GLP5        0.0000 
@<TRIPOS>BOND
@<TRIPOS>SUBSTRUCTURE
     1 ALC1       42 GROUP        1 X    ALC  0     ROOT ALC X 1
     2 SEC2        1 GROUP        1 X    SEC  0     **** SEC X 2
     3 LYC4       28 GROUP        1 X    LYC  0     **** LYC X 4
     4 GLC5       12 GROUP        1 X    GLC  0     **** GLC X 6
     5 ALP1       44 GROUP        1 Y    ALP  0     ROOT ALP Y 8
     6 SEP2        3 GROUP        1 Y    SEP  0     **** SEP Y 9
     7 LYP4       30 GROUP        1 Y    LYP  0     **** LYP Y 11
     8 GLP5       14 GROUP        1 Y    GLP  0     **** GLP Y 13
     9 ALL1       43 GROUP        1 Z    ALL  0     ROOT ALL Z 15
    10 SEL2        2 GROUP        1 Z    SEL  0     **** SEL Z 16
    11 LYL4       29 GROUP        1 Z    LYL  0     **** LYL Z 18
    12 GLL5       13 GROUP        1 Z    GLL  0     **** GLL Z 20
@<TRIPOS>SET

