#    Name: 3v0t_ATR_1_ligand
#    Modification time : Mon Mar 24 23:51:06 2014

@<TRIPOS>MOLECULE
3v0t_ATR_1_ligand
   42    44     1     0     0
SMALL
NO_CHARGES


@<TRIPOS>ATOM
      1 PB         21.8360    7.0560   21.7660 P.3       1 ATR338      0.0000 
      2 O1B        23.0020    7.1190   22.7260 O.co2     1 ATR338      0.0000 
      3 O2B        21.7660    5.6840   21.1390 O.co2     1 ATR338      0.0000 
      4 O3B        20.5420    7.3460   22.4860 O.co2     1 ATR338      0.0000 
      5 PA         22.7460    7.9680   19.3380 P.3       1 ATR338      0.0000 
      6 O1A        21.8850    8.1620   18.0360 O.co2     1 ATR338      0.0000 
      7 O2A        24.2980    8.0310   19.2300 O.co2     1 ATR338      0.0000 
      8 O3A        22.0250    8.1680   20.7070 O.3       1 ATR338      0.0000 
      9 O5'        22.7900    9.5530   19.4600 O.3       1 ATR338      0.0000 
     10 C5'        21.6440   10.3150   19.7160 C.3       1 ATR338      0.0000 
     11 C4'        21.7470   11.6140   20.4710 C.3       1 ATR338      0.0000 
     12 O4'        22.6760   12.5220   19.9330 O.3       1 ATR338      0.0000 
     13 C3'        20.4540   12.4160   20.5820 C.3       1 ATR338      0.0000 
     14 O3'        20.3940   12.9660   21.8500 O.3       1 ATR338      0.0000 
     15 C2'        20.5400   13.4530   19.6130 C.3       1 ATR338      0.0000 
     16 O2'        19.9190   14.6080   20.0830 O.3       1 ATR338      0.0000 
     17 P2'        19.1280   15.5680   19.1230 P.3       1 ATR338      0.0000 
     18 O1P        17.7520   15.0020   18.8240 O.co2     1 ATR338      0.0000 
     19 O2P        19.8970   15.7530   17.8280 O.co2     1 ATR338      0.0000 
     20 O3P        18.9530   16.9210   19.7970 O.co2     1 ATR338      0.0000 
     21 C1'        21.9980   13.7060   19.5150 C.3       1 ATR338      0.0000 
     22 N9         22.4650   14.0790   18.2150 N.pl3     1 ATR338      0.0000 
     23 C8         22.2190   13.4770   17.0350 C.2       1 ATR338      0.0000 
     24 N7         22.8920   14.1280   16.0690 N.2       1 ATR338      0.0000 
     25 C5         23.5800   15.1450   16.6390 C.ar      1 ATR338      0.0000 
     26 C6         24.4330   16.1280   16.1350 C.ar      1 ATR338      0.0000 
     27 N6         24.7390   16.1980   14.7390 N.pl3     1 ATR338      0.0000 
     28 N1         24.9720   17.0090   16.9910 N.ar      1 ATR338      0.0000 
     29 C2         24.7040   16.9590   18.3090 C.ar      1 ATR338      0.0000 
     30 N3         23.8820   16.0190   18.8000 N.ar      1 ATR338      0.0000 
     31 C4         23.3100   15.1060   17.9950 C.ar      1 ATR338      0.0000 
     32 H          20.8564    9.6837   20.2634 H         1 ATR338      0.0000 
     33 H          21.0928   10.5521   18.7370 H         1 ATR338      0.0000 
     34 H          22.0445   11.3872   21.5216 H         1 ATR338      0.0000 
     35 H          19.6473   11.7552   20.3720 H         1 ATR338      0.0000 
     36 H          20.1869   13.1296   18.6730 H         1 ATR338      0.0000 
     37 H          22.2453   14.5076   20.2390 H         1 ATR338      0.0000 
     38 H          21.6509   12.7029   16.9048 H         1 ATR338      0.0000 
     39 H          24.4604   17.0355   14.2690 H         1 ATR338      0.0000 
     40 H          25.2058   15.4035   14.3504 H         1 ATR338      0.0000 
     41 H          25.1405   17.6587   18.9536 H         1 ATR338      0.0000 
     42 H          20.1414   13.9227   21.7054 H         1 ATR338      0.0000 
@<TRIPOS>BOND
     1    2    1 ar   
     2    3    1 ar   
     3    4    1 ar   
     4    8    1 1    
     5    6    5 ar   
     6    7    5 ar   
     7    8    5 1    
     8    9    5 1    
     9   10    9 1    
    10   11   10 1    
    11   32   10 1    
    12   33   10 1    
    13   12   11 1    
    14   13   11 1    
    15   34   11 1    
    16   21   12 1    
    17   14   13 1    
    18   15   13 1    
    19   35   13 1    
    20   42   14 1    
    21   16   15 1    
    22   21   15 1    
    23   36   15 1    
    24   17   16 1    
    25   18   17 ar   
    26   19   17 ar   
    27   20   17 ar   
    28   22   21 1    
    29   37   21 1    
    30   23   22 1    
    31   31   22 1    
    32   24   23 2    
    33   38   23 1    
    34   25   24 1    
    35   26   25 ar   
    36   31   25 ar   
    37   27   26 1    
    38   28   26 ar   
    39   39   27 1    
    40   40   27 1    
    41   29   28 ar   
    42   30   29 ar   
    43   41   29 1    
    44   31   30 ar   
@<TRIPOS>SUBSTRUCTURE
     1 ATR338      1 GROUP   
@<TRIPOS>SET

