#    Name: 3fzr_3JZ_1_INTS_M
#    Modification time : Tue Mar 25 06:51:40 2014

@<TRIPOS>MOLECULE
3fzr_3JZ_1_INTS_M
   71     0     9     0     0
SMALL
NO_CHARGES


@<TRIPOS>ATOM
      1 CA         19.9385   66.8140   18.3910 C.3       3 GLC5        0.0000 
      2 CA         20.6360   65.5610   19.5510 C.3       9 GLL5        0.0000 
      3 CA         19.2410   68.0670   17.2310 C.3       6 GLP5        0.0000 
      4 CA         19.5085   68.2055   20.5385 C.3       3 GLC5        0.0000 
      5 CA         19.9640   66.9550   21.8930 C.3       9 GLL5        0.0000 
      6 CA         19.0530   69.4560   19.1840 C.3       6 GLP5        0.0000 
      7 CA         18.4740   66.8795   22.0070 C.3       3 GLC5        0.0000 
      8 CA         16.9840   66.8040   22.1210 C.3       6 GLP5        0.0000 
      9 CA         18.8785   66.6775   23.8235 C.3       3 GLC5        0.0000 
     10 CA         17.7930   66.4000   25.7540 C.3       6 GLP5        0.0000 
     11 CA         20.5510   68.5700   22.2885 C.3       3 GLC5        0.0000 
     12 CA         21.1380   70.1850   22.6840 C.3       6 GLP5        0.0000 
     13 N          26.0220   69.6455   14.5440 N.am      2 SEC2        0.0000 
     14 N          25.9610   69.2740   15.9400 N.am      8 SEL2        0.0000 
     15 N          26.0830   70.0170   13.1480 N.am      5 SEP2        0.0000 
     16 CA         26.3340   70.9135   15.5255 C.3       3 GLC5        0.0000 
     17 CA         26.8210   69.6040   16.9380 C.3       9 GLL5        0.0000 
     18 CA         25.8470   72.2230   14.1130 C.3       6 GLP5        0.0000 
     19 CA         22.2770   68.6080   18.7680 C.3       3 GLC5        0.0000 
     20 CA         23.6200   67.3390   19.9680 C.3       9 GLL5        0.0000 
     21 CA         20.9340   69.8770   17.5680 C.3       6 GLP5        0.0000 
     22 CA         22.8865   69.0325   20.8175 C.3       3 GLC5        0.0000 
     23 CA         22.1530   70.7260   21.6670 C.3       6 GLP5        0.0000 
     24 CA         27.6445   71.5915   20.6690 C.3       3 GLC5        0.0000 
     25 CA         26.7250   70.1790   20.2680 C.3       9 GLL5        0.0000 
     26 CA         28.5640   73.0040   21.0700 C.3       6 GLP5        0.0000 
     27 CA         29.3295   69.9775   16.7225 C.3       3 GLC5        0.0000 
     28 CA         28.4510   70.2960   18.5600 C.3       9 GLL5        0.0000 
     29 CA         30.2080   69.6590   14.8850 C.3       6 GLP5        0.0000 
     30 CA         22.9740   69.1560   16.9560 C.3       3 GLC5        0.0000 
     31 CA         25.0140   68.4350   16.3440 C.3       9 GLL5        0.0000 
     32 CA         23.9555   69.7770   15.6085 C.3       3 GLC5        0.0000 
     33 CA         22.8970   71.1190   14.8730 C.3       6 GLP5        0.0000 
     34 CA         25.7370   68.7190   14.2470 C.3       3 GLC5        0.0000 
     35 CA         26.4600   69.0030   12.1500 C.3       6 GLP5        0.0000 
     36 CA         25.8675   66.9570   16.4370 C.3       3 GLC5        0.0000 
     37 CA         26.7210   65.4790   16.5300 C.3       6 GLP5        0.0000 
     38 O          24.5010   67.6755   13.9950 O.2       1 ALC1        0.0000 
     39 O          24.2490   67.9980   15.3890 O.2       7 ALL1        0.0000 
     40 O          24.7530   67.3530   12.6010 O.2       4 ALP1        0.0000 
     41 CA         22.0680   68.4310   16.6015 C.3       3 GLC5        0.0000 
     42 CA         23.2020   66.9850   15.6350 C.3       9 GLL5        0.0000 
     43 CA         19.6265   66.9710   15.5010 C.3       3 GLC5        0.0000 
     44 CA         20.0120   65.8750   13.7710 C.3       9 GLL5        0.0000 
     45 CA         21.8855   64.8590   13.5530 C.3       3 GLC5        0.0000 
     46 CA         23.7590   63.8430   13.3350 C.3       6 GLP5        0.0000 
     47 CA         25.6740   71.1725   19.1225 C.3       3 GLC5        0.0000 
     48 CA         27.4490   69.5790   19.3080 C.3       9 GLL5        0.0000 
     49 CA         24.2610   72.4660   18.4570 C.3       6 GLP5        0.0000 
     50 CA         28.2420   71.5913   19.2475 C.3       3 GLC5        0.0000 
     51 CA         28.5340   73.2450   19.5610 C.3       6 GLP5        0.0000 
     52 CA         28.2595   67.2795   18.8732 C.3       3 GLC5        0.0000 
     53 CA         28.7590   65.5450   18.0920 C.3       6 GLP5        0.0000 
     54 CA         26.0078   65.0383   18.2268 C.3       3 GLC5        0.0000 
     55 CA         25.3980   63.9070   20.0150 C.3       9 GLL5        0.0000 
     56 CA         20.9310   66.8220   16.9507 C.3       3 GLC5        0.0000 
     57 CA         23.1480   66.0260   16.6370 C.3       9 GLL5        0.0000 
     58 CA         24.9480   65.9922   16.3330 C.3       3 GLC5        0.0000 
     59 CA         24.0027   62.2320   18.9911 C.3       3 GLC5        0.0000 
     60 CA         23.9750   60.9150   17.5890 C.3       6 GLP5        0.0000 
     61 CA         25.1567   70.6731   18.2836 C.3       3 GLC5        0.0000 
     62 CA         25.4350   68.3860   18.6230 C.3       9 GLL5        0.0000 
     63 CA         26.3867   67.1796   17.3201 C.3       3 GLC5        0.0000 
     64 CA         26.5190   69.1450   18.2570 C.3       9 GLL5        0.0000 
     65 CA         29.6672   68.8320   18.6396 C.3       3 GLC5        0.0000 
     66 CA         31.2290   68.0090   18.1720 C.3       6 GLP5        0.0000 
     67 CA         22.7988   69.0400   15.0155 C.3       3 GLC5        0.0000 
     68 CA         20.4575   67.1675   16.0977 C.3       3 GLC5        0.0000 
     69 CA         22.1990   66.9370   14.6810 C.3       9 GLL5        0.0000 
     70 CA         22.9566   64.9427   14.5136 C.3       3 GLC5        0.0000 
     71 CA         22.0940   65.1280   16.7040 C.3       9 GLL5        0.0000 
@<TRIPOS>BOND
@<TRIPOS>SUBSTRUCTURE
     1 ALC1       38 GROUP        1 X    ALC  0     ROOT ALC X 1
     2 SEC2       13 GROUP        1 X    SEC  0     **** SEC X 2
     3 GLC5        1 GROUP        1 X    GLC  0     **** GLC X 6
     4 ALP1       40 GROUP        1 Y    ALP  0     ROOT ALP Y 8
     5 SEP2       15 GROUP        1 Y    SEP  0     **** SEP Y 9
     6 GLP5        3 GROUP        1 Y    GLP  0     **** GLP Y 13
     7 ALL1       39 GROUP        1 Z    ALL  0     ROOT ALL Z 15
     8 SEL2       14 GROUP        1 Z    SEL  0     **** SEL Z 16
     9 GLL5        2 GROUP        1 Z    GLL  0     **** GLL Z 20
@<TRIPOS>SET

