#    Name: 3fzr_3JZ_1_ligand
#    Modification time : Tue Mar 25 06:51:40 2014

@<TRIPOS>MOLECULE
3fzr_3JZ_1_ligand
   56    59     1     0     0
SMALL
NO_CHARGES


@<TRIPOS>ATOM
      1 C35        20.6360   65.5610   19.5510 C.3       1 3JZ999      0.0000 
      2 C34        19.9640   66.9550   21.8930 C.3       1 3JZ999      0.0000 
      3 N2         25.9610   69.2740   15.9400 N.ar      1 3JZ999      0.0000 
      4 C7         26.8210   69.6040   16.9380 C.ar      1 3JZ999      0.0000 
      5 C6         26.5190   69.1450   18.2570 C.ar      1 3JZ999      0.0000 
      6 C13        23.9200   65.8990   20.0810 C.ar      1 3JZ999      0.0000 
      7 C20        22.8840   65.0480   20.4410 C.ar      1 3JZ999      0.0000 
      8 C21        21.1130   65.1460   15.7460 C.ar      1 3JZ999      0.0000 
      9 C8         27.4490   69.5790   19.3080 C.3       1 3JZ999      0.0000 
     10 C18        25.3980   63.9070   20.0150 C.ar      1 3JZ999      0.0000 
     11 C16        23.1480   66.0260   16.6370 C.ar      1 3JZ999      0.0000 
     12 C19        24.4060   63.0670   20.3780 C.ar      1 3JZ999      0.0000 
     13 O33        22.1110   66.3530   23.0020 O.2       1 3JZ999      0.0000 
     14 S31        21.1060   65.7730   22.2750 S.o2      1 3JZ999      0.0000 
     15 O32        20.6420   64.4890   22.7570 O.2       1 3JZ999      0.0000 
     16 N30        21.5440   65.5130   20.6530 N.pl3     1 3JZ999      0.0000 
     17 C17        25.1910   65.2880   19.8320 C.ar      1 3JZ999      0.0000 
     18 C1         23.1590   63.6110   20.5900 C.ar      1 3JZ999      0.0000 
     19 C12        23.6200   67.3390   19.9680 C.3       1 3JZ999      0.0000 
     20 N10        24.9960   68.0170   19.9480 N.pl3     1 3JZ999      0.0000 
     21 C5         25.4350   68.3860   18.6230 C.ar      1 3JZ999      0.0000 
     22 F29        28.0710   68.4490   20.0010 F         1 3JZ999      0.0000 
     23 F28        26.7250   70.1790   20.2680 F         1 3JZ999      0.0000 
     24 F27        28.4510   70.2960   18.5600 F         1 3JZ999      0.0000 
     25 N4         24.6350   68.0320   17.6060 N.ar      1 3JZ999      0.0000 
     26 C3         25.0140   68.4350   16.3440 C.ar      1 3JZ999      0.0000 
     27 N9         24.2490   67.9980   15.3890 N.pl3     1 3JZ999      0.0000 
     28 C11        23.2020   66.9850   15.6350 C.ar      1 3JZ999      0.0000 
     29 C14        22.1990   66.9370   14.6810 C.ar      1 3JZ999      0.0000 
     30 C22        21.1850   66.0520   14.7500 C.ar      1 3JZ999      0.0000 
     31 C23        20.0120   65.8750   13.7710 C.3       1 3JZ999      0.0000 
     32 C15        22.0940   65.1280   16.7040 C.ar      1 3JZ999      0.0000 
     33 N25        19.9940   64.3550   15.5650 N.am      1 3JZ999      0.0000 
     34 C24        19.2550   64.7220   14.4000 C.2       1 3JZ999      0.0000 
     35 O26        18.1730   64.2240   13.9210 O.2       1 3JZ999      0.0000 
     36 H          27.6567   70.1551   16.7866 H         1 3JZ999      0.0000 
     37 H          26.3694   63.5413   19.8571 H         1 3JZ999      0.0000 
     38 H          23.9042   65.9814   17.3423 H         1 3JZ999      0.0000 
     39 H          24.5608   62.0654   20.4943 H         1 3JZ999      0.0000 
     40 H          25.9689   65.8835   19.5105 H         1 3JZ999      0.0000 
     41 H          22.3558   63.0160   20.8671 H         1 3JZ999      0.0000 
     42 H          23.0764   67.6884   20.8189 H         1 3JZ999      0.0000 
     43 H          23.1151   67.5579   19.0521 H         1 3JZ999      0.0000 
     44 H          25.4760   68.1595   20.7529 H         1 3JZ999      0.0000 
     45 H          24.3151   68.3223   14.3989 H         1 3JZ999      0.0000 
     46 H          22.2445   67.6201   13.8830 H         1 3JZ999      0.0000 
     47 H          20.3829   65.5977   12.8254 H         1 3JZ999      0.0000 
     48 H          19.4201   66.7458   13.7714 H         1 3JZ999      0.0000 
     49 H          22.0536   64.4468   17.4795 H         1 3JZ999      0.0000 
     50 H          19.7218   63.6291   16.1481 H         1 3JZ999      0.0000 
     51 H          20.9659   66.1631   18.8239 H         1 3JZ999      0.0000 
     52 H          20.4980   64.6581   19.1439 H         1 3JZ999      0.0000 
     53 H          19.7360   65.8993   19.8258 H         1 3JZ999      0.0000 
     54 H          20.3637   67.6979   21.3560 H         1 3JZ999      0.0000 
     55 H          19.2070   66.5807   21.3575 H         1 3JZ999      0.0000 
     56 H          19.5672   67.3669   22.7133 H         1 3JZ999      0.0000 
@<TRIPOS>BOND
     1   16    1 1    
     2   51    1 1    
     3   52    1 1    
     4   53    1 1    
     5   14    2 1    
     6   54    2 1    
     7   55    2 1    
     8   56    2 1    
     9    4    3 ar   
    10   26    3 ar   
    11    5    4 ar   
    12   36    4 1    
    13    9    5 1    
    14   21    5 ar   
    15    7    6 ar   
    16   17    6 ar   
    17   19    6 1    
    18   16    7 1    
    19   18    7 ar   
    20   30    8 ar   
    21   32    8 ar   
    22   33    8 1    
    23   22    9 1    
    24   23    9 1    
    25   24    9 1    
    26   12   10 ar   
    27   17   10 ar   
    28   37   10 1    
    29   28   11 ar   
    30   32   11 ar   
    31   38   11 1    
    32   18   12 ar   
    33   39   12 1    
    34   14   13 2    
    35   15   14 2    
    36   16   14 1    
    37   40   17 1    
    38   41   18 1    
    39   20   19 1    
    40   42   19 1    
    41   43   19 1    
    42   21   20 1    
    43   44   20 1    
    44   25   21 ar   
    45   26   25 ar   
    46   27   26 1    
    47   28   27 1    
    48   45   27 1    
    49   29   28 ar   
    50   30   29 ar   
    51   46   29 1    
    52   31   30 1    
    53   34   31 1    
    54   47   31 1    
    55   48   31 1    
    56   49   32 1    
    57   34   33 am   
    58   50   33 1    
    59   35   34 2    
@<TRIPOS>SUBSTRUCTURE
     1 3JZ999      1 GROUP   
@<TRIPOS>SET

