#    Name: 2oa7_GTX_2_INTS_M
#    Modification time : Tue Mar 25 22:05:45 2014

@<TRIPOS>MOLECULE
2oa7_GTX_2_INTS_M
   55     0     9     0     0
SMALL
NO_CHARGES


@<TRIPOS>ATOM
      1 CA        108.0510  -16.9945   11.1830 C.3       3 GLC5        0.0000 
      2 CA        106.0890  -17.0970   10.2420 C.3       9 GLL5        0.0000 
      3 CA        110.0130  -16.8920   12.1240 C.3       6 GLP5        0.0000 
      4 NZ        107.3365  -14.8520    9.0260 N.4       2 LYC4        0.0000 
      5 NZ        106.5450  -14.7580   10.8000 N.4       8 LYL4        0.0000 
      6 NZ        108.1280  -14.9460    7.2520 N.4       5 LYP4        0.0000 
      7 CA        106.8015  -20.0980   10.2615 C.3       3 GLC5        0.0000 
      8 CA        105.5560  -19.2270    8.9430 C.3       9 GLL5        0.0000 
      9 CA        108.0470  -20.9690   11.5800 C.3       6 GLP5        0.0000 
     10 N         103.3105  -22.8000   10.1270 N.am      1 SEC2        0.0000 
     11 N         102.9110  -22.5800    8.6500 N.am      7 SEL2        0.0000 
     12 N         103.7100  -23.0200   11.6040 N.am      4 SEP2        0.0000 
     13 CA        100.4355  -24.9055    8.8310 C.3       3 GLC5        0.0000 
     14 CA        100.6620  -23.5930    7.5710 C.3       9 GLL5        0.0000 
     15 CA        100.2090  -26.2180   10.0910 C.3       6 GLP5        0.0000 
     16 CA        100.5640  -22.1185    8.6880 C.3       3 GLC5        0.0000 
     17 CA        100.4660  -20.6440    9.8050 C.3       6 GLP5        0.0000 
     18 NZ         97.6635  -24.2400    8.1625 N.4       2 LYC4        0.0000 
     19 NZ         98.4780  -24.6290    7.2690 N.4       8 LYL4        0.0000 
     20 NZ         96.8490  -23.8510    9.0560 N.4       5 LYP4        0.0000 
     21 N          99.1805  -25.9325    7.5430 N.am      1 SEC2        0.0000 
     22 N          98.4780  -24.6290    7.2690 N.am      7 SEL2        0.0000 
     23 N          99.8830  -27.2360    7.8170 N.am      4 SEP2        0.0000 
     24 N          97.6635  -24.2400    8.1625 N.am      1 SEC2        0.0000 
     25 N          96.8490  -23.8510    9.0560 N.am      4 SEP2        0.0000 
     26 CA        107.0415  -17.8108    8.6531 C.3       3 GLC5        0.0000 
     27 CA        105.1030  -17.7910    9.2530 C.3       9 GLL5        0.0000 
     28 CA        108.5070  -17.2860    7.9610 C.3       6 GLP5        0.0000 
     29 CA        104.6055  -24.3308    7.1875 C.3       3 GLC5        0.0000 
     30 CA        104.0290  -21.9840    6.6590 C.3       9 GLL5        0.0000 
     31 CA        104.8480  -26.0620    8.0140 C.3       6 GLP5        0.0000 
     32 CA        106.1945  -25.1210    6.2808 C.3       3 GLC5        0.0000 
     33 CA        106.1770  -22.9970    5.0490 C.3       9 GLL5        0.0000 
     34 CA        106.1690  -26.3510    7.6720 C.3       6 GLP5        0.0000 
     35 CA        107.6445  -26.9825    5.3687 C.3       3 GLC5        0.0000 
     36 CA        107.4140  -25.2580    3.8540 C.3       9 GLL5        0.0000 
     37 CA        107.9660  -27.9420    6.9300 C.3       6 GLP5        0.0000 
     38 CA        109.0655  -25.8995    4.3457 C.3       3 GLC5        0.0000 
     39 CA        107.2320  -26.7880    3.7610 C.3       9 GLL5        0.0000 
     40 CA        110.8080  -25.7760    4.8840 C.3       6 GLP5        0.0000 
     41 CA        108.1405  -26.1355    1.9358 C.3       3 GLC5        0.0000 
     42 CA        108.9580  -26.2480    0.0640 C.3       6 GLP5        0.0000 
     43 CA        106.1885  -28.1665    3.6335 C.3       3 GLC5        0.0000 
     44 CA        108.3240  -27.4380    2.9190 C.3       9 GLL5        0.0000 
     45 CA        104.5990  -29.2200    3.9270 C.3       6 GLP5        0.0000 
     46 CA        108.0892  -28.0697    4.9078 C.3       3 GLC5        0.0000 
     47 CA        108.1010  -28.9570    2.8520 C.3       9 GLL5        0.0000 
     48 CA        109.4685  -30.4062    3.8350 C.3       3 GLC5        0.0000 
     49 CA        110.2900  -31.5270    5.2440 C.3       6 GLP5        0.0000 
     50 CA        106.8475  -29.8738    2.8060 C.3       3 GLC5        0.0000 
     51 CA        109.1930  -29.6140    2.0000 C.3       9 GLL5        0.0000 
     52 CA        105.0480  -30.4620    3.1860 C.3       6 GLP5        0.0000 
     53 CA        110.1399  -28.0094    2.6774 C.3       3 GLC5        0.0000 
     54 CA        111.5770  -27.1130    2.9120 C.3       6 GLP5        0.0000 
     55 CA        108.8304  -27.5769    1.2534 C.3       3 GLC5        0.0000 
@<TRIPOS>BOND
@<TRIPOS>SUBSTRUCTURE
     1 SEC2       10 GROUP        1 X    SEC  0     ROOT SEC X 2
     2 LYC4        4 GROUP        1 X    LYC  0     **** LYC X 4
     3 GLC5        1 GROUP        1 X    GLC  0     **** GLC X 6
     4 SEP2       12 GROUP        1 Y    SEP  0     ROOT SEP Y 9
     5 LYP4        6 GROUP        1 Y    LYP  0     **** LYP Y 11
     6 GLP5        3 GROUP        1 Y    GLP  0     **** GLP Y 13
     7 SEL2       11 GROUP        1 Z    SEL  0     ROOT SEL Z 16
     8 LYL4        5 GROUP        1 Z    LYL  0     **** LYL Z 18
     9 GLL5        2 GROUP        1 Z    GLL  0     **** GLL Z 20
@<TRIPOS>SET

