#    Name: 2oa7_GTX_2_ligand
#    Modification time : Tue Mar 25 22:05:45 2014

@<TRIPOS>MOLECULE
2oa7_GTX_2_ligand
   54    53     1     0     0
SMALL
NO_CHARGES


@<TRIPOS>ATOM
      1 N1        106.1930  -17.8240   11.5200 N.4       1 GTX302      0.0000 
      2 CA1       106.0890  -17.0970   10.2420 C.3       1 GTX302      0.0000 
      3 C1        105.6280  -15.7020   10.5120 C.2       1 GTX302      0.0000 
      4 O11       104.4360  -15.4240   10.4790 O.co2     1 GTX302      0.0000 
      5 O12       106.5450  -14.7580   10.8000 O.co2     1 GTX302      0.0000 
      6 CB1       105.1030  -17.7910    9.2530 C.3       1 GTX302      0.0000 
      7 CG1       105.5560  -19.2270    8.9430 C.3       1 GTX302      0.0000 
      8 CD1       104.6260  -19.9310    7.9630 C.2       1 GTX302      0.0000 
      9 OE1       103.6500  -19.3430    7.5150 O.2       1 GTX302      0.0000 
     10 N2        104.8990  -21.2310    7.5970 N.am      1 GTX302      0.0000 
     11 CA2       104.0290  -21.9840    6.6590 C.3       1 GTX302      0.0000 
     12 C2        102.8610  -22.5500    7.4340 C.2       1 GTX302      0.0000 
     13 O2        102.9110  -22.5800    8.6500 O.2       1 GTX302      0.0000 
     14 CB2       104.6970  -23.2150    6.0630 C.3       1 GTX302      0.0000 
     15 SG2       106.1770  -22.9970    5.0490 S.3       1 GTX302      0.0000 
     16 C1S       106.2630  -24.7850    4.7300 C.3       1 GTX302      0.0000 
     17 C2S       107.4140  -25.2580    3.8540 C.3       1 GTX302      0.0000 
     18 C3S       107.2320  -26.7880    3.7610 C.3       1 GTX302      0.0000 
     19 C4S       108.3240  -27.4380    2.9190 C.3       1 GTX302      0.0000 
     20 C5S       108.1010  -28.9570    2.8520 C.3       1 GTX302      0.0000 
     21 C6S       109.1930  -29.6140    2.0000 C.3       1 GTX302      0.0000 
     22 N3        101.7740  -23.0430    6.7820 N.am      1 GTX302      0.0000 
     23 CA3       100.6620  -23.5930    7.5710 C.3       1 GTX302      0.0000 
     24 C3         99.5620  -24.0980    6.7100 C.2       1 GTX302      0.0000 
     25 O31        99.6480  -24.0350    5.5170 O.co2     1 GTX302      0.0000 
     26 O32        98.4780  -24.6290    7.2690 O.co2     1 GTX302      0.0000 
     27 H         107.0580  -17.0551    9.7594 H         1 GTX302      0.0000 
     28 H         105.0702  -17.2149    8.3345 H         1 GTX302      0.0000 
     29 H         104.1166  -17.8113    9.7038 H         1 GTX302      0.0000 
     30 H         105.5942  -19.7947    9.8786 H         1 GTX302      0.0000 
     31 H         106.5674  -19.1954    8.5245 H         1 GTX302      0.0000 
     32 H         105.7209  -21.7352    7.9607 H         1 GTX302      0.0000 
     33 H         103.6534  -21.3741    5.8826 H         1 GTX302      0.0000 
     34 H         104.0342  -23.7751    5.3833 H         1 GTX302      0.0000 
     35 H         105.0472  -23.9256    6.8294 H         1 GTX302      0.0000 
     36 H         105.2821  -24.9845    4.2995 H         1 GTX302      0.0000 
     37 H         106.2928  -25.1928    5.7400 H         1 GTX302      0.0000 
     38 H         108.3432  -25.0433    4.3228 H         1 GTX302      0.0000 
     39 H         107.3323  -24.8355    2.8824 H         1 GTX302      0.0000 
     40 H         106.2567  -26.9988    3.3184 H         1 GTX302      0.0000 
     41 H         107.2525  -27.2054    4.7694 H         1 GTX302      0.0000 
     42 H         109.2926  -27.2413    3.3656 H         1 GTX302      0.0000 
     43 H         108.2983  -27.0313    1.9139 H         1 GTX302      0.0000 
     44 H         107.1315  -29.1558    2.4090 H         1 GTX302      0.0000 
     45 H         108.1331  -29.3667    3.8554 H         1 GTX302      0.0000 
     46 H         101.6840  -23.0539    5.7728 H         1 GTX302      0.0000 
     47 H         100.2648  -22.8168    8.2502 H         1 GTX302      0.0000 
     48 H         101.0285  -24.4153    8.2121 H         1 GTX302      0.0000 
     49 H         106.5017  -18.7659   11.3874 H         1 GTX302      0.0000 
     50 H         106.8418  -17.3879   12.1436 H         1 GTX302      0.0000 
     51 H         105.3141  -17.8678   11.9950 H         1 GTX302      0.0000 
     52 H         110.1053  -29.4518    2.3760 H         1 GTX302      0.0000 
     53 H         109.0722  -30.6049    1.9410 H         1 GTX302      0.0000 
     54 H         109.1952  -29.2628    1.0637 H         1 GTX302      0.0000 
@<TRIPOS>BOND
     1    2    1 1    
     2   49    1 1    
     3   50    1 1    
     4   51    1 1    
     5    3    2 1    
     6    6    2 1    
     7   27    2 1    
     8    4    3 ar   
     9    5    3 ar   
    10    7    6 1    
    11   28    6 1    
    12   29    6 1    
    13    8    7 1    
    14   30    7 1    
    15   31    7 1    
    16    9    8 2    
    17   10    8 am   
    18   11   10 1    
    19   32   10 1    
    20   12   11 1    
    21   14   11 1    
    22   33   11 1    
    23   13   12 2    
    24   22   12 am   
    25   15   14 1    
    26   34   14 1    
    27   35   14 1    
    28   16   15 1    
    29   17   16 1    
    30   36   16 1    
    31   37   16 1    
    32   18   17 1    
    33   38   17 1    
    34   39   17 1    
    35   19   18 1    
    36   40   18 1    
    37   41   18 1    
    38   20   19 1    
    39   42   19 1    
    40   43   19 1    
    41   21   20 1    
    42   44   20 1    
    43   45   20 1    
    44   52   21 1    
    45   53   21 1    
    46   54   21 1    
    47   23   22 1    
    48   46   22 1    
    49   24   23 1    
    50   47   23 1    
    51   48   23 1    
    52   25   24 ar   
    53   26   24 ar   
@<TRIPOS>SUBSTRUCTURE
     1 GTX302      1 GROUP   
@<TRIPOS>SET

