#    Name: 3zkd_ANP_2_INTS_M
#    Modification time : Tue Mar 25 03:34:48 2014

@<TRIPOS>MOLECULE
3zkd_ANP_2_INTS_M
   86     0    15     0     0
SMALL
NO_CHARGES


@<TRIPOS>ATOM
      1 NZ        -15.9655   35.4155  -29.1880 N.4       3 LYC4        0.0000 
      2 NZ        -14.7830   35.1000  -28.6260 N.4      13 LYL4        0.0000 
      3 NZ        -17.1480   35.7310  -29.7500 N.4       8 LYP4        0.0000 
      4 N         -14.4955   36.4885  -28.3275 N.am      2 SEC2        0.0000 
      5 N         -14.7830   35.1000  -28.6260 N.am     12 SEL2        0.0000 
      6 N         -14.2080   37.8770  -28.0290 N.am      7 SEP2        0.0000 
      7 N         -14.1040   35.4780  -27.4490 N.am      2 SEC2        0.0000 
      8 N         -13.4250   35.8560  -26.2720 N.am      7 SEP2        0.0000 
      9 N         -15.9655   35.4155  -29.1880 N.am      2 SEC2        0.0000 
     10 N         -17.1480   35.7310  -29.7500 N.am      7 SEP2        0.0000 
     11 N         -12.0595   32.8530  -29.1000 N.am      2 SEC2        0.0000 
     12 N         -13.3400   33.3010  -29.5760 N.am     12 SEL2        0.0000 
     13 N         -10.7790   32.4050  -28.6240 N.am      7 SEP2        0.0000 
     14 N         -12.9010   32.1950  -30.1685 N.am      2 SEC2        0.0000 
     15 N         -12.4620   31.0890  -30.7610 N.am      7 SEP2        0.0000 
     16 N         -14.6325   32.5670  -29.5235 N.am      2 SEC2        0.0000 
     17 N         -15.9250   31.8330  -29.4710 N.am      7 SEP2        0.0000 
     18 NZ        -15.7380   35.3710  -30.4730 N.4       3 LYC4        0.0000 
     19 NZ        -14.3280   35.0110  -31.1960 N.4      13 LYL4        0.0000 
     20 Zn        -14.0700   34.8520  -32.4865 Zn        4 ZIC7        0.0000 
     21 Zn        -14.3280   35.0110  -31.1960 Zn       14 ZIL7        0.0000 
     22 Zn        -13.8120   34.6930  -33.7770 Zn        9 ZIP7        0.0000 
     23 N         -14.8000   34.0430  -32.0270 N.am      2 SEC2        0.0000 
     24 N         -14.3280   35.0110  -31.1960 N.am     12 SEL2        0.0000 
     25 N         -15.2720   33.0750  -32.8580 N.am      7 SEP2        0.0000 
     26 N         -15.7380   35.3710  -30.4730 N.am      2 SEC2        0.0000 
     27 NZ        -11.3225   38.4385  -31.6160 N.4       3 LYC4        0.0000 
     28 NZ        -10.7170   37.4120  -30.1260 N.4      13 LYL4        0.0000 
     29 NZ        -11.9280   39.4650  -33.1060 N.4       8 LYP4        0.0000 
     30 NZ        -12.0395   37.8870  -32.5715 N.4       3 LYC4        0.0000 
     31 NZ        -12.1510   36.3090  -32.0370 N.4      13 LYL4        0.0000 
     32 N         -12.0395   37.8870  -32.5715 N.am      2 SEC2        0.0000 
     33 N         -12.1510   36.3090  -32.0370 N.am     12 SEL2        0.0000 
     34 N         -11.9280   39.4650  -33.1060 N.am      7 SEP2        0.0000 
     35 N         -10.3070   31.9950  -32.6025 N.am      2 SEC2        0.0000 
     36 N          -9.3670   32.8470  -31.5490 N.am     12 SEL2        0.0000 
     37 N         -11.2470   31.1430  -33.6560 N.am      7 SEP2        0.0000 
     38 N         -11.4215   34.3825  -34.0945 N.am      2 SEC2        0.0000 
     39 N         -11.2880   33.8020  -32.7970 N.am     12 SEL2        0.0000 
     40 N         -11.5550   34.9630  -35.3920 N.am      7 SEP2        0.0000 
     41 N         -11.2675   32.4725  -33.2265 N.am      2 SEC2        0.0000 
     42 CA         -6.4420   34.8810  -33.2570 C.3       5 GLC5        0.0000 
     43 CA         -7.8540   35.4960  -32.0520 C.3      15 GLL5        0.0000 
     44 CA         -5.0300   34.2660  -34.4620 C.3      10 GLP5        0.0000 
     45 CA         -8.0970   33.9310  -33.3300 C.3       5 GLC5        0.0000 
     46 CA         -8.3400   32.3660  -34.6080 C.3      10 GLP5        0.0000 
     47 CA         -5.6540   36.2680  -32.4820 C.3       5 GLC5        0.0000 
     48 CA         -7.3830   36.8560  -32.2610 C.3      15 GLL5        0.0000 
     49 CA         -3.9250   35.6800  -32.7030 C.3      10 GLP5        0.0000 
     50 CA         -8.2875   40.9455  -32.9990 C.3       5 GLC5        0.0000 
     51 CA         -7.9710   38.8410  -33.2290 C.3      15 GLL5        0.0000 
     52 CA         -8.6040   43.0500  -32.7690 C.3      10 GLP5        0.0000 
     53 O          -6.2045   40.6035  -33.6585 O.2       1 ALC1        0.0000 
     54 O          -7.1430   39.8170  -32.6140 O.2      11 ALL1        0.0000 
     55 O          -5.2660   41.3900  -34.7030 O.2       6 ALP1        0.0000 
     56 CA         -5.4680   38.8330  -32.8980 C.3       5 GLC5        0.0000 
     57 CA         -7.1670   38.1010  -34.1650 C.3      15 GLL5        0.0000 
     58 CA         -3.7690   39.5650  -31.6310 C.3      10 GLP5        0.0000 
     59 CA         -6.0430   37.4990  -35.9755 C.3       5 GLC5        0.0000 
     60 CA         -4.9190   36.8970  -37.7860 C.3      10 GLP5        0.0000 
     61 CA         -5.5460   36.8905  -33.4340 C.3       5 GLC5        0.0000 
     62 CA         -7.0705   37.2425  -38.7695 C.3       5 GLC5        0.0000 
     63 CA         -8.5900   38.6040  -38.8050 C.3      15 GLL5        0.0000 
     64 CA         -5.5510   35.8810  -38.7340 C.3      10 GLP5        0.0000 
     65 O          -9.6630   38.7200  -41.3625 O.2       1 ALC1        0.0000 
     66 O          -9.3310   37.9050  -39.9300 O.2      11 ALL1        0.0000 
     67 O          -9.9950   39.5350  -42.7950 O.2       6 ALP1        0.0000 
     68 CA         -8.5555   41.8075  -38.3060 C.3       5 GLC5        0.0000 
     69 CA         -7.3420   40.5080  -37.9560 C.3      15 GLL5        0.0000 
     70 CA         -9.7690   43.1070  -38.6560 C.3      10 GLP5        0.0000 
     71 CA         -5.8310   41.0250  -39.2745 C.3       5 GLC5        0.0000 
     72 CA         -4.3200   41.5420  -40.5930 C.3      10 GLP5        0.0000 
     73 CA         -5.3515   39.7050  -37.9700 C.3       5 GLC5        0.0000 
     74 CA         -3.3610   38.9020  -37.9840 C.3      10 GLP5        0.0000 
     75 N          -6.2460   40.6750  -35.7545 N.am      2 SEC2        0.0000 
     76 N          -7.2260   39.9600  -36.8060 N.am     12 SEL2        0.0000 
     77 N          -5.2660   41.3900  -34.7030 N.am      7 SEP2        0.0000 
     78 CA         -7.2701   37.0902  -30.4789 C.3       5 GLC5        0.0000 
     79 CA         -6.5250   37.1700  -28.7470 C.3      10 GLP5        0.0000 
     80 CA         -9.6348   39.2995  -32.4690 C.3       5 GLC5        0.0000 
     81 CA         -8.4120   37.8450  -32.2650 C.3      15 GLL5        0.0000 
     82 CA        -11.0780   40.2560  -32.1910 C.3      10 GLP5        0.0000 
     83 CA        -10.3010   37.6190  -37.4333 C.3       5 GLC5        0.0000 
     84 CA         -8.4620   37.9800  -37.5700 C.3      15 GLL5        0.0000 
     85 CA        -12.0760   36.9460  -36.6790 C.3      10 GLP5        0.0000 
     86 CA         -6.5183   37.6077  -37.4210 C.3       5 GLC5        0.0000 
@<TRIPOS>BOND
@<TRIPOS>SUBSTRUCTURE
     1 ALC1       53 GROUP        1 X    ALC  0     ROOT ALC X 1
     2 SEC2        4 GROUP        1 X    SEC  0     **** SEC X 2
     3 LYC4        1 GROUP        1 X    LYC  0     **** LYC X 4
     4 ZIC7       20 GROUP        1 X    ZIC  0     **** ZIC X 5
     5 GLC5       42 GROUP        1 X    GLC  0     **** GLC X 6
     6 ALP1       55 GROUP        1 Y    ALP  0     ROOT ALP Y 8
     7 SEP2        6 GROUP        1 Y    SEP  0     **** SEP Y 9
     8 LYP4        3 GROUP        1 Y    LYP  0     **** LYP Y 11
     9 ZIP7       22 GROUP        1 Y    ZIP  0     **** ZIP Y 12
    10 GLP5       44 GROUP        1 Y    GLP  0     **** GLP Y 13
    11 ALL1       54 GROUP        1 Z    ALL  0     ROOT ALL Z 15
    12 SEL2        5 GROUP        1 Z    SEL  0     **** SEL Z 16
    13 LYL4        2 GROUP        1 Z    LYL  0     **** LYL Z 18
    14 ZIL7       21 GROUP        1 Z    ZIL  0     **** ZIL Z 19
    15 GLL5       43 GROUP        1 Z    GLL  0     **** GLL Z 20
@<TRIPOS>SET

