#    Name: 3zkd_ANP_2_ligand
#    Modification time : Tue Mar 25 03:34:49 2014

@<TRIPOS>MOLECULE
3zkd_ANP_2_ligand
   43    45     1     0     0
SMALL
NO_CHARGES


@<TRIPOS>ATOM
      1 PG        -13.7520   34.7920  -29.7530 P.3       1 ANP601      0.0000 
      2 O1G       -14.7830   35.1000  -28.6260 O.co2     1 ANP601      0.0000 
      3 O2G       -13.3400   33.3010  -29.5760 O.co2     1 ANP601      0.0000 
      4 O3G       -14.3280   35.0110  -31.1960 O.co2     1 ANP601      0.0000 
      5 PB        -11.4810   36.0870  -30.6490 P.3       1 ANP601      0.0000 
      6 O1B       -10.7170   37.4120  -30.1260 O.co2     1 ANP601      0.0000 
      7 O2B       -12.1510   36.3090  -32.0370 O.co2     1 ANP601      0.0000 
      8 N3B       -12.5680   35.7180  -29.5800 N.4       1 ANP601      0.0000 
      9 PA        -10.0290   34.1150  -31.9510 P.3       1 ANP601      0.0000 
     10 O1A        -9.3670   32.8470  -31.5490 O.co2     1 ANP601      0.0000 
     11 O2A       -11.2880   33.8020  -32.7970 O.co2     1 ANP601      0.0000 
     12 O3A       -10.4530   34.8630  -30.6720 O.3       1 ANP601      0.0000 
     13 O5'        -9.0610   35.0050  -32.7420 O.3       1 ANP601      0.0000 
     14 C5'        -7.8540   35.4960  -32.0520 C.3       1 ANP601      0.0000 
     15 C4'        -7.3830   36.8560  -32.2610 C.3       1 ANP601      0.0000 
     16 O4'        -6.7600   36.9290  -33.5090 O.3       1 ANP601      0.0000 
     17 C3'        -8.4120   37.8450  -32.2650 C.3       1 ANP601      0.0000 
     18 O3'        -8.4640   38.4120  -30.9820 O.3       1 ANP601      0.0000 
     19 C2'        -7.9710   38.8410  -33.2290 C.3       1 ANP601      0.0000 
     20 O2'        -7.1430   39.8170  -32.6140 O.3       1 ANP601      0.0000 
     21 C1'        -7.1670   38.1010  -34.1650 C.3       1 ANP601      0.0000 
     22 N9         -7.8160   37.8050  -35.3990 N.pl3     1 ANP601      0.0000 
     23 C8         -8.4410   36.6630  -35.7310 C.2       1 ANP601      0.0000 
     24 N7         -8.8540   36.7580  -37.0880 N.2       1 ANP601      0.0000 
     25 C5         -8.4620   37.9800  -37.5700 C.ar      1 ANP601      0.0000 
     26 C6         -8.5900   38.6040  -38.8050 C.ar      1 ANP601      0.0000 
     27 N6         -9.3310   37.9050  -39.9300 N.pl3     1 ANP601      0.0000 
     28 N1         -8.0310   39.8640  -39.0060 N.ar      1 ANP601      0.0000 
     29 C2         -7.3420   40.5080  -37.9560 C.ar      1 ANP601      0.0000 
     30 N3         -7.2260   39.9600  -36.8060 N.ar      1 ANP601      0.0000 
     31 C4         -7.7730   38.6570  -36.5420 C.ar      1 ANP601      0.0000 
     32 H          -6.9965   34.7707  -32.2816 H         1 ANP601      0.0000 
     33 H          -7.9961   35.3250  -30.9274 H         1 ANP601      0.0000 
     34 H          -6.6471   37.1023  -31.4840 H         1 ANP601      0.0000 
     35 H          -9.3333   37.4244  -32.5667 H         1 ANP601      0.0000 
     36 H          -8.8047   39.2686  -33.7244 H         1 ANP601      0.0000 
     37 H          -6.2531   38.7078  -34.3725 H         1 ANP601      0.0000 
     38 H          -8.6020   35.8981  -35.1862 H         1 ANP601      0.0000 
     39 H          -9.3520   38.3841  -40.8075 H         1 ANP601      0.0000 
     40 H          -9.7397   37.0206  -39.7048 H         1 ANP601      0.0000 
     41 H          -6.9375   41.4538  -38.1813 H         1 ANP601      0.0000 
     42 H          -9.3264   38.0898  -30.5915 H         1 ANP601      0.0000 
     43 H          -6.5876   40.1904  -33.3570 H         1 ANP601      0.0000 
@<TRIPOS>BOND
     1    2    1 ar   
     2    3    1 ar   
     3    4    1 ar   
     4    8    1 1    
     5    6    5 ar   
     6    7    5 ar   
     7    8    5 1    
     8   12    5 1    
     9   10    9 ar   
    10   11    9 ar   
    11   12    9 1    
    12   13    9 1    
    13   14   13 1    
    14   15   14 1    
    15   32   14 1    
    16   33   14 1    
    17   16   15 1    
    18   17   15 1    
    19   34   15 1    
    20   21   16 1    
    21   18   17 1    
    22   19   17 1    
    23   35   17 1    
    24   42   18 1    
    25   20   19 1    
    26   21   19 1    
    27   36   19 1    
    28   43   20 1    
    29   22   21 1    
    30   37   21 1    
    31   23   22 1    
    32   31   22 1    
    33   24   23 2    
    34   38   23 1    
    35   25   24 1    
    36   26   25 ar   
    37   31   25 ar   
    38   27   26 1    
    39   28   26 ar   
    40   39   27 1    
    41   40   27 1    
    42   29   28 ar   
    43   30   29 ar   
    44   41   29 1    
    45   31   30 ar   
@<TRIPOS>SUBSTRUCTURE
     1 ANP601      1 GROUP   
@<TRIPOS>SET

