#    Name: 2ooy_ATP_1_INTS_M
#    Modification time : Mon Mar 24 17:44:20 2014

@<TRIPOS>MOLECULE
2ooy_ATP_1_INTS_M
   64     0    12     0     0
SMALL
NO_CHARGES


@<TRIPOS>ATOM
      1 N          30.8155   37.4245   31.8365 N.am      2 SEC2        0.0000 
      2 N          29.8970   36.6970   31.4770 N.am     10 SEL2        0.0000 
      3 N          31.7340   38.1520   32.1960 N.am      6 SEP2        0.0000 
      4 N          29.9815   38.9670   29.8725 N.am      2 SEC2        0.0000 
      5 N          29.6360   37.9040   29.2550 N.am     10 SEL2        0.0000 
      6 N          30.3270   40.0300   30.4900 N.am      6 SEP2        0.0000 
      7 N          31.0855   38.1270   29.4235 N.am      2 SEC2        0.0000 
      8 N          32.5350   38.3500   29.5920 N.am      6 SEP2        0.0000 
      9 NZ         25.3055   36.4440   32.6090 N.4       3 LYC4        0.0000 
     10 NZ         25.2750   37.0090   31.3430 N.4      11 LYL4        0.0000 
     11 NZ         25.3150   34.5390   33.9510 N.4       7 LYP4        0.0000 
     12 N          25.0665   35.6845   31.0205 N.am      2 SEC2        0.0000 
     13 N          25.2750   37.0090   31.3430 N.am     10 SEL2        0.0000 
     14 N          24.8580   34.3600   30.6980 N.am      6 SEP2        0.0000 
     15 N          25.3055   36.4440   32.6090 N.am      2 SEC2        0.0000 
     16 N          25.3360   35.8790   33.8750 N.am      6 SEP2        0.0000 
     17 NZ         25.8770   37.3910   26.1870 N.4       3 LYC4        0.0000 
     18 NZ         26.2410   39.0420   26.7390 N.4      11 LYL4        0.0000 
     19 NZ         25.5130   35.7400   25.6350 N.4       7 LYP4        0.0000 
     20 CA         28.4420   41.2240   30.3050 C.3       4 GLC5        0.0000 
     21 CA         27.4030   42.4240   28.9570 C.3      12 GLL5        0.0000 
     22 CA         29.4810   40.0240   31.6530 C.3       8 GLP5        0.0000 
     23 O          29.2925   43.2105   28.7725 O.2       1 ALC1        0.0000 
     24 O          28.1610   43.2710   28.1280 O.2       9 ALL1        0.0000 
     25 O          30.4240   43.1500   29.4170 O.2       5 ALP1        0.0000 
     26 N          27.5810   45.4750   31.3020 N.am      2 SEC2        0.0000 
     27 N          27.2570   44.3810   30.3810 N.am     10 SEL2        0.0000 
     28 N          27.9050   46.5690   32.2230 N.am      6 SEP2        0.0000 
     29 N          26.4615   45.4105   30.3135 N.am      2 SEC2        0.0000 
     30 N          25.6660   46.4400   30.2460 N.am      6 SEP2        0.0000 
     31 O          28.5575   43.8460   30.9305 O.2       1 ALC1        0.0000 
     32 O          27.2570   44.3810   30.3810 O.2       9 ALL1        0.0000 
     33 O          29.8580   43.3110   31.4800 O.2       5 ALP1        0.0000 
     34 CA         23.8205   41.6895   28.8090 C.3       4 GLC5        0.0000 
     35 CA         25.2030   43.2510   29.5250 C.3      12 GLL5        0.0000 
     36 CA         22.4380   40.1280   28.0930 C.3       8 GLP5        0.0000 
     37 CA         20.1525   44.4035   32.7040 C.3       4 GLC5        0.0000 
     38 CA         21.0840   42.4120   32.2670 C.3      12 GLL5        0.0000 
     39 CA         19.2210   46.3950   33.1410 C.3       8 GLP5        0.0000 
     40 CA         19.0850   42.5925   31.6115 C.3       4 GLC5        0.0000 
     41 CA         17.0860   42.7730   30.9560 C.3       8 GLP5        0.0000 
     42 CA         20.3760   41.1425   33.9160 C.3       4 GLC5        0.0000 
     43 CA         19.6680   39.8730   35.5650 C.3       8 GLP5        0.0000 
     44 O          19.1575   41.9600   33.3770 O.2       1 ALC1        0.0000 
     45 O          20.3860   41.5420   33.0590 O.2       9 ALL1        0.0000 
     46 O          17.9290   42.3780   33.6950 O.2       5 ALP1        0.0000 
     47 N          19.2475   44.1650   32.0625 N.am      2 SEC2        0.0000 
     48 N          20.5780   43.6430   31.9800 N.am     10 SEL2        0.0000 
     49 N          17.9170   44.6870   32.1450 N.am      6 SEP2        0.0000 
     50 CA         21.6220   45.5540   32.4510 C.3       4 GLC5        0.0000 
     51 CA         21.2510   44.5110   31.2020 C.3      12 GLL5        0.0000 
     52 CA         21.9930   46.5970   33.7000 C.3       8 GLP5        0.0000 
     53 CA         22.0275   43.7230   32.9980 C.3       4 GLC5        0.0000 
     54 CA         22.8040   42.9350   34.7940 C.3       8 GLP5        0.0000 
     55 CA         22.7490   41.5880   29.4565 C.3       4 GLC5        0.0000 
     56 CA         23.0600   43.0480   30.8200 C.3      12 GLL5        0.0000 
     57 CA         24.3087   40.6472   28.2673 C.3       4 GLC5        0.0000 
     58 CA         26.0110   40.5130   28.7860 C.3      12 GLL5        0.0000 
     59 CA         25.7047   45.0063   30.7035 C.3       4 GLC5        0.0000 
     60 CA         25.4930   46.8200   31.6200 C.3       8 GLP5        0.0000 
     61 CA         20.9825   41.1760   30.6885 C.3       4 GLC5        0.0000 
     62 CA         22.4060   42.0460   31.6750 C.3      12 GLL5        0.0000 
     63 CA         20.2200   40.1230   29.4060 C.3       8 GLP5        0.0000 
     64 CA         22.6032   42.7867   33.0948 C.3       4 GLC5        0.0000 
@<TRIPOS>BOND
@<TRIPOS>SUBSTRUCTURE
     1 ALC1       23 GROUP        1 X    ALC  0     ROOT ALC X 1
     2 SEC2        1 GROUP        1 X    SEC  0     **** SEC X 2
     3 LYC4        9 GROUP        1 X    LYC  0     **** LYC X 4
     4 GLC5       20 GROUP        1 X    GLC  0     **** GLC X 6
     5 ALP1       25 GROUP        1 Y    ALP  0     ROOT ALP Y 8
     6 SEP2        3 GROUP        1 Y    SEP  0     **** SEP Y 9
     7 LYP4       11 GROUP        1 Y    LYP  0     **** LYP Y 11
     8 GLP5       22 GROUP        1 Y    GLP  0     **** GLP Y 13
     9 ALL1       24 GROUP        1 Z    ALL  0     ROOT ALL Z 15
    10 SEL2        2 GROUP        1 Z    SEL  0     **** SEL Z 16
    11 LYL4       10 GROUP        1 Z    LYL  0     **** LYL Z 18
    12 GLL5       21 GROUP        1 Z    GLL  0     **** GLL Z 20
@<TRIPOS>SET

