#    Name: 2ooy_ATP_1_ligand
#    Modification time : Mon Mar 24 17:44:20 2014

@<TRIPOS>MOLECULE
2ooy_ATP_1_ligand
   43    45     1     0     0
SMALL
NO_CHARGES


@<TRIPOS>ATOM
      1 PG         29.3510   36.6370   30.0590 P.3       1 ATP401      0.0000 
      2 O1G        29.8970   36.6970   31.4770 O.co2     1 ATP401      0.0000 
      3 O2G        29.8140   35.4130   29.2600 O.co2     1 ATP401      0.0000 
      4 O3G        29.6360   37.9040   29.2550 O.co2     1 ATP401      0.0000 
      5 PB         26.3980   37.5070   30.4220 P.3       1 ATP401      0.0000 
      6 O1B        25.2750   37.0090   31.3430 O.co2     1 ATP401      0.0000 
      7 O2B        26.8670   38.8750   30.8220 O.co2     1 ATP401      0.0000 
      8 O3B        27.7000   36.4560   30.3400 O.3       1 ATP401      0.0000 
      9 PA         27.0010   38.4770   27.9100 P.3       1 ATP401      0.0000 
     10 O1A        28.3660   37.8980   27.6090 O.co2     1 ATP401      0.0000 
     11 O2A        26.2410   39.0420   26.7390 O.co2     1 ATP401      0.0000 
     12 O3A        26.0050   37.6210   28.8560 O.3       1 ATP401      0.0000 
     13 O5'        27.1730   39.7070   28.8490 O.3       1 ATP401      0.0000 
     14 C5'        26.0110   40.5130   28.7860 C.3       1 ATP401      0.0000 
     15 C4'        26.3480   41.8200   28.0970 C.3       1 ATP401      0.0000 
     16 O4'        25.2470   42.7060   28.2100 O.3       1 ATP401      0.0000 
     17 C3'        27.4030   42.4240   28.9570 C.3       1 ATP401      0.0000 
     18 O3'        28.1610   43.2710   28.1280 O.3       1 ATP401      0.0000 
     19 C2'        26.6300   43.1340   30.0490 C.3       1 ATP401      0.0000 
     20 O2'        27.2570   44.3810   30.3810 O.3       1 ATP401      0.0000 
     21 C1'        25.2030   43.2510   29.5250 C.3       1 ATP401      0.0000 
     22 N9         24.2180   42.5240   30.4010 N.pl3     1 ATP401      0.0000 
     23 C8         24.3080   41.2910   30.9330 C.2       1 ATP401      0.0000 
     24 N7         23.2220   40.9880   31.6910 N.2       1 ATP401      0.0000 
     25 C5         22.4060   42.0460   31.6750 C.ar      1 ATP401      0.0000 
     26 C6         21.0840   42.4120   32.2670 C.ar      1 ATP401      0.0000 
     27 N6         20.3860   41.5420   33.0590 N.pl3     1 ATP401      0.0000 
     28 N1         20.5780   43.6430   31.9800 N.ar      1 ATP401      0.0000 
     29 C2         21.2510   44.5110   31.2020 C.ar      1 ATP401      0.0000 
     30 N3         22.4460   44.2420   30.6350 N.ar      1 ATP401      0.0000 
     31 C4         23.0600   43.0480   30.8200 C.ar      1 ATP401      0.0000 
     32 H          25.6209   40.7485   29.7836 H         1 ATP401      0.0000 
     33 H          25.2072   40.0297   28.2176 H         1 ATP401      0.0000 
     34 H          26.6897   41.6662   27.1484 H         1 ATP401      0.0000 
     35 H          27.9677   41.6312   29.3878 H         1 ATP401      0.0000 
     36 H          26.6069   42.4551   30.9037 H         1 ATP401      0.0000 
     37 H          24.9568   44.3015   29.4908 H         1 ATP401      0.0000 
     38 H          25.0672   40.6768   30.7937 H         1 ATP401      0.0000 
     39 H          20.9330   40.8952   33.5905 H         1 ATP401      0.0000 
     40 H          19.3900   41.6291   33.0370 H         1 ATP401      0.0000 
     41 H          20.8149   45.4700   31.0216 H         1 ATP401      0.0000 
     42 H          29.1046   42.9563   28.2303 H         1 ATP401      0.0000 
     43 H          28.2377   44.2116   30.2832 H         1 ATP401      0.0000 
@<TRIPOS>BOND
     1    2    1 ar   
     2    3    1 ar   
     3    4    1 ar   
     4    8    1 1    
     5    6    5 ar   
     6    7    5 ar   
     7    8    5 1    
     8   12    5 1    
     9   10    9 ar   
    10   11    9 ar   
    11   12    9 1    
    12   13    9 1    
    13   14   13 1    
    14   15   14 1    
    15   32   14 1    
    16   33   14 1    
    17   16   15 1    
    18   17   15 1    
    19   34   15 1    
    20   21   16 1    
    21   18   17 1    
    22   19   17 1    
    23   35   17 1    
    24   42   18 1    
    25   20   19 1    
    26   21   19 1    
    27   36   19 1    
    28   43   20 1    
    29   22   21 1    
    30   37   21 1    
    31   23   22 1    
    32   31   22 1    
    33   24   23 2    
    34   38   23 1    
    35   25   24 1    
    36   26   25 ar   
    37   31   25 ar   
    38   27   26 1    
    39   28   26 ar   
    40   39   27 1    
    41   40   27 1    
    42   29   28 ar   
    43   30   29 ar   
    44   41   29 1    
    45   31   30 ar   
@<TRIPOS>SUBSTRUCTURE
     1 ATP401      1 GROUP   
@<TRIPOS>SET

