#    Name: 3hdn_GMG_1_INTS_M
#    Modification time : Tue Mar 25 13:59:00 2014

@<TRIPOS>MOLECULE
3hdn_GMG_1_INTS_M
   60     0    12     0     0
SMALL
NO_CHARGES


@<TRIPOS>ATOM
      1 CA         41.7280   27.1195   68.7005 C.3       4 GLC5        0.0000 
      2 CA         40.6520   27.1010   66.8400 C.3      12 GLL5        0.0000 
      3 CA         42.8040   27.1380   70.5610 C.3       8 GLP5        0.0000 
      4 CA         32.5060   37.3515   68.9500 C.3       4 GLC5        0.0000 
      5 CA         32.3660   35.1410   69.0830 C.3      12 GLL5        0.0000 
      6 CA         32.6460   39.5620   68.8170 C.3       8 GLP5        0.0000 
      7 CA         38.1270   34.9020   70.1430 C.3       4 GLC5        0.0000 
      8 CA         36.1510   34.2520   70.6560 C.3      12 GLL5        0.0000 
      9 CA         40.1030   35.5520   69.6300 C.3       8 GLP5        0.0000 
     10 CA         36.1100   35.9430   71.3315 C.3       4 GLC5        0.0000 
     11 CA         36.0690   37.6340   72.0070 C.3       8 GLP5        0.0000 
     12 CA         38.9140   34.1655   69.8585 C.3       4 GLC5        0.0000 
     13 CA         37.7250   32.7790   70.0870 C.3      12 GLL5        0.0000 
     14 CA         34.8525   36.2550   70.7750 C.3       4 GLC5        0.0000 
     15 CA         33.6360   34.8760   69.5430 C.3      12 GLL5        0.0000 
     16 CA         39.8160   32.4900   67.6240 C.3       4 GLC5        0.0000 
     17 CA         38.9400   31.1910   69.1790 C.3      12 GLL5        0.0000 
     18 CA         40.6920   33.7890   66.0690 C.3       8 GLP5        0.0000 
     19 CA         39.8760   30.4170   70.9030 C.3       4 GLC5        0.0000 
     20 CA         40.8120   29.6430   72.6270 C.3       8 GLP5        0.0000 
     21 O          38.7875   33.9160   71.9885 O.2       1 ALC1        0.0000 
     22 O          37.4020   33.7930   70.9370 O.2       9 ALL1        0.0000 
     23 O          40.1730   34.0390   73.0400 O.2       5 ALP1        0.0000 
     24 N          39.9905   31.5700   71.1625 N.am      2 SEC2        0.0000 
     25 N          38.8870   32.1310   70.1220 N.am     10 SEL2        0.0000 
     26 N          41.0940   31.0090   72.2030 N.am      6 SEP2        0.0000 
     27 NZ         30.0765   37.6705   66.9650 N.4       3 LYC4        0.0000 
     28 NZ         29.2220   36.4160   66.8310 N.4      11 LYL4        0.0000 
     29 NZ         30.9310   38.9250   67.0990 N.4       7 LYP4        0.0000 
     30 N          30.0765   37.6705   66.9650 N.am      2 SEC2        0.0000 
     31 N          29.2220   36.4160   66.8310 N.am     10 SEL2        0.0000 
     32 N          30.9310   38.9250   67.0990 N.am      6 SEP2        0.0000 
     33 NZ         31.1290   37.5080   66.5515 N.4       3 LYC4        0.0000 
     34 NZ         31.3270   36.0910   66.0040 N.4      11 LYL4        0.0000 
     35 CA         39.8300   25.2770   67.5955 C.3       4 GLC5        0.0000 
     36 CA         38.8710   23.9640   68.7920 C.3       8 GLP5        0.0000 
     37 CA         37.7935   30.9055   65.4177 C.3       4 GLC5        0.0000 
     38 CA         37.4210   29.5880   66.1990 C.3      12 GLL5        0.0000 
     39 CA         38.0330   32.7320   65.0820 C.3       8 GLP5        0.0000 
     40 CA         38.0630   31.5328   66.4317 C.3       4 GLC5        0.0000 
     41 CA         37.9670   30.8690   68.2560 C.3      12 GLL5        0.0000 
     42 CA         37.3770   32.4047   66.9158 C.3       4 GLC5        0.0000 
     43 CA         36.7810   31.5790   68.2710 C.3      12 GLL5        0.0000 
     44 CA         36.6728   34.5915   68.0478 C.3       4 GLC5        0.0000 
     45 CA         36.6610   32.5760   69.2280 C.3      12 GLL5        0.0000 
     46 CA         37.1850   36.1350   66.6830 C.3       8 GLP5        0.0000 
     47 CA         34.6926   32.3680   70.6401 C.3       4 GLC5        0.0000 
     48 CA         33.1020   31.5050   71.6030 C.3       8 GLP5        0.0000 
     49 CA         37.1077   30.2133   69.8913 C.3       4 GLC5        0.0000 
     50 CA         36.0270   29.3530   71.1800 C.3       8 GLP5        0.0000 
     51 CA         32.3293   33.6789   70.3825 C.3       4 GLC5        0.0000 
     52 CA         31.7840   34.3050   68.1550 C.3      12 GLL5        0.0000 
     53 CA         32.2660   32.7010   72.0310 C.3       8 GLP5        0.0000 
     54 CA         33.4136   32.4669   70.0512 C.3       4 GLC5        0.0000 
     55 CA         34.3360   33.7800   69.0800 C.3      12 GLL5        0.0000 
     56 CA         36.2267   31.2259   70.4036 C.3       4 GLC5        0.0000 
     57 CA         35.6600   33.5200   69.5970 C.3      12 GLL5        0.0000 
     58 CA         33.9194   35.4099   67.5284 C.3       4 GLC5        0.0000 
     59 CA         33.7510   32.9460   68.1490 C.3      12 GLL5        0.0000 
     60 CA         34.7800   36.7770   66.4400 C.3       8 GLP5        0.0000 
@<TRIPOS>BOND
@<TRIPOS>SUBSTRUCTURE
     1 ALC1       21 GROUP        1 X    ALC  0     ROOT ALC X 1
     2 SEC2       24 GROUP        1 X    SEC  0     **** SEC X 2
     3 LYC4       27 GROUP        1 X    LYC  0     **** LYC X 4
     4 GLC5        1 GROUP        1 X    GLC  0     **** GLC X 6
     5 ALP1       23 GROUP        1 Y    ALP  0     ROOT ALP Y 8
     6 SEP2       26 GROUP        1 Y    SEP  0     **** SEP Y 9
     7 LYP4       29 GROUP        1 Y    LYP  0     **** LYP Y 11
     8 GLP5        3 GROUP        1 Y    GLP  0     **** GLP Y 13
     9 ALL1       22 GROUP        1 Z    ALL  0     ROOT ALL Z 15
    10 SEL2       25 GROUP        1 Z    SEL  0     **** SEL Z 16
    11 LYL4       28 GROUP        1 Z    LYL  0     **** LYL Z 18
    12 GLL5        2 GROUP        1 Z    GLL  0     **** GLL Z 20
@<TRIPOS>SET

