#    Name: 3hdn_GMG_1_ligand
#    Modification time : Tue Mar 25 13:59:00 2014

@<TRIPOS>MOLECULE
3hdn_GMG_1_ligand
   46    50     1     0     0
SMALL
NO_CHARGES


@<TRIPOS>ATOM
      1 C4         40.6520   27.1010   66.8400 C.ar      1 GMG1        0.0000 
      2 C5         32.4780   33.2090   67.6890 C.ar      1 GMG1        0.0000 
      3 C6         32.3660   35.1410   69.0830 C.ar      1 GMG1        0.0000 
      4 C7         37.6870   28.5700   65.3080 C.ar      1 GMG1        0.0000 
      5 C8         33.7510   32.9460   68.1490 C.ar      1 GMG1        0.0000 
      6 C10        37.4210   29.5880   66.1990 C.ar      1 GMG1        0.0000 
      7 C13        36.1510   34.2520   70.6560 C.2       1 GMG1        0.0000 
      8 C15        30.4110   34.5810   67.6550 C.3       1 GMG1        0.0000 
      9 C17        38.7640   27.7360   65.5160 C.ar      1 GMG1        0.0000 
     10 C20        38.2190   29.7980   67.3070 C.ar      1 GMG1        0.0000 
     11 C21        37.9670   30.8690   68.2560 C.ar      1 GMG1        0.0000 
     12 C22        36.6610   32.5760   69.2280 C.ar      1 GMG1        0.0000 
     13 C24        37.7250   32.7790   70.0870 C.ar      1 GMG1        0.0000 
     14 C1         40.1200   25.8860   64.8570 C.ar      1 GMG1        0.0000 
     15 C2         40.9260   26.0790   65.9580 C.ar      1 GMG1        0.0000 
     16 C3         39.0390   26.7130   64.6340 C.ar      1 GMG1        0.0000 
     17 C9         33.6360   34.8760   69.5430 C.ar      1 GMG1        0.0000 
     18 C11        39.2930   28.9510   67.4980 C.ar      1 GMG1        0.0000 
     19 C12        36.7810   31.5790   68.2710 C.ar      1 GMG1        0.0000 
     20 C14        38.9400   31.1910   69.1790 C.ar      1 GMG1        0.0000 
     21 C16        31.7840   34.3050   68.1550 C.ar      1 GMG1        0.0000 
     22 C18        34.3360   33.7800   69.0800 C.ar      1 GMG1        0.0000 
     23 C19        39.5700   27.9280   66.6190 C.ar      1 GMG1        0.0000 
     24 C23        35.6600   33.5200   69.5970 C.2       1 GMG1        0.0000 
     25 C25        30.4050   35.7600   66.7370 C.2       1 GMG1        0.0000 
     26 N26        37.4020   33.7930   70.9370 N.pl3     1 GMG1        0.0000 
     27 N27        38.8870   32.1310   70.1220 N.ar      1 GMG1        0.0000 
     28 O28        29.2220   36.4160   66.8310 O.co2     1 GMG1        0.0000 
     29 O29        31.3270   36.0910   66.0040 O.co2     1 GMG1        0.0000 
     30 H          41.2540   27.2485   67.6644 H         1 GMG1        0.0000 
     31 H          32.0426   32.5817   66.9919 H         1 GMG1        0.0000 
     32 H          31.8503   35.9637   69.4319 H         1 GMG1        0.0000 
     33 H          37.0790   28.4328   64.4850 H         1 GMG1        0.0000 
     34 H          34.2676   32.1243   67.7968 H         1 GMG1        0.0000 
     35 H          36.6037   30.2108   66.0348 H         1 GMG1        0.0000 
     36 H          35.6887   34.9547   71.1066 H         1 GMG1        0.0000 
     37 H          29.7411   34.7752   68.5021 H         1 GMG1        0.0000 
     38 H          30.0280   33.7018   67.1217 H         1 GMG1        0.0000 
     39 H          40.3260   25.1186   64.1954 H         1 GMG1        0.0000 
     40 H          41.7342   25.4582   66.1214 H         1 GMG1        0.0000 
     41 H          38.4379   26.5660   63.8090 H         1 GMG1        0.0000 
     42 H          34.0719   35.5036   70.2429 H         1 GMG1        0.0000 
     43 H          39.9082   29.0911   68.3288 H         1 GMG1        0.0000 
     44 H          36.0376   31.3834   67.6188 H         1 GMG1        0.0000 
     45 H          39.8545   30.5959   69.1153 H         1 GMG1        0.0000 
     46 H          37.9775   34.1370   71.6382 H         1 GMG1        0.0000 
@<TRIPOS>BOND
     1   15    1 ar   
     2   23    1 ar   
     3   30    1 1    
     4    5    2 ar   
     5   21    2 ar   
     6   31    2 1    
     7   17    3 ar   
     8   21    3 ar   
     9   32    3 1    
    10    6    4 ar   
    11    9    4 ar   
    12   33    4 1    
    13   22    5 ar   
    14   34    5 1    
    15   10    6 ar   
    16   35    6 1    
    17   24    7 2    
    18   26    7 1    
    19   36    7 1    
    20   21    8 1    
    21   25    8 1    
    22   37    8 1    
    23   38    8 1    
    24   16    9 ar   
    25   23    9 ar   
    26   11   10 1    
    27   18   10 ar   
    28   19   11 ar   
    29   20   11 ar   
    30   13   12 ar   
    31   19   12 ar   
    32   24   12 1    
    33   26   13 1    
    34   27   13 ar   
    35   15   14 ar   
    36   16   14 ar   
    37   39   14 1    
    38   40   15 1    
    39   41   16 1    
    40   22   17 ar   
    41   42   17 1    
    42   23   18 ar   
    43   43   18 1    
    44   44   19 1    
    45   27   20 ar   
    46   45   20 1    
    47   24   22 1    
    48   28   25 ar   
    49   29   25 ar   
    50   46   26 1    
@<TRIPOS>SUBSTRUCTURE
     1 GMG1        1 GROUP   
@<TRIPOS>SET

