#    Name: 1zsr_0ZT_1_INTS_M
#    Modification time : Mon Mar 24 17:49:35 2014

@<TRIPOS>MOLECULE
1zsr_0ZT_1_INTS_M
  111     0    12     0     0
SMALL
NO_CHARGES


@<TRIPOS>ATOM
      1 CA         -9.6380   16.5325   36.0565 C.3       4 GLC5        0.0000 
      2 CA         -9.4190   15.8350   34.2200 C.3      12 GLL5        0.0000 
      3 CA         -9.8570   17.2300   37.8930 C.3       8 GLP5        0.0000 
      4 CA         -7.7285   14.6230   35.0490 C.3       4 GLC5        0.0000 
      5 CA         -6.0380   13.4110   35.8780 C.3       8 GLP5        0.0000 
      6 CA         -6.6380   17.4430   31.5205 C.3       4 GLC5        0.0000 
      7 CA         -7.9810   16.3910   32.2420 C.3      12 GLL5        0.0000 
      8 CA         -5.2950   18.4950   30.7990 C.3       8 GLP5        0.0000 
      9 CA         -6.9160   13.2455   31.9720 C.3       4 GLC5        0.0000 
     10 CA         -8.3160   13.9910   32.9410 C.3      12 GLL5        0.0000 
     11 CA         -5.5160   12.5000   31.0030 C.3       8 GLP5        0.0000 
     12 CA         -7.1770   13.7010   34.4095 C.3       4 GLC5        0.0000 
     13 CA         -8.5910   12.6465   31.2930 C.3       4 GLC5        0.0000 
     14 CA         -8.8660   11.3020   29.6450 C.3       8 GLP5        0.0000 
     15 O         -12.4615   16.4275   30.1740 O.2       1 ALC1        0.0000 
     16 O         -11.2790   15.5450   30.0780 O.2       9 ALL1        0.0000 
     17 O         -13.6440   17.3100   30.2700 O.2       5 ALP1        0.0000 
     18 CA        -12.7695   17.9145   28.4505 C.3       4 GLC5        0.0000 
     19 CA        -11.2260   16.5350   27.7720 C.3      12 GLL5        0.0000 
     20 CA        -14.3130   19.2940   29.1290 C.3       8 GLP5        0.0000 
     21 O         -12.1650   18.8680   27.2110 O.2       1 ALC1        0.0000 
     22 O         -11.9520   17.6850   28.1510 O.2       9 ALL1        0.0000 
     23 O         -12.3780   20.0510   26.2710 O.2       5 ALP1        0.0000 
     24 O         -12.1500   17.8870   26.7400 O.2       1 ALC1        0.0000 
     25 O         -12.3480   18.0890   25.3290 O.2       5 ALP1        0.0000 
     26 CA        -13.7170   17.1550   28.8295 C.3       4 GLC5        0.0000 
     27 CA        -13.1210   15.0160   28.5300 C.3      12 GLL5        0.0000 
     28 CA        -13.8250    9.5845   28.5515 C.3       4 GLC5        0.0000 
     29 CA        -13.1790   11.3490   29.5570 C.3      12 GLL5        0.0000 
     30 CA        -14.4710    7.8200   27.5460 C.3       8 GLP5        0.0000 
     31 OD1       -10.8400   19.0290   26.7290 O.co2     3 ASC3        0.0000 
     32 OD1        -9.3020   18.0070   27.1870 O.co2    11 ASL3        0.0000 
     33 OD1       -12.3780   20.0510   26.2710 O.co2     7 ASP3        0.0000 
     34 OD1       -10.8250   18.0480   26.2580 O.co2     3 ASC3        0.0000 
     35 OD1       -12.3480   18.0890   25.3290 O.co2     7 ASP3        0.0000 
     36 OD1       -10.2985   19.3935   27.8845 O.co2     3 ASC3        0.0000 
     37 OD1       -11.2950   20.7800   28.5820 O.co2     7 ASP3        0.0000 
     38 OD1        -9.3970   18.9020   28.2170 O.co2     3 ASC3        0.0000 
     39 OD1        -9.4920   19.7970   29.2470 O.co2     7 ASP3        0.0000 
     40 CA         -1.5050   16.0870   27.0335 C.3       4 GLC5        0.0000 
     41 CA         -2.8840   17.0070   26.4660 C.3      12 GLL5        0.0000 
     42 CA         -0.1260   15.1670   27.6010 C.3       8 GLP5        0.0000 
     43 O          -7.8890   18.9850   24.3530 O.2       1 ALC1        0.0000 
     44 O          -7.6480   17.4310   24.3360 O.2       9 ALL1        0.0000 
     45 O          -8.1300   20.5390   24.3700 O.2       5 ALP1        0.0000 
     46 CA         -8.7590   18.2025   22.7935 C.3       4 GLC5        0.0000 
     47 CA         -7.5190   16.5800   23.1630 C.3      12 GLL5        0.0000 
     48 CA         -9.9990   19.8250   22.4240 C.3       8 GLP5        0.0000 
     49 CA         -6.4045   14.9670   24.1190 C.3       4 GLC5        0.0000 
     50 CA         -5.2900   13.3540   25.0750 C.3       8 GLP5        0.0000 
     51 N          -7.8875   19.4040   21.0715 N.am      2 SEC2        0.0000 
     52 N          -6.9320   18.4700   21.7920 N.am     10 SEL2        0.0000 
     53 N          -8.8430   20.3380   20.3510 N.am      6 SEP2        0.0000 
     54 CA        -10.3705   14.4150   20.3185 C.3       4 GLC5        0.0000 
     55 CA         -8.9870   15.2820   21.4480 C.3      12 GLL5        0.0000 
     56 CA        -11.7540   13.5480   19.1890 C.3       8 GLP5        0.0000 
     57 CA         -8.8190   13.6010   20.1315 C.3       4 GLC5        0.0000 
     58 CA         -8.6510   11.9200   18.8150 C.3       8 GLP5        0.0000 
     59 CA         -9.9470   13.4610   22.1945 C.3       4 GLC5        0.0000 
     60 CA        -10.9070   11.6400   22.9410 C.3       8 GLP5        0.0000 
     61 N          -9.2575   18.1300   19.0520 N.am      2 SEC2        0.0000 
     62 N          -8.6500   17.0990   19.9280 N.am     10 SEL2        0.0000 
     63 N          -9.8650   19.1610   18.1760 N.am      6 SEP2        0.0000 
     64 N          -7.7630   15.9525   18.0970 N.am      2 SEC2        0.0000 
     65 N          -7.9350   15.1150   19.3110 N.am     10 SEL2        0.0000 
     66 N          -7.5910   16.7900   16.8830 N.am      6 SEP2        0.0000 
     67 O          -5.2680   15.4040   22.0420 O.2       1 ALC1        0.0000 
     68 O          -5.6640   16.6320   21.5980 O.2       9 ALL1        0.0000 
     69 O          -4.8720   14.1760   22.4860 O.2       5 ALP1        0.0000 
     70 N          -4.1015   13.7315   20.1085 N.am      2 SEC2        0.0000 
     71 N          -4.2600   15.0850   19.7340 N.am     10 SEL2        0.0000 
     72 N          -3.9430   12.3780   20.4830 N.am      6 SEP2        0.0000 
     73 CA         -1.1135   15.2270   25.6550 C.3       4 GLC5        0.0000 
     74 CA         -2.1010   15.2870   23.7090 C.3      12 GLL5        0.0000 
     75 CA         -6.6180   15.6340   32.1388 C.3       4 GLC5        0.0000 
     76 CA         -4.7700   15.3830   31.7300 C.3       8 GLP5        0.0000 
     77 CA         -9.6700   17.5715   32.6096 C.3       4 GLC5        0.0000 
     78 CA        -10.7570   19.1440   32.3300 C.3       8 GLP5        0.0000 
     79 CA         -7.1795   16.4335   34.2641 C.3       4 GLC5        0.0000 
     80 CA         -5.7760   16.8680   35.6390 C.3       8 GLP5        0.0000 
     81 CA        -15.0678   12.8277   28.3428 C.3       4 GLC5        0.0000 
     82 CA        -13.5290   13.7230   29.1870 C.3      12 GLL5        0.0000 
     83 CA        -16.0900   11.9470   27.0380 C.3       8 GLP5        0.0000 
     84 CA        -15.2658   15.2844   28.7541 C.3       4 GLC5        0.0000 
     85 CA        -14.5620   13.6940   30.1080 C.3      12 GLL5        0.0000 
     86 CA        -16.5880   16.5370   28.0250 C.3       8 GLP5        0.0000 
     87 CA        -14.5500   11.9455   28.1367 C.3       4 GLC5        0.0000 
     88 CA        -12.8410   12.5390   28.9140 C.3      12 GLL5        0.0000 
     89 CA        -10.9380   11.6230   29.4402 C.3       4 GLC5        0.0000 
     90 CA        -15.3245   11.9365   28.8275 C.3       4 GLC5        0.0000 
     91 CA        -14.2130   11.3390   30.4800 C.3      12 GLL5        0.0000 
     92 CA         -4.7008   14.7892   26.3292 C.3       4 GLC5        0.0000 
     93 CA         -4.7670   16.3230   27.7960 C.3      12 GLL5        0.0000 
     94 CA         -2.3522   15.8153   28.2942 C.3       4 GLC5        0.0000 
     95 CA         -3.4560   16.1260   27.3710 C.3      12 GLL5        0.0000 
     96 CA         -0.5930   15.4060   29.0050 C.3       8 GLP5        0.0000 
     97 CA         -5.2559   18.0437   28.9254 C.3       4 GLC5        0.0000 
     98 CA         -4.2607   15.5640   29.0044 C.3       4 GLC5        0.0000 
     99 CA         -5.5190   17.3930   27.3290 C.3      12 GLL5        0.0000 
    100 CA         -4.2220   14.6360   30.5420 C.3       8 GLP5        0.0000 
    101 CA        -10.0698   17.3098   22.1755 C.3       4 GLC5        0.0000 
    102 CA         -8.9200   16.2570   22.6200 C.3      12 GLL5        0.0000 
    103 CA        -11.1860   18.8500   22.3170 C.3       8 GLP5        0.0000 
    104 CA         -3.0685   13.9772   22.6480 C.3       4 GLC5        0.0000 
    105 CA         -2.9270   16.2400   23.1110 C.3      12 GLL5        0.0000 
    106 CA         -3.6230   12.1910   21.8860 C.3       8 GLP5        0.0000 
    107 CA         -3.9020   14.5587   24.2425 C.3       4 GLC5        0.0000 
    108 CA         -2.2503   13.6028   22.1302 C.3       4 GLC5        0.0000 
    109 CA         -1.0080   14.7890   23.0170 C.3      12 GLL5        0.0000 
    110 CA         -3.1986   18.7974   27.4741 C.3       4 GLC5        0.0000 
    111 CA         -2.5990   20.3310   28.2730 C.3       8 GLP5        0.0000 
@<TRIPOS>BOND
@<TRIPOS>SUBSTRUCTURE
     1 ALC1       15 GROUP        1 X    ALC  0     ROOT ALC X 1
     2 SEC2       51 GROUP        1 X    SEC  0     **** SEC X 2
     3 ASC3       31 GROUP        1 X    ASC  0     **** ASC X 3
     4 GLC5        1 GROUP        1 X    GLC  0     **** GLC X 6
     5 ALP1       17 GROUP        1 Y    ALP  0     ROOT ALP Y 8
     6 SEP2       53 GROUP        1 Y    SEP  0     **** SEP Y 9
     7 ASP3       33 GROUP        1 Y    ASP  0     **** ASP Y 10
     8 GLP5        3 GROUP        1 Y    GLP  0     **** GLP Y 13
     9 ALL1       16 GROUP        1 Z    ALL  0     ROOT ALL Z 15
    10 SEL2       52 GROUP        1 Z    SEL  0     **** SEL Z 16
    11 ASL3       32 GROUP        1 Z    ASL  0     **** ASL Z 17
    12 GLL5        2 GROUP        1 Z    GLL  0     **** GLL Z 20
@<TRIPOS>SET

