#    Name: 1zsr_0ZT_1_ligand
#    Modification time : Mon Mar 24 17:49:35 2014

@<TRIPOS>MOLECULE
1zsr_0ZT_1_ligand
   98   100     1     0     0
SMALL
NO_CHARGES


@<TRIPOS>ATOM
      1 O1         -9.3250   14.2990   30.1000 O.2       1 0ZT201      0.0000 
      2 C         -10.1740   14.9640   30.6740 C.2       1 0ZT201      0.0000 
      3 O2        -10.1780   15.2960   32.0080 O.3       1 0ZT201      0.0000 
      4 CT         -8.9510   15.3790   32.8530 C.3       1 0ZT201      0.0000 
      5 C1         -9.4190   15.8350   34.2200 C.3       1 0ZT201      0.0000 
      6 C2         -7.9810   16.3910   32.2420 C.3       1 0ZT201      0.0000 
      7 C3         -8.3160   13.9910   32.9410 C.3       1 0ZT201      0.0000 
      8 N         -11.2790   15.5450   30.0780 N.am      1 0ZT201      0.0000 
      9 CA        -11.6190   15.3290   28.6690 C.3       1 0ZT201      0.0000 
     10 C4        -11.2260   16.5350   27.7720 C.3       1 0ZT201      0.0000 
     11 OS        -11.9520   17.6850   28.1510 O.3       1 0ZT201      0.0000 
     12 CB        -13.1210   15.0160   28.5300 C.3       1 0ZT201      0.0000 
     13 CG        -13.5290   13.7230   29.1870 C.ar      1 0ZT201      0.0000 
     14 CD1       -14.5620   13.6940   30.1080 C.ar      1 0ZT201      0.0000 
     15 CD2       -12.8410   12.5390   28.9140 C.ar      1 0ZT201      0.0000 
     16 CE1       -14.9050   12.5130   30.7540 C.ar      1 0ZT201      0.0000 
     17 CE2       -13.1790   11.3490   29.5570 C.ar      1 0ZT201      0.0000 
     18 CZ        -14.2130   11.3390   30.4800 C.ar      1 0ZT201      0.0000 
     19 CM         -9.7150   16.8040   27.9000 C.3       1 0ZT201      0.0000 
     20 N1         -9.3020   18.0070   27.1870 N.4       1 0ZT201      0.0000 
     21 CA1        -7.9240   17.9540   26.6820 C.3       1 0ZT201      0.0000 
     22 C5         -7.7960   16.9300   25.5580 C.2       1 0ZT201      0.0000 
     23 O          -7.8200   15.7180   25.7950 O.2       1 0ZT201      0.0000 
     24 CB1        -6.9330   17.5960   27.8050 C.3       1 0ZT201      0.0000 
     25 CG1        -5.5190   17.3930   27.3290 C.ar      1 0ZT201      0.0000 
     26 CD11       -4.7670   16.3230   27.7960 C.ar      1 0ZT201      0.0000 
     27 CD21       -4.9370   18.2760   26.4220 C.ar      1 0ZT201      0.0000 
     28 CE11       -3.4560   16.1260   27.3710 C.ar      1 0ZT201      0.0000 
     29 CE21       -3.6250   18.0880   25.9880 C.ar      1 0ZT201      0.0000 
     30 CZ1        -2.8840   17.0070   26.4660 C.ar      1 0ZT201      0.0000 
     31 N2         -7.6480   17.4310   24.3360 N.am      1 0ZT201      0.0000 
     32 CA2        -7.5190   16.5800   23.1630 C.3       1 0ZT201      0.0000 
     33 C6         -6.6800   17.3070   22.1150 C.2       1 0ZT201      0.0000 
     34 O3         -6.9320   18.4700   21.7920 O.2       1 0ZT201      0.0000 
     35 CB2        -8.9200   16.2570   22.6200 C.3       1 0ZT201      0.0000 
     36 CG2        -8.9870   15.2820   21.4480 C.3       1 0ZT201      0.0000 
     37 CD         -8.4830   15.8760   20.1390 C.2       1 0ZT201      0.0000 
     38 OE1        -8.6500   17.0990   19.9280 O.co2     1 0ZT201      0.0000 
     39 OE2        -7.9350   15.1150   19.3110 O.co2     1 0ZT201      0.0000 
     40 N3         -5.6640   16.6320   21.5980 N.am      1 0ZT201      0.0000 
     41 CA3        -4.8360   17.2410   20.5850 C.3       1 0ZT201      0.0000 
     42 C7         -4.5600   16.2460   19.4800 C.2       1 0ZT201      0.0000 
     43 O4         -4.2600   15.0850   19.7340 O.2       1 0ZT201      0.0000 
     44 CB3        -3.5350   17.7640   21.2040 C.3       1 0ZT201      0.0000 
     45 CG3        -2.6720   16.7020   21.8240 C.ar      1 0ZT201      0.0000 
     46 CD12       -1.5800   16.1910   21.1410 C.ar      1 0ZT201      0.0000 
     47 CD22       -2.9270   16.2400   23.1110 C.ar      1 0ZT201      0.0000 
     48 CE12       -0.7470   15.2400   21.7320 C.ar      1 0ZT201      0.0000 
     49 CE22       -2.1010   15.2870   23.7090 C.ar      1 0ZT201      0.0000 
     50 CZ2        -1.0080   14.7890   23.0170 C.ar      1 0ZT201      0.0000 
     51 N4         -4.6900   16.6950   18.2440 N.am      1 0ZT201      0.0000 
     52 H         -11.9113   16.1616   30.6192 H         1 0ZT201      0.0000 
     53 H         -11.0757   14.4543   28.2890 H         1 0ZT201      0.0000 
     54 H         -11.4227   16.2520   26.7474 H         1 0ZT201      0.0000 
     55 H         -13.3699   14.9816   27.4576 H         1 0ZT201      0.0000 
     56 H         -13.6907   15.8505   28.9683 H         1 0ZT201      0.0000 
     57 H         -15.0861   14.5610   30.3192 H         1 0ZT201      0.0000 
     58 H         -12.0705   12.5458   28.2255 H         1 0ZT201      0.0000 
     59 H         -15.6748   12.5068   31.4386 H         1 0ZT201      0.0000 
     60 H         -12.6633   10.4879   29.3457 H         1 0ZT201      0.0000 
     61 H         -14.4685   10.4677   30.9610 H         1 0ZT201      0.0000 
     62 H          -9.1836   15.9172   27.5172 H         1 0ZT201      0.0000 
     63 H          -9.4787   16.8820   28.9740 H         1 0ZT201      0.0000 
     64 H          -7.6319   18.9222   26.2850 H         1 0ZT201      0.0000 
     65 H          -7.2914   16.6795   28.3038 H         1 0ZT201      0.0000 
     66 H          -6.9584   18.4012   28.5588 H         1 0ZT201      0.0000 
     67 H          -5.1871   15.6596   28.4718 H         1 0ZT201      0.0000 
     68 H          -5.4817   19.0775   26.0673 H         1 0ZT201      0.0000 
     69 H          -2.9155   15.3285   27.7288 H         1 0ZT201      0.0000 
     70 H          -3.2058   18.7428   25.3190 H         1 0ZT201      0.0000 
     71 H          -1.9183   16.8676   26.1463 H         1 0ZT201      0.0000 
     72 H          -7.6169   18.4587   24.1562 H         1 0ZT201      0.0000 
     73 H          -7.0312   15.6582   23.4179 H         1 0ZT201      0.0000 
     74 H          -9.4087   17.2111   22.3209 H         1 0ZT201      0.0000 
     75 H          -9.5360   15.8559   23.4555 H         1 0ZT201      0.0000 
     76 H         -10.0286   14.9528   21.3159 H         1 0ZT201      0.0000 
     77 H          -8.3909   14.3896   21.6908 H         1 0ZT201      0.0000 
     78 H          -5.4217   15.6709   21.8831 H         1 0ZT201      0.0000 
     79 H          -5.3565   18.0957   20.1460 H         1 0ZT201      0.0000 
     80 H          -3.7929   18.5231   21.9667 H         1 0ZT201      0.0000 
     81 H          -2.9634   18.2929   20.4178 H         1 0ZT201      0.0000 
     82 H          -1.3759   16.5158   20.1805 H         1 0ZT201      0.0000 
     83 H          -3.7402   16.6068   23.6343 H         1 0ZT201      0.0000 
     84 H           0.0612   14.8753   21.2101 H         1 0ZT201      0.0000 
     85 H          -2.3063   14.9580   24.6603 H         1 0ZT201      0.0000 
     86 H          -0.3950   14.0901   23.4533 H         1 0ZT201      0.0000 
     87 H          -4.9830   17.6465   18.1500 H         1 0ZT201      0.0000 
     88 H          -4.4836   16.0425   17.5148 H         1 0ZT201      0.0000 
     89 H          -8.6582   15.9219   34.8631 H         1 0ZT201      0.0000 
     90 H          -9.8717   16.7257   34.1795 H         1 0ZT201      0.0000 
     91 H         -10.0712   15.1927   34.6226 H         1 0ZT201      0.0000 
     92 H          -7.1414   16.4718   32.7792 H         1 0ZT201      0.0000 
     93 H          -7.7116   16.1336   31.3140 H         1 0ZT201      0.0000 
     94 H          -8.3833   17.3049   32.1876 H         1 0ZT201      0.0000 
     95 H          -8.0606   13.6416   32.0395 H         1 0ZT201      0.0000 
     96 H          -7.4861   13.9969   33.4989 H         1 0ZT201      0.0000 
     97 H          -8.9385   13.3230   33.3487 H         1 0ZT201      0.0000 
     98 H         -12.0357   18.2256   27.3139 H         1 0ZT201      0.0000 
@<TRIPOS>BOND
     1    2    1 2    
     2    3    2 1    
     3    8    2 am   
     4    4    3 1    
     5    5    4 1    
     6    6    4 1    
     7    7    4 1    
     8   89    5 1    
     9   90    5 1    
    10   91    5 1    
    11   92    6 1    
    12   93    6 1    
    13   94    6 1    
    14   95    7 1    
    15   96    7 1    
    16   97    7 1    
    17    9    8 1    
    18   52    8 1    
    19   10    9 1    
    20   12    9 1    
    21   53    9 1    
    22   11   10 1    
    23   19   10 1    
    24   54   10 1    
    25   98   11 1    
    26   13   12 1    
    27   55   12 1    
    28   56   12 1    
    29   14   13 ar   
    30   15   13 ar   
    31   16   14 ar   
    32   57   14 1    
    33   17   15 ar   
    34   58   15 1    
    35   18   16 ar   
    36   59   16 1    
    37   18   17 ar   
    38   60   17 1    
    39   61   18 1    
    40   20   19 1    
    41   62   19 1    
    42   63   19 1    
    43   21   20 1    
    44   22   21 1    
    45   24   21 1    
    46   64   21 1    
    47   23   22 2    
    48   31   22 am   
    49   25   24 1    
    50   65   24 1    
    51   66   24 1    
    52   26   25 ar   
    53   27   25 ar   
    54   28   26 ar   
    55   67   26 1    
    56   29   27 ar   
    57   68   27 1    
    58   30   28 ar   
    59   69   28 1    
    60   30   29 ar   
    61   70   29 1    
    62   71   30 1    
    63   32   31 1    
    64   72   31 1    
    65   33   32 1    
    66   35   32 1    
    67   73   32 1    
    68   34   33 2    
    69   40   33 am   
    70   36   35 1    
    71   74   35 1    
    72   75   35 1    
    73   37   36 1    
    74   76   36 1    
    75   77   36 1    
    76   38   37 ar   
    77   39   37 ar   
    78   41   40 1    
    79   78   40 1    
    80   42   41 1    
    81   44   41 1    
    82   79   41 1    
    83   43   42 2    
    84   51   42 am   
    85   45   44 1    
    86   80   44 1    
    87   81   44 1    
    88   46   45 ar   
    89   47   45 ar   
    90   48   46 ar   
    91   82   46 1    
    92   49   47 ar   
    93   83   47 1    
    94   50   48 ar   
    95   84   48 1    
    96   50   49 ar   
    97   85   49 1    
    98   86   50 1    
    99   87   51 1    
   100   88   51 1    
@<TRIPOS>SUBSTRUCTURE
     1 0ZT201      1 GROUP   
@<TRIPOS>SET

