#    Name: 3prf_FP3_2_INTS_M
#    Modification time : Tue Mar 25 08:20:49 2014

@<TRIPOS>MOLECULE
3prf_FP3_2_INTS_M
   51     0     9     0     0
SMALL
NO_CHARGES


@<TRIPOS>ATOM
      1 CA         61.5515   24.2790   -2.6665 C.3       3 GLC5        0.0000 
      2 CA         60.0380   24.9260   -1.2760 C.3       9 GLL5        0.0000 
      3 CA         63.0650   23.6320   -4.0570 C.3       6 GLP5        0.0000 
      4 CA         56.7080   24.8160   -2.1855 C.3       3 GLC5        0.0000 
      5 CA         58.4200   25.3680   -3.0410 C.3       9 GLL5        0.0000 
      6 CA         54.9960   24.2640   -1.3300 C.3       6 GLP5        0.0000 
      7 CA         66.5210   26.5810   -2.1735 C.3       3 GLC5        0.0000 
      8 CA         64.4420   26.3610   -1.5050 C.3       9 GLL5        0.0000 
      9 CA         68.6000   26.8010   -2.8420 C.3       6 GLP5        0.0000 
     10 N          66.8750   26.6335   -0.9060 N.am      2 SEC2        0.0000 
     11 N          65.4630   27.2220   -1.2880 N.am      8 SEL2        0.0000 
     12 N          68.2870   26.0450   -0.5240 N.am      5 SEP2        0.0000 
     13 CA         66.9080   27.6745   -2.1005 C.3       3 GLC5        0.0000 
     14 CA         65.2160   28.5480   -1.3590 C.3       9 GLL5        0.0000 
     15 CA         63.2675   30.1000    0.0290 C.3       3 GLC5        0.0000 
     16 CA         63.9150   29.0180   -1.6500 C.3       9 GLL5        0.0000 
     17 CA         62.6200   31.1820    1.7080 C.3       6 GLP5        0.0000 
     18 CA         60.5680   28.5835   -0.3745 C.3       3 GLC5        0.0000 
     19 CA         61.6500   28.9090   -2.1450 C.3       9 GLL5        0.0000 
     20 CA         59.4860   28.2580    1.3960 C.3       6 GLP5        0.0000 
     21 O          56.5685   25.9940   -4.7405 O.2       1 ALC1        0.0000 
     22 O          57.4080   24.8510   -3.8150 O.2       7 ALL1        0.0000 
     23 O          55.7290   27.1370   -5.6660 O.2       4 ALP1        0.0000 
     24 CA         56.6965   23.5710   -1.6755 C.3       3 GLC5        0.0000 
     25 CA         58.3970   22.8780   -2.0210 C.3       9 GLL5        0.0000 
     26 CA         57.9870   21.1825   -1.2895 C.3       3 GLC5        0.0000 
     27 CA         57.5770   19.4870   -0.5580 C.3       6 GLP5        0.0000 
     28 CA         59.9495   21.9465   -1.6770 C.3       3 GLC5        0.0000 
     29 CA         61.5020   21.0150   -1.3330 C.3       6 GLP5        0.0000 
     30 CA         57.8868   24.4322   -0.4213 C.3       3 GLC5        0.0000 
     31 CA         58.9990   24.4910   -2.1110 C.3       9 GLL5        0.0000 
     32 CA         56.2550   24.1560    0.8510 C.3       6 GLP5        0.0000 
     33 CA         60.5102   22.8618   -1.5132 C.3       3 GLC5        0.0000 
     34 CA         59.8693   26.9247    0.0285 C.3       3 GLC5        0.0000 
     35 CA         61.7512   25.3433    0.0645 C.3       3 GLC5        0.0000 
     36 CA         60.4670   26.2570   -1.4020 C.3       9 GLL5        0.0000 
     37 CA         63.2500   25.0950    1.4680 C.3       6 GLP5        0.0000 
     38 CA         58.2993   27.5280   -1.2090 C.3       3 GLC5        0.0000 
     39 CA         59.9060   27.1600   -2.3330 C.3       9 GLL5        0.0000 
     40 CA         57.2140   28.1230    0.3320 C.3       6 GLP5        0.0000 
     41 CA         57.9068   25.9125   -5.0680 C.3       3 GLC5        0.0000 
     42 CA         58.8630   26.7060   -3.1670 C.3       9 GLL5        0.0000 
     43 CA         57.1720   25.7880   -7.0320 C.3       6 GLP5        0.0000 
     44 CA         63.5147   25.8283   -0.0925 C.3       3 GLC5        0.0000 
     45 CA         63.1170   26.7620   -1.8010 C.3       9 GLL5        0.0000 
     46 CA         63.4222   25.0968   -2.8550 C.3       3 GLC5        0.0000 
     47 CA         62.1977   31.0162   -0.2160 C.3       3 GLC5        0.0000 
     48 CA         62.1180   30.2250   -2.0620 C.3       9 GLL5        0.0000 
     49 CA         58.8500   33.6612   -0.5593 C.3       3 GLC5        0.0000 
     50 CA         59.5110   32.7210   -2.3510 C.3       9 GLL5        0.0000 
     51 CA         57.8060   34.0070    1.2820 C.3       6 GLP5        0.0000 
@<TRIPOS>BOND
@<TRIPOS>SUBSTRUCTURE
     1 ALC1       21 GROUP        1 X    ALC  0     ROOT ALC X 1
     2 SEC2       10 GROUP        1 X    SEC  0     **** SEC X 2
     3 GLC5        1 GROUP        1 X    GLC  0     **** GLC X 6
     4 ALP1       23 GROUP        1 Y    ALP  0     ROOT ALP Y 8
     5 SEP2       12 GROUP        1 Y    SEP  0     **** SEP Y 9
     6 GLP5        3 GROUP        1 Y    GLP  0     **** GLP Y 13
     7 ALL1       22 GROUP        1 Z    ALL  0     ROOT ALL Z 15
     8 SEL2       11 GROUP        1 Z    SEL  0     **** SEL Z 16
     9 GLL5        2 GROUP        1 Z    GLL  0     **** GLL Z 20
@<TRIPOS>SET

