#    Name: 3prf_FP3_2_ligand
#    Modification time : Tue Mar 25 08:20:49 2014

@<TRIPOS>MOLECULE
3prf_FP3_2_ligand
   35    38     1     0     0
SMALL
NO_CHARGES


@<TRIPOS>ATOM
      1 C1         58.9990   24.4910   -2.1110 C.ar      1 FP3727      0.0000 
      2 C2         60.0380   24.9260   -1.2760 C.ar      1 FP3727      0.0000 
      3 C3         60.4670   26.2570   -1.4020 C.ar      1 FP3727      0.0000 
      4 C4         59.9060   27.1600   -2.3330 C.ar      1 FP3727      0.0000 
      5 C5         58.8630   26.7060   -3.1670 C.ar      1 FP3727      0.0000 
      6 C6         58.4200   25.3680   -3.0410 C.ar      1 FP3727      0.0000 
      7 N7         60.4010   28.4250   -2.4070 N.pl3     1 FP3727      0.0000 
      8 C8         64.4420   26.3610   -1.5050 C.ar      1 FP3727      0.0000 
      9 N9         65.4630   27.2220   -1.2880 N.ar      1 FP3727      0.0000 
     10 C10        65.2160   28.5480   -1.3590 C.ar      1 FP3727      0.0000 
     11 C11        63.9150   29.0180   -1.6500 C.ar      1 FP3727      0.0000 
     12 C12        62.8530   28.1450   -1.8740 C.ar      1 FP3727      0.0000 
     13 C13        63.1170   26.7620   -1.8010 C.ar      1 FP3727      0.0000 
     14 O14        63.5000   30.3260   -1.7580 O.3       1 FP3727      0.0000 
     15 C15        62.1180   30.2250   -2.0620 C.2       1 FP3727      0.0000 
     16 C16        61.6500   28.9090   -2.1450 C.2       1 FP3727      0.0000 
     17 C17        61.4330   31.4760   -2.2180 C.ar      1 FP3727      0.0000 
     18 N18        62.2350   32.5700   -2.3010 N.ar      1 FP3727      0.0000 
     19 C19        61.6830   33.7980   -2.4200 C.ar      1 FP3727      0.0000 
     20 C20        60.2770   33.9100   -2.4500 C.ar      1 FP3727      0.0000 
     21 C21        59.5110   32.7210   -2.3510 C.ar      1 FP3727      0.0000 
     22 N22        60.0850   31.5000   -2.2240 N.ar      1 FP3727      0.0000 
     23 O23        57.4080   24.8510   -3.8150 O.3       1 FP3727      0.0000 
     24 CL1        58.3970   22.8780   -2.0210 Cl        1 FP3727      0.0000 
     25 H          60.4642   24.3035   -0.6060 H         1 FP3727      0.0000 
     26 H          61.2338   26.5981   -0.7824 H         1 FP3727      0.0000 
     27 H          58.4368   27.3258   -3.8455 H         1 FP3727      0.0000 
     28 H          59.6667   29.1941   -2.7357 H         1 FP3727      0.0000 
     29 H          64.6190   25.3180   -1.4561 H         1 FP3727      0.0000 
     30 H          65.9636   29.2454   -1.2041 H         1 FP3727      0.0000 
     31 H          62.3927   26.0833   -1.9532 H         1 FP3727      0.0000 
     32 H          62.2502   34.6467   -2.4888 H         1 FP3727      0.0000 
     33 H          59.8276   34.8063   -2.5390 H         1 FP3727      0.0000 
     34 H          58.4702   32.8175   -2.3796 H         1 FP3727      0.0000 
     35 H          57.0349   25.6353   -4.3106 H         1 FP3727      0.0000 
@<TRIPOS>BOND
     1    2    1 ar   
     2    6    1 ar   
     3   24    1 1    
     4    3    2 ar   
     5   25    2 1    
     6    4    3 ar   
     7   26    3 1    
     8    5    4 ar   
     9    7    4 1    
    10    6    5 ar   
    11   27    5 1    
    12   23    6 1    
    13   16    7 1    
    14   28    7 1    
    15    9    8 ar   
    16   13    8 ar   
    17   29    8 1    
    18   10    9 ar   
    19   11   10 ar   
    20   30   10 1    
    21   12   11 ar   
    22   14   11 1    
    23   13   12 ar   
    24   16   12 1    
    25   31   13 1    
    26   15   14 1    
    27   16   15 2    
    28   17   15 1    
    29   18   17 ar   
    30   22   17 ar   
    31   19   18 ar   
    32   20   19 ar   
    33   32   19 1    
    34   21   20 ar   
    35   33   20 1    
    36   22   21 ar   
    37   34   21 1    
    38   35   23 1    
@<TRIPOS>SUBSTRUCTURE
     1 FP3727      1 GROUP   
@<TRIPOS>SET

