#    Name: 3r9f_GSU_2_INTS_M
#    Modification time : Tue Mar 25 11:17:19 2014

@<TRIPOS>MOLECULE
3r9f_GSU_2_INTS_M
   54     0     9     0     0
SMALL
NO_CHARGES


@<TRIPOS>ATOM
      1 CA         34.5310   14.7615  -28.2280 C.3       3 GLC5        0.0000 
      2 CA         33.4940   14.9140  -26.2890 C.3       9 GLL5        0.0000 
      3 CA         35.5680   14.6090  -30.1670 C.3       6 GLP5        0.0000 
      4 CA         33.1795   13.2400  -27.2995 C.3       3 GLC5        0.0000 
      5 CA         32.8650   11.5660  -28.3100 C.3       6 GLP5        0.0000 
      6 CA         35.5760   14.9750  -25.8280 C.3       3 GLC5        0.0000 
      7 CA         37.6580   15.0360  -25.3670 C.3       6 GLP5        0.0000 
      8 O          33.1870   17.3940  -12.2905 O.2       1 ALC1        0.0000 
      9 O          33.2290   17.8210  -13.6230 O.2       7 ALL1        0.0000 
     10 O          33.1450   16.9670  -10.9580 O.2       4 ALP1        0.0000 
     11 N          28.9620   18.3295  -11.3110 N.am      2 SEC2        0.0000 
     12 N          28.7870   19.1160  -12.4650 N.am      8 SEL2        0.0000 
     13 N          29.1370   17.5430  -10.1570 N.am      5 SEP2        0.0000 
     14 N          33.3605   19.2875  -16.5640 N.am      2 SEC2        0.0000 
     15 N          32.8790   18.0980  -16.2370 N.am      8 SEL2        0.0000 
     16 N          33.8420   20.4770  -16.8910 N.am      5 SEP2        0.0000 
     17 O          30.8260   15.0835  -15.7115 O.2       1 ALC1        0.0000 
     18 O          31.5080   16.3280  -16.4970 O.2       7 ALL1        0.0000 
     19 O          30.1440   13.8390  -14.9260 O.2       4 ALP1        0.0000 
     20 N          30.6110   14.8055  -19.9425 N.am      2 SEC2        0.0000 
     21 N          30.6260   15.2450  -18.4990 N.am      8 SEL2        0.0000 
     22 N          30.5960   14.3660  -21.3860 N.am      5 SEP2        0.0000 
     23 CA         34.9825   14.5190  -21.1240 C.3       3 GLC5        0.0000 
     24 CA         34.5180   15.9570  -20.0540 C.3       9 GLL5        0.0000 
     25 CA         35.4470   13.0810  -22.1940 C.3       6 GLP5        0.0000 
     26 CA         33.0335   14.7770  -22.5910 C.3       3 GLC5        0.0000 
     27 CA         34.0320   16.5310  -22.2360 C.3       9 GLL5        0.0000 
     28 CA         32.0350   13.0230  -22.9460 C.3       6 GLP5        0.0000 
     29 CA         34.7395   14.8060  -22.2150 C.3       3 GLC5        0.0000 
     30 N          34.5790   14.2460  -24.3310 N.am      2 SEC2        0.0000 
     31 N          33.7860   15.3160  -25.1010 N.am      8 SEL2        0.0000 
     32 N          35.3720   13.1760  -23.5610 N.am      5 SEP2        0.0000 
     33 CA         31.4090   17.0015  -28.0860 C.3       3 GLC5        0.0000 
     34 CA         31.3600   15.7680  -26.3360 C.3       9 GLL5        0.0000 
     35 CA         31.4580   18.2350  -29.8360 C.3       6 GLP5        0.0000 
     36 CA         36.3725   19.0130  -20.5490 C.3       3 GLC5        0.0000 
     37 CA         35.0070   17.3780  -20.2870 C.3       9 GLL5        0.0000 
     38 CA         37.7380   20.6480  -20.8110 C.3       6 GLP5        0.0000 
     39 O          36.6845   18.6125  -20.2060 O.2       1 ALC1        0.0000 
     40 O          36.4110   17.2870  -20.5450 O.2       7 ALL1        0.0000 
     41 O          36.9580   19.9380  -19.8670 O.2       4 ALP1        0.0000 
     42 CA         32.7912   15.6402  -13.3457 C.3       3 GLC5        0.0000 
     43 CA         32.3380   16.8770  -14.2840 C.3       9 GLL5        0.0000 
     44 CA         33.9290   14.3820  -12.7530 C.3       6 GLP5        0.0000 
     45 CA         33.2717   13.9812  -19.3520 C.3       3 GLC5        0.0000 
     46 CA         33.6930   15.8080  -18.7880 C.3       9 GLL5        0.0000 
     47 CA         32.4380   12.0800  -19.2830 C.3       6 GLP5        0.0000 
     48 CA         36.4793   15.8228  -19.2097 C.3       3 GLC5        0.0000 
     49 CA         38.1960   14.9780  -18.2490 C.3       6 GLP5        0.0000 
     50 CA         35.9982   17.0942  -22.8465 C.3       3 GLC5        0.0000 
     51 CA         34.2490   17.8480  -21.5160 C.3       9 GLL5        0.0000 
     52 CA         37.8560   16.9990  -23.8170 C.3       6 GLP5        0.0000 
     53 CA         35.6246   17.4076  -18.3555 C.3       3 GLC5        0.0000 
     54 CA         36.6930   18.1850  -16.8570 C.3       6 GLP5        0.0000 
@<TRIPOS>BOND
@<TRIPOS>SUBSTRUCTURE
     1 ALC1        8 GROUP        1 X    ALC  0     ROOT ALC X 1
     2 SEC2       11 GROUP        1 X    SEC  0     **** SEC X 2
     3 GLC5        1 GROUP        1 X    GLC  0     **** GLC X 6
     4 ALP1       10 GROUP        1 Y    ALP  0     ROOT ALP Y 8
     5 SEP2       13 GROUP        1 Y    SEP  0     **** SEP Y 9
     6 GLP5        3 GROUP        1 Y    GLP  0     **** GLP Y 13
     7 ALL1        9 GROUP        1 Z    ALL  0     ROOT ALL Z 15
     8 SEL2       12 GROUP        1 Z    SEL  0     **** SEL Z 16
     9 GLL5        2 GROUP        1 Z    GLL  0     **** GLL Z 20
@<TRIPOS>SET

