#    Name: 3r9f_GSU_2_ligand
#    Modification time : Tue Mar 25 11:17:19 2014

@<TRIPOS>MOLECULE
3r9f_GSU_2_ligand
   53    55     1     0     0
SMALL
NO_CHARGES


@<TRIPOS>ATOM
      1 C2         33.4940   14.9140  -26.2890 C.ar      1 GSU500      0.0000 
      2 S          31.2720   16.4790  -18.0000 S.o2      1 GSU500      0.0000 
      3 N          33.2290   17.8210  -13.6230 N.4       1 GSU500      0.0000 
      4 CA         32.3380   16.8770  -14.2840 C.3       1 GSU500      0.0000 
      5 CB         30.9690   16.9200  -13.5930 C.3       1 GSU500      0.0000 
      6 CG         30.0070   17.9680  -14.1460 C.3       1 GSU500      0.0000 
      7 CD         29.8260   19.0930  -13.1530 C.2       1 GSU500      0.0000 
      8 OE1        28.7870   19.1160  -12.4650 O.co2     1 GSU500      0.0000 
      9 OE2        30.7140   19.9680  -13.0600 O.co2     1 GSU500      0.0000 
     10 C          32.2570   17.1620  -15.7650 C.2       1 GSU500      0.0000 
     11 O          32.8790   18.0980  -16.2370 O.2       1 GSU500      0.0000 
     12 N10        31.5080   16.3280  -16.4970 N.am      1 GSU500      0.0000 
     13 O1S        30.6260   15.2450  -18.4990 O.2       1 GSU500      0.0000 
     14 O2S        30.3900   17.6400  -18.2130 O.2       1 GSU500      0.0000 
     15 O5'        32.6460   16.7700  -18.8210 O.3       1 GSU500      0.0000 
     16 C5'        33.6930   15.8080  -18.7880 C.3       1 GSU500      0.0000 
     17 C4'        34.5180   15.9570  -20.0540 C.3       1 GSU500      0.0000 
     18 O4'        33.7240   15.6150  -21.1890 O.3       1 GSU500      0.0000 
     19 C1'        34.0320   16.5310  -22.2360 C.3       1 GSU500      0.0000 
     20 N9         32.9090   16.5700  -23.1960 N.pl3     1 GSU500      0.0000 
     21 C4         32.8320   16.0270  -24.4120 C.ar      1 GSU500      0.0000 
     22 N3         33.7860   15.3160  -25.1010 N.ar      1 GSU500      0.0000 
     23 N1         32.3750   15.1130  -26.9060 N.ar      1 GSU500      0.0000 
     24 C6         31.3600   15.7680  -26.3360 C.ar      1 GSU500      0.0000 
     25 N6         30.2480   15.9520  -26.9160 N.pl3     1 GSU500      0.0000 
     26 C5         31.6170   16.2800  -24.9770 C.ar      1 GSU500      0.0000 
     27 N7         30.9090   16.9920  -24.0820 N.2       1 GSU500      0.0000 
     28 C8         31.7090   17.1540  -22.9930 C.2       1 GSU500      0.0000 
     29 C2'        34.2490   17.8480  -21.5160 C.3       1 GSU500      0.0000 
     30 O2'        34.9760   18.7600  -22.3330 O.3       1 GSU500      0.0000 
     31 C3'        35.0070   17.3780  -20.2870 C.3       1 GSU500      0.0000 
     32 O3'        36.4110   17.2870  -20.5450 O.3       1 GSU500      0.0000 
     33 H          34.2675   14.3480  -26.8318 H         1 GSU500      0.0000 
     34 H          32.7345   15.8620  -14.1498 H         1 GSU500      0.0000 
     35 H          31.1230   17.1074  -12.5146 H         1 GSU500      0.0000 
     36 H          30.4998   15.9226  -13.6756 H         1 GSU500      0.0000 
     37 H          29.0455   17.4979  -14.3467 H         1 GSU500      0.0000 
     38 H          30.4082   18.3628  -15.0782 H         1 GSU500      0.0000 
     39 H          31.0210   15.4968  -16.0846 H         1 GSU500      0.0000 
     40 H          33.3077   14.7868  -18.7540 H         1 GSU500      0.0000 
     41 H          34.3561   15.9560  -17.9331 H         1 GSU500      0.0000 
     42 H          35.3802   15.3096  -19.9934 H         1 GSU500      0.0000 
     43 H          34.9433   16.2536  -22.7171 H         1 GSU500      0.0000 
     44 H          29.5579   16.4544  -26.3951 H         1 GSU500      0.0000 
     45 H          30.1661   15.5774  -27.8395 H         1 GSU500      0.0000 
     46 H          31.4457   17.6280  -22.1803 H         1 GSU500      0.0000 
     47 H          33.2958   18.2007  -21.2029 H         1 GSU500      0.0000 
     48 H          34.7611   17.9624  -19.4617 H         1 GSU500      0.0000 
     49 H          34.1385   17.8267  -14.0386 H         1 GSU500      0.0000 
     50 H          32.8795   18.7568  -13.6698 H         1 GSU500      0.0000 
     51 H          33.3505   17.6016  -12.6550 H         1 GSU500      0.0000 
     52 H          34.2807   19.3480  -22.7463 H         1 GSU500      0.0000 
     53 H          36.7692   18.2005  -20.3520 H         1 GSU500      0.0000 
@<TRIPOS>BOND
     1   22    1 ar   
     2   23    1 ar   
     3   33    1 1    
     4   12    2 1    
     5   13    2 2    
     6   14    2 2    
     7   15    2 1    
     8    4    3 1    
     9   49    3 1    
    10   50    3 1    
    11   51    3 1    
    12    5    4 1    
    13   10    4 1    
    14   34    4 1    
    15    6    5 1    
    16   35    5 1    
    17   36    5 1    
    18    7    6 1    
    19   37    6 1    
    20   38    6 1    
    21    8    7 ar   
    22    9    7 ar   
    23   11   10 2    
    24   12   10 am   
    25   39   12 1    
    26   16   15 1    
    27   17   16 1    
    28   40   16 1    
    29   41   16 1    
    30   18   17 1    
    31   31   17 1    
    32   42   17 1    
    33   19   18 1    
    34   20   19 1    
    35   29   19 1    
    36   43   19 1    
    37   21   20 1    
    38   28   20 1    
    39   22   21 ar   
    40   26   21 ar   
    41   24   23 ar   
    42   25   24 1    
    43   26   24 ar   
    44   44   25 1    
    45   45   25 1    
    46   27   26 1    
    47   28   27 2    
    48   46   28 1    
    49   30   29 1    
    50   31   29 1    
    51   47   29 1    
    52   52   30 1    
    53   32   31 1    
    54   48   31 1    
    55   53   32 1    
@<TRIPOS>SUBSTRUCTURE
     1 GSU500      1 GROUP   
@<TRIPOS>SET

