#    Name: 1okl_MNS_1_INTS_M
#    Modification time : Mon Mar 24 20:15:52 2014

@<TRIPOS>MOLECULE
1okl_MNS_1_INTS_M
   40     0    12     0     0
SMALL
NO_CHARGES


@<TRIPOS>ATOM
      1 CA         -6.0615    0.1210   13.7275 C.3       4 GLC5        0.0000 
      2 CA         -4.5510    1.5230   14.5980 C.3      12 GLL5        0.0000 
      3 CA         -7.5720   -1.2810   12.8570 C.3       8 GLP5        0.0000 
      4 CA         -2.9255    0.2400   14.5740 C.3       4 GLC5        0.0000 
      5 CA         -1.3000   -1.0430   14.5500 C.3       8 GLP5        0.0000 
      6 CA         -2.2630    1.2995   14.2430 C.3       4 GLC5        0.0000 
      7 CA         -4.0850    2.4330   13.6540 C.3      12 GLL5        0.0000 
      8 CA         -0.4410    0.1660   14.8320 C.3       8 GLP5        0.0000 
      9 CA         -4.6960    8.0780   14.7140 C.3       4 GLC5        0.0000 
     10 CA         -3.5760    6.8600   14.1100 C.3      12 GLL5        0.0000 
     11 CA         -5.8160    9.2960   15.3180 C.3       8 GLP5        0.0000 
     12 CA         -2.7405    6.2185   15.8485 C.3       4 GLC5        0.0000 
     13 CA         -1.9050    5.5770   17.5870 C.3       8 GLP5        0.0000 
     14 CA         -5.6425    7.9590   14.1090 C.3       4 GLC5        0.0000 
     15 CA         -5.4690    6.6220   12.9000 C.3      12 GLL5        0.0000 
     16 N          -3.9785    0.7885   18.7140 N.am      2 SEC2        0.0000 
     17 N          -5.2510    1.2730   18.2200 N.am     10 SEL2        0.0000 
     18 N          -2.7060    0.3040   19.2080 N.am      6 SEP2        0.0000 
     19 O          -4.6170   -1.1665   17.1460 O.2       1 ALC1        0.0000 
     20 O          -5.4860   -0.4700   16.5240 O.2       9 ALL1        0.0000 
     21 O          -3.7480   -1.8630   17.7680 O.2       5 ALP1        0.0000 
     22 Zn         -6.0760   -1.0810   15.9850 Zn        3 ZIC7        0.0000 
     23 Zn         -5.4860   -0.4700   16.5240 Zn       11 ZIL7        0.0000 
     24 Zn         -6.6660   -1.6920   15.4460 Zn        7 ZIP7        0.0000 
     25 CA         -3.5353    5.3213   16.2863 C.3       4 GLC5        0.0000 
     26 CA         -5.0370    4.3650   14.8970 C.3      12 GLL5        0.0000 
     27 CA         -6.3133    6.8375   18.0532 C.3       4 GLC5        0.0000 
     28 CA         -6.0160    6.1860   16.2070 C.3      12 GLL5        0.0000 
     29 CA         -6.3730    7.9440   19.4200 C.3       8 GLP5        0.0000 
     30 CA         -5.0567    5.6155   17.8927 C.3       4 GLC5        0.0000 
     31 CA         -6.4910    5.2760   17.1660 C.3      12 GLL5        0.0000 
     32 CA         -3.8600    5.5000   19.0990 C.3       8 GLP5        0.0000 
     33 CA         -7.8540    5.8440   16.1356 C.3       4 GLC5        0.0000 
     34 CA         -9.6350    6.0620   15.8680 C.3       8 GLP5        0.0000 
     35 CA         -7.9140    3.9332   18.3377 C.3       4 GLC5        0.0000 
     36 CA         -9.4660    3.2760   19.6010 C.3       8 GLP5        0.0000 
     37 CA         -7.7655    3.6507   15.8195 C.3       4 GLC5        0.0000 
     38 CA         -6.2330    3.9050   16.9830 C.3      12 GLL5        0.0000 
     39 CA         -9.6580    3.6370   15.2150 C.3       8 GLP5        0.0000 
     40 CA         -4.8665    4.5823   17.7615 C.3       4 GLC5        0.0000 
@<TRIPOS>BOND
@<TRIPOS>SUBSTRUCTURE
     1 ALC1       19 GROUP        1 X    ALC  0     ROOT ALC X 1
     2 SEC2       16 GROUP        1 X    SEC  0     **** SEC X 2
     3 ZIC7       22 GROUP        1 X    ZIC  0     **** ZIC X 5
     4 GLC5        1 GROUP        1 X    GLC  0     **** GLC X 6
     5 ALP1       21 GROUP        1 Y    ALP  0     ROOT ALP Y 8
     6 SEP2       18 GROUP        1 Y    SEP  0     **** SEP Y 9
     7 ZIP7       24 GROUP        1 Y    ZIP  0     **** ZIP Y 12
     8 GLP5        3 GROUP        1 Y    GLP  0     **** GLP Y 13
     9 ALL1       20 GROUP        1 Z    ALL  0     ROOT ALL Z 15
    10 SEL2       17 GROUP        1 Z    SEL  0     **** SEL Z 16
    11 ZIL7       23 GROUP        1 Z    ZIL  0     **** ZIL Z 19
    12 GLL5        2 GROUP        1 Z    GLL  0     **** GLL Z 20
@<TRIPOS>SET

