#    Name: 1okl_MNS_1_ligand
#    Modification time : Mon Mar 24 20:15:52 2014

@<TRIPOS>MOLECULE
1okl_MNS_1_ligand
   31    32     1     0     0
SMALL
NO_CHARGES


@<TRIPOS>ATOM
      1 C1         -5.2670    2.0110   15.7090 C.ar      1 MNS862      0.0000 
      2 C2         -4.5510    1.5230   14.5980 C.ar      1 MNS862      0.0000 
      3 C3         -4.0850    2.4330   13.6540 C.ar      1 MNS862      0.0000 
      4 C4         -4.3270    3.8040   13.8100 C.ar      1 MNS862      0.0000 
      5 C4A        -5.0370    4.3650   14.8970 C.ar      1 MNS862      0.0000 
      6 C5         -5.2940    5.7660   15.0740 C.ar      1 MNS862      0.0000 
      7 C6         -6.0160    6.1860   16.2070 C.ar      1 MNS862      0.0000 
      8 C7         -6.4910    5.2760   17.1660 C.ar      1 MNS862      0.0000 
      9 C8         -6.2330    3.9050   16.9830 C.ar      1 MNS862      0.0000 
     10 C8A        -5.5130    3.4240   15.8650 C.ar      1 MNS862      0.0000 
     11 N          -4.7820    6.7640   14.0340 N.4       1 MNS862      0.0000 
     12 CM1        -3.5760    6.8600   14.1100 C.3       1 MNS862      0.0000 
     13 CM2        -5.4690    6.6220   12.9000 C.3       1 MNS862      0.0000 
     14 S          -5.8600    0.9290   16.8970 S.o2      1 MNS862      0.0000 
     15 O1S        -7.3490    1.0470   16.9670 O.2       1 MNS862      0.0000 
     16 O2S        -5.2510    1.2730   18.2200 O.2       1 MNS862      0.0000 
     17 N3S        -5.4860   -0.4700   16.5240 N.pl3     1 MNS862      0.0000 
     18 H          -4.3828    0.5271   14.4956 H         1 MNS862      0.0000 
     19 H          -3.5585    2.1007   12.8341 H         1 MNS862      0.0000 
     20 H          -3.9600    4.4618   13.0758 H         1 MNS862      0.0000 
     21 H          -6.2023    7.1980   16.3366 H         1 MNS862      0.0000 
     22 H          -7.0099    5.5999   17.9748 H         1 MNS862      0.0000 
     23 H          -6.5785    3.2273   17.6845 H         1 MNS862      0.0000 
     24 H          -5.2598    7.7668   14.5443 H         1 MNS862      0.0000 
     25 H          -4.6129   -0.8021   16.8810 H         1 MNS862      0.0000 
     26 H          -3.1161    6.0374   13.7755 H         1 MNS862      0.0000 
     27 H          -3.2300    7.6285   13.5719 H         1 MNS862      0.0000 
     28 H          -3.2734    7.0023   15.0524 H         1 MNS862      0.0000 
     29 H          -5.1600    7.2614   12.1960 H         1 MNS862      0.0000 
     30 H          -5.3747    5.7012   12.5214 H         1 MNS862      0.0000 
     31 H          -6.4464    6.7847   13.0350 H         1 MNS862      0.0000 
@<TRIPOS>BOND
     1    2    1 ar   
     2   10    1 ar   
     3   14    1 1    
     4    3    2 ar   
     5   18    2 1    
     6    4    3 ar   
     7   19    3 1    
     8    5    4 ar   
     9   20    4 1    
    10    6    5 ar   
    11   10    5 ar   
    12    7    6 ar   
    13   11    6 1    
    14    8    7 ar   
    15   21    7 1    
    16    9    8 ar   
    17   22    8 1    
    18   10    9 ar   
    19   23    9 1    
    20   12   11 1    
    21   13   11 1    
    22   24   11 1    
    23   26   12 1    
    24   27   12 1    
    25   28   12 1    
    26   29   13 1    
    27   30   13 1    
    28   31   13 1    
    29   15   14 2    
    30   16   14 2    
    31   17   14 1    
    32   25   17 1    
@<TRIPOS>SUBSTRUCTURE
     1 MNS862      1 GROUP   
@<TRIPOS>SET

