#    Name: 2cek_N8T_1_INTS_M
#    Modification time : Mon Mar 24 23:36:24 2014

@<TRIPOS>MOLECULE
2cek_N8T_1_INTS_M
   81     0     6     0     0
SMALL
NO_CHARGES


@<TRIPOS>ATOM
      1 CA          5.6610   71.1870   65.5990 C.3       2 GLC5        0.0000 
      2 CA          6.9770   69.9410   66.9150 C.3       6 GLL5        0.0000 
      3 CA          4.3450   72.4330   64.2830 C.3       4 GLP5        0.0000 
      4 CA          7.6380   71.5805   66.3190 C.3       2 GLC5        0.0000 
      5 CA          8.2990   73.2200   65.7230 C.3       4 GLP5        0.0000 
      6 O           7.5290   69.4455   64.4205 O.2       1 ALC1        0.0000 
      7 O           6.1030   69.1810   64.7820 O.2       5 ALL1        0.0000 
      8 O           8.9550   69.7100   64.0590 O.2       3 ALP1        0.0000 
      9 CA          7.1575   69.5330   62.0020 C.3       2 GLC5        0.0000 
     10 CA          5.5120   68.5550   62.5810 C.3       6 GLL5        0.0000 
     11 CA          8.8030   70.5110   61.4230 C.3       4 GLP5        0.0000 
     12 CA          4.9360   65.8925   67.8125 C.3       2 GLC5        0.0000 
     13 CA          2.8000   66.2550   67.7340 C.3       6 GLL5        0.0000 
     14 CA          7.0720   65.5300   67.8910 C.3       4 GLP5        0.0000 
     15 CA          2.5045   66.5200   70.9745 C.3       2 GLC5        0.0000 
     16 CA          2.5690   65.6000   69.0990 C.3       6 GLL5        0.0000 
     17 CA          2.4400   67.4400   72.8500 C.3       4 GLP5        0.0000 
     18 CA          5.0665   64.3860   68.0485 C.3       2 GLC5        0.0000 
     19 CA          3.3270   64.2690   69.1070 C.3       6 GLL5        0.0000 
     20 CA          6.8060   64.5030   66.9900 C.3       4 GLP5        0.0000 
     21 CA          4.2915   62.4760   68.6320 C.3       2 GLC5        0.0000 
     22 CA          5.2560   60.6830   68.1570 C.3       4 GLP5        0.0000 
     23 CA          3.7915   65.0600   71.1390 C.3       2 GLC5        0.0000 
     24 CA          4.2560   65.8510   73.1710 C.3       4 GLP5        0.0000 
     25 CA          3.9745   63.9430   71.9655 C.3       2 GLC5        0.0000 
     26 CA          3.2040   63.4110   70.3700 C.3       6 GLL5        0.0000 
     27 CA          4.7450   64.4750   73.5610 C.3       4 GLP5        0.0000 
     28 CA          1.8325   64.7525   72.1300 C.3       2 GLC5        0.0000 
     29 CA          0.7630   63.3230   71.0100 C.3       6 GLL5        0.0000 
     30 CA          2.9020   66.1820   73.2500 C.3       4 GLP5        0.0000 
     31 CA         -2.1295   63.4125   71.1245 C.3       2 GLC5        0.0000 
     32 CA         -0.5270   62.5010   71.0260 C.3       6 GLL5        0.0000 
     33 CA         -3.7320   64.3240   71.2230 C.3       4 GLP5        0.0000 
     34 CA         -0.8630   59.1410   71.8120 C.3       2 GLC5        0.0000 
     35 CA         -0.4240   60.9470   71.9890 C.3       6 GLL5        0.0000 
     36 CA         -1.3020   57.3350   71.6350 C.3       4 GLP5        0.0000 
     37 CA         -1.6055   58.6200   73.0330 C.3       2 GLC5        0.0000 
     38 CA         -1.9090   59.9050   74.4310 C.3       6 GLL5        0.0000 
     39 CA         -2.9535   60.5485   66.1980 C.3       2 GLC5        0.0000 
     40 CA         -2.9200   60.7860   68.3920 C.3       6 GLL5        0.0000 
     41 CA         -2.9870   60.3110   64.0040 C.3       4 GLP5        0.0000 
     42 CA         -5.3475   58.6660   67.6610 C.3       2 GLC5        0.0000 
     43 CA         -4.2620   60.4290   68.4000 C.3       6 GLL5        0.0000 
     44 CA         -6.4330   56.9030   66.9220 C.3       4 GLP5        0.0000 
     45 CA         -6.1915   58.5290   68.8050 C.3       2 GLC5        0.0000 
     46 CA         -4.8890   60.0970   69.5980 C.3       6 GLL5        0.0000 
     47 CA         -7.4940   56.9610   68.0120 C.3       4 GLP5        0.0000 
     48 CA          7.7345   68.5312   68.3445 C.3       2 GLC5        0.0000 
     49 CA          6.6830   69.9000   68.4150 C.3       6 GLL5        0.0000 
     50 CA          8.6390   67.1420   69.0240 C.3       4 GLP5        0.0000 
     51 CA          8.7075   70.2497   67.3155 C.3       2 GLC5        0.0000 
     52 CA         10.5850   70.5790   66.9660 C.3       4 GLP5        0.0000 
     53 CA          5.8475   71.4892   69.6968 C.3       2 GLC5        0.0000 
     54 CA          5.7350   72.8700   70.8410 C.3       4 GLP5        0.0000 
     55 CA          3.9022   70.9735   67.2335 C.3       2 GLC5        0.0000 
     56 CA          5.2370   70.3170   68.6900 C.3       6 GLL5        0.0000 
     57 CA          3.0450   72.1450   66.0800 C.3       4 GLP5        0.0000 
     58 CA          4.7252   68.9365   70.3390 C.3       2 GLC5        0.0000 
     59 CA          4.2820   69.2870   68.0840 C.3       6 GLL5        0.0000 
     60 CA          4.6910   68.0710   72.2910 C.3       4 GLP5        0.0000 
     61 CA          6.8158   67.1810   63.2548 C.3       2 GLC5        0.0000 
     62 CA          5.1750   68.7590   63.9160 C.3       6 GLL5        0.0000 
     63 CA          8.2880   65.7050   63.2610 C.3       4 GLP5        0.0000 
     64 CA          2.0213   66.4015   62.0862 C.3       2 GLC5        0.0000 
     65 CA          3.2680   67.7960   62.1420 C.3       6 GLL5        0.0000 
     66 CA          0.9420   64.9030   61.3630 C.3       4 GLP5        0.0000 
     67 CA          2.1524   69.9288   64.9325 C.3       2 GLC5        0.0000 
     68 CA          2.9330   68.0040   63.4770 C.3       6 GLL5        0.0000 
     69 CA          0.8040   71.4280   65.0460 C.3       4 GLP5        0.0000 
     70 CA          3.5783   61.5147   69.7953 C.3       2 GLC5        0.0000 
     71 CA          4.5860   60.0480   69.2030 C.3       4 GLP5        0.0000 
     72 CA         -4.0823   57.8188   73.2570 C.3       2 GLC5        0.0000 
     73 CA         -4.8760   59.3260   74.3340 C.3       6 GLL5        0.0000 
     74 CA         -3.7600   56.5940   71.6480 C.3       4 GLP5        0.0000 
     75 CA         -3.5030   58.2952   72.2368 C.3       2 GLC5        0.0000 
     76 CA         -4.0770   59.7300   73.0940 C.3       6 GLL5        0.0000 
     77 CA         -5.2230   61.7308   69.2163 C.3       2 GLC5        0.0000 
     78 CA         -4.1630   60.1220   70.7830 C.3       6 GLL5        0.0000 
     79 CA         -5.9200   63.3520   68.2420 C.3       4 GLP5        0.0000 
     80 CA         -4.7555   61.9798   68.3190 C.3       2 GLC5        0.0000 
     81 CA         -3.9755   58.3965   70.9184 C.3       2 GLC5        0.0000 
@<TRIPOS>BOND
@<TRIPOS>SUBSTRUCTURE
     1 ALC1        6 GROUP        1 X    ALC  0     ROOT ALC X 1
     2 GLC5        1 GROUP        1 X    GLC  0     **** GLC X 6
     3 ALP1        8 GROUP        1 Y    ALP  0     ROOT ALP Y 8
     4 GLP5        3 GROUP        1 Y    GLP  0     **** GLP Y 13
     5 ALL1        7 GROUP        1 Z    ALL  0     ROOT ALL Z 15
     6 GLL5        2 GROUP        1 Z    GLL  0     **** GLL Z 20
@<TRIPOS>SET

