#    Name: 2cek_N8T_1_ligand
#    Modification time : Mon Mar 24 23:36:24 2014

@<TRIPOS>MOLECULE
2cek_N8T_1_ligand
   79    84     1     0     0
SMALL
NO_CHARGES


@<TRIPOS>ATOM
      1 CBD         6.9770   69.9410   66.9150 C.3       1 N8T600      0.0000 
      2 CBE         6.6830   69.9000   68.4150 C.3       1 N8T600      0.0000 
      3 CAQ         5.2370   70.3170   68.6900 C.3       1 N8T600      0.0000 
      4 CAP         4.2820   69.2870   68.0840 C.3       1 N8T600      0.0000 
      5 CAO         4.5710   69.0630   66.5980 C.ar      1 N8T600      0.0000 
      6 CBC         5.8370   69.3450   66.0860 C.ar      1 N8T600      0.0000 
      7 NBB         6.1030   69.1810   64.7820 N.pl3     1 N8T600      0.0000 
      8 CBA         5.1750   68.7590   63.9160 C.ar      1 N8T600      0.0000 
      9 CAZ         5.5120   68.5550   62.5810 C.ar      1 N8T600      0.0000 
     10 CAY         4.5560   68.0710   61.6960 C.ar      1 N8T600      0.0000 
     11 CAK         3.2680   67.7960   62.1420 C.ar      1 N8T600      0.0000 
     12 CAL         2.9330   68.0040   63.4770 C.ar      1 N8T600      0.0000 
     13 CAM         3.8900   68.4800   64.3630 C.ar      1 N8T600      0.0000 
     14 CAN         3.5900   68.6170   65.7180 C.ar      1 N8T600      0.0000 
     15 NAA         2.4840   67.9910   66.1190 N.3       1 N8T600      0.0000 
     16 CAB         2.1860   67.6400   67.5150 C.3       1 N8T600      0.0000 
     17 CAC         2.8000   66.2550   67.7340 C.3       1 N8T600      0.0000 
     18 CAD         2.5690   65.6000   69.0990 C.3       1 N8T600      0.0000 
     19 CAE         3.3270   64.2690   69.1070 C.3       1 N8T600      0.0000 
     20 CAF         3.2040   63.4110   70.3700 C.3       1 N8T600      0.0000 
     21 CAG         1.9370   62.5520   70.4050 C.3       1 N8T600      0.0000 
     22 CAH         0.7630   63.3230   71.0100 C.3       1 N8T600      0.0000 
     23 CAI        -0.5270   62.5010   71.0260 C.3       1 N8T600      0.0000 
     24 SAJ        -0.4240   60.9470   71.9890 S.3       1 N8T600      0.0000 
     25 CAU        -2.1050   60.4590   71.9660 C.ar      1 N8T600      0.0000 
     26 CAV        -2.7250   60.0670   73.1480 C.ar      1 N8T600      0.0000 
     27 CAW        -1.9090   59.9050   74.4310 C.3       1 N8T600      0.0000 
     28 CAX        -2.8060   59.7590   75.6640 C.3       1 N8T600      0.0000 
     29 CBL        -3.9330   58.7610   75.3980 C.3       1 N8T600      0.0000 
     30 CBK        -4.8760   59.3260   74.3340 C.3       1 N8T600      0.0000 
     31 CBJ        -4.0770   59.7300   73.0940 C.ar      1 N8T600      0.0000 
     32 NBI        -4.7490   59.7650   71.9360 N.ar      1 N8T600      0.0000 
     33 CBH        -4.1630   60.1220   70.7830 C.ar      1 N8T600      0.0000 
     34 CAT        -2.8230   60.4800   70.7760 C.ar      1 N8T600      0.0000 
     35 CAS        -2.1970   60.8130   69.5790 C.ar      1 N8T600      0.0000 
     36 CAR        -2.9200   60.7860   68.3920 C.ar      1 N8T600      0.0000 
     37 CBF        -4.2620   60.4290   68.4000 C.ar      1 N8T600      0.0000 
     38 CBG        -4.8890   60.0970   69.5980 C.ar      1 N8T600      0.0000 
     39 H           7.8957   69.3815   66.7142 H         1 N8T600      0.0000 
     40 H           7.1367   70.9793   66.6091 H         1 N8T600      0.0000 
     41 H           7.3565   70.5791   68.9318 H         1 N8T600      0.0000 
     42 H           6.8415   68.8900   68.7846 H         1 N8T600      0.0000 
     43 H           5.0513   71.2858   68.2426 H         1 N8T600      0.0000 
     44 H           5.0759   70.3704   69.7597 H         1 N8T600      0.0000 
     45 H           3.2556   69.6374   68.2005 H         1 N8T600      0.0000 
     46 H           4.3898   68.3411   68.6165 H         1 N8T600      0.0000 
     47 H           7.0787   69.3926   64.4281 H         1 N8T600      0.0000 
     48 H           6.4620   68.7613   62.2528 H         1 N8T600      0.0000 
     49 H           4.8015   67.9157   60.7086 H         1 N8T600      0.0000 
     50 H           2.5616   67.4385   61.4854 H         1 N8T600      0.0000 
     51 H           1.9798   67.8053   63.8041 H         1 N8T600      0.0000 
     52 H           1.1267   67.5777   67.6821 H         1 N8T600      0.0000 
     53 H           2.6454   68.3322   68.1960 H         1 N8T600      0.0000 
     54 H           3.8989   66.3223   67.5554 H         1 N8T600      0.0000 
     55 H           2.4169   65.5684   66.9428 H         1 N8T600      0.0000 
     56 H           1.5195   65.4162   69.2361 H         1 N8T600      0.0000 
     57 H           2.9547   66.2374   69.8730 H         1 N8T600      0.0000 
     58 H           4.4066   64.4752   68.9228 H         1 N8T600      0.0000 
     59 H           2.9897   63.6641   68.2338 H         1 N8T600      0.0000 
     60 H           3.2136   64.0694   71.2509 H         1 N8T600      0.0000 
     61 H           4.0830   62.7541   70.4420 H         1 N8T600      0.0000 
     62 H           2.1260   61.6596   71.0012 H         1 N8T600      0.0000 
     63 H           1.6823   62.2484   69.3899 H         1 N8T600      0.0000 
     64 H           0.5978   64.2371   70.4301 H         1 N8T600      0.0000 
     65 H           1.0152   63.6132   72.0353 H         1 N8T600      0.0000 
     66 H          -0.8207   62.1397   70.0521 H         1 N8T600      0.0000 
     67 H          -1.3536   63.0042   71.5042 H         1 N8T600      0.0000 
     68 H          -1.2646   60.7782   74.5594 H         1 N8T600      0.0000 
     69 H          -1.2748   59.0194   74.3438 H         1 N8T600      0.0000 
     70 H          -3.2343   60.7278   75.9114 H         1 N8T600      0.0000 
     71 H          -2.2072   59.4104   76.5026 H         1 N8T600      0.0000 
     72 H          -4.4859   58.5904   76.3134 H         1 N8T600      0.0000 
     73 H          -3.5114   57.8281   75.0449 H         1 N8T600      0.0000 
     74 H          -5.3860   60.1960   74.7319 H         1 N8T600      0.0000 
     75 H          -5.6040   58.5702   74.0617 H         1 N8T600      0.0000 
     76 H          -1.2053   61.0775   69.5729 H         1 N8T600      0.0000 
     77 H          -2.4586   61.0315   67.5046 H         1 N8T600      0.0000 
     78 H          -4.7952   60.4093   67.5202 H         1 N8T600      0.0000 
     79 H          -5.8805   59.8358   69.6049 H         1 N8T600      0.0000 
@<TRIPOS>BOND
     1    2    1 1    
     2    6    1 1    
     3   39    1 1    
     4   40    1 1    
     5    3    2 1    
     6   41    2 1    
     7   42    2 1    
     8    4    3 1    
     9   43    3 1    
    10   44    3 1    
    11    5    4 1    
    12   45    4 1    
    13   46    4 1    
    14    6    5 ar   
    15   14    5 ar   
    16    7    6 ar   
    17    8    7 ar   
    18   47    7 1    
    19    9    8 ar   
    20   13    8 ar   
    21   10    9 ar   
    22   48    9 1    
    23   11   10 ar   
    24   49   10 1    
    25   12   11 ar   
    26   50   11 1    
    27   13   12 ar   
    28   51   12 1    
    29   14   13 ar   
    30   15   14 1    
    31   16   15 1    
    32   17   16 1    
    33   52   16 1    
    34   53   16 1    
    35   18   17 1    
    36   54   17 1    
    37   55   17 1    
    38   19   18 1    
    39   56   18 1    
    40   57   18 1    
    41   20   19 1    
    42   58   19 1    
    43   59   19 1    
    44   21   20 1    
    45   60   20 1    
    46   61   20 1    
    47   22   21 1    
    48   62   21 1    
    49   63   21 1    
    50   23   22 1    
    51   64   22 1    
    52   65   22 1    
    53   24   23 1    
    54   66   23 1    
    55   67   23 1    
    56   25   24 1    
    57   26   25 ar   
    58   34   25 ar   
    59   27   26 1    
    60   31   26 ar   
    61   28   27 1    
    62   68   27 1    
    63   69   27 1    
    64   29   28 1    
    65   70   28 1    
    66   71   28 1    
    67   30   29 1    
    68   72   29 1    
    69   73   29 1    
    70   31   30 1    
    71   74   30 1    
    72   75   30 1    
    73   32   31 ar   
    74   33   32 ar   
    75   34   33 ar   
    76   38   33 ar   
    77   35   34 ar   
    78   36   35 ar   
    79   76   35 1    
    80   37   36 ar   
    81   77   36 1    
    82   38   37 ar   
    83   78   37 1    
    84   79   38 1    
@<TRIPOS>SUBSTRUCTURE
     1 N8T600      1 GROUP   
@<TRIPOS>SET

