#    Name: 1me6_IVS_1_INTS_M
#    Modification time : Tue Mar 25 11:44:33 2014

@<TRIPOS>MOLECULE
1me6_IVS_1_INTS_M
   78     0     9     0     0
SMALL
NO_CHARGES


@<TRIPOS>ATOM
      1 CA         55.5440   64.5455   23.2645 C.3       3 GLC5        0.0000 
      2 CA         54.2730   65.5340   24.3030 C.3       9 GLL5        0.0000 
      3 CA         56.8150   63.5570   22.2260 C.3       6 GLP5        0.0000 
      4 N          51.5280   60.1230   24.6505 N.am      2 SEC2        0.0000 
      5 N          52.5490   60.4830   23.8830 N.am      8 SEL2        0.0000 
      6 N          50.5070   59.7630   25.4180 N.am      5 SEP2        0.0000 
      7 O          51.9535   60.1675   22.7155 O.2       1 ALC1        0.0000 
      8 O          52.5490   60.4830   23.8830 O.2       7 ALL1        0.0000 
      9 O          51.3580   59.8520   21.5480 O.2       4 ALP1        0.0000 
     10 O          52.6655   60.9550   22.4310 O.2       1 ALC1        0.0000 
     11 O          52.7820   61.4270   20.9790 O.2       4 ALP1        0.0000 
     12 N          58.0865   59.1540   26.4060 N.am      2 SEC2        0.0000 
     13 N          56.8040   59.9180   26.3460 N.am      8 SEL2        0.0000 
     14 N          59.3690   58.3900   26.4660 N.am      5 SEP2        0.0000 
     15 CA         53.9035   56.8135   27.7055 C.3       3 GLC5        0.0000 
     16 CA         55.6380   57.9670   27.1900 C.3       9 GLL5        0.0000 
     17 CA         52.1690   55.6600   28.2210 C.3       6 GLP5        0.0000 
     18 O          58.0025   57.6920   26.5840 O.2       1 ALC1        0.0000 
     19 O          56.6360   56.9940   26.7020 O.2       7 ALL1        0.0000 
     20 O          59.3690   58.3900   26.4660 O.2       4 ALP1        0.0000 
     21 N          54.1305   54.3065   26.0685 N.am      2 SEC2        0.0000 
     22 N          55.1640   55.2720   26.4220 N.am      8 SEL2        0.0000 
     23 N          53.0970   53.3410   25.7150 N.am      5 SEP2        0.0000 
     24 O          56.3205   52.6525   26.5775 O.2       1 ALC1        0.0000 
     25 O          57.3190   53.6780   26.7020 O.2       7 ALL1        0.0000 
     26 O          55.3220   51.6270   26.4530 O.2       4 ALP1        0.0000 
     27 CA         54.9180   52.6405   30.2120 C.3       3 GLC5        0.0000 
     28 CA         56.5360   53.4220   30.0000 C.3       9 GLL5        0.0000 
     29 CA         53.3000   51.8590   30.4240 C.3       6 GLP5        0.0000 
     30 CA         54.7660   67.4660   21.8455 C.3       3 GLC5        0.0000 
     31 CA         53.6080   66.5310   23.3480 C.3       9 GLL5        0.0000 
     32 CA         55.9240   68.4010   20.3430 C.3       6 GLP5        0.0000 
     33 CA         54.9615   65.1920   22.1545 C.3       3 GLC5        0.0000 
     34 CA         56.3150   63.8530   20.9610 C.3       6 GLP5        0.0000 
     35 CA         51.7375   67.4360   23.8785 C.3       3 GLC5        0.0000 
     36 CA         49.8670   68.3410   24.4090 C.3       6 GLP5        0.0000 
     37 CA         58.2495   61.4590   23.5675 C.3       3 GLC5        0.0000 
     38 CA         57.7680   59.6170   23.2790 C.3       9 GLL5        0.0000 
     39 CA         58.7310   63.3010   23.8560 C.3       6 GLP5        0.0000 
     40 CA         59.0665   59.3295   24.4880 C.3       3 GLC5        0.0000 
     41 CA         60.3650   59.0420   25.6970 C.3       6 GLP5        0.0000 
     42 CA         59.7210   59.6670   22.3980 C.3       3 GLC5        0.0000 
     43 CA         61.6740   59.7170   21.5170 C.3       6 GLP5        0.0000 
     44 CA         56.6760   57.3525   19.8130 C.3       3 GLC5        0.0000 
     45 CA         56.7070   59.0110   21.1480 C.3       9 GLL5        0.0000 
     46 CA         56.6450   55.6940   18.4780 C.3       6 GLP5        0.0000 
     47 CA         58.8780   59.2010   20.7310 C.3       3 GLC5        0.0000 
     48 CA         61.0490   59.3910   20.3140 C.3       6 GLP5        0.0000 
     49 CA         56.9425   59.8565   29.4635 C.3       3 GLC5        0.0000 
     50 CA         55.8760   58.3690   28.7010 C.3       9 GLL5        0.0000 
     51 CA         58.0090   61.3440   30.2260 C.3       6 GLP5        0.0000 
     52 CA         56.2230   60.6690   29.0230 C.3       3 GLC5        0.0000 
     53 CA         54.8330   59.3860   29.1560 C.3       9 GLL5        0.0000 
     54 CA         57.6130   61.9520   28.8900 C.3       6 GLP5        0.0000 
     55 CA         54.4165   59.6610   31.1205 C.3       3 GLC5        0.0000 
     56 CA         54.0000   59.9360   33.0850 C.3       6 GLP5        0.0000 
     57 CA         52.8995   59.5570   29.8520 C.3       3 GLC5        0.0000 
     58 CA         50.9660   59.7280   30.5480 C.3       6 GLP5        0.0000 
     59 CA         53.9605   56.4025   28.9195 C.3       3 GLC5        0.0000 
     60 CA         55.7520   57.1450   29.6180 C.3       9 GLL5        0.0000 
     61 CA         55.9645   54.7695   22.6965 C.3       3 GLC5        0.0000 
     62 CA         57.4420   55.8600   23.5360 C.3       9 GLL5        0.0000 
     63 CA         54.4870   53.6790   21.8570 C.3       6 GLP5        0.0000 
     64 CA         55.4300   51.4995   30.5025 C.3       3 GLC5        0.0000 
     65 CA         57.5600   51.1400   30.5810 C.3       9 GLL5        0.0000 
     66 CA         53.2258   65.2837   22.1462 C.3       3 GLC5        0.0000 
     67 CA         52.5110   64.5350   20.4670 C.3       6 GLP5        0.0000 
     68 CA         55.5830   62.1878   23.2462 C.3       3 GLC5        0.0000 
     69 CA         53.7230   61.2950   24.2090 C.3       9 GLL5        0.0000 
     70 CA         56.3550   61.6243   22.4650 C.3       3 GLC5        0.0000 
     71 CA         56.5620   59.8610   22.3660 C.3       9 GLL5        0.0000 
     72 CA         57.0842   60.0810   20.1005 C.3       3 GLC5        0.0000 
     73 CA         57.5340   60.7260   18.4440 C.3       6 GLP5        0.0000 
     74 CA         56.8518   53.3197   22.9422 C.3       3 GLC5        0.0000 
     75 CA         57.3270   54.5790   24.3300 C.3       9 GLL5        0.0000 
     76 CA         55.8160   52.5020   21.7790 C.3       6 GLP5        0.0000 
     77 CA         56.8771   52.7120   32.0039 C.3       3 GLC5        0.0000 
     78 CA         56.4030   53.3730   33.7440 C.3       6 GLP5        0.0000 
@<TRIPOS>BOND
@<TRIPOS>SUBSTRUCTURE
     1 ALC1        7 GROUP        1 X    ALC  0     ROOT ALC X 1
     2 SEC2        4 GROUP        1 X    SEC  0     **** SEC X 2
     3 GLC5        1 GROUP        1 X    GLC  0     **** GLC X 6
     4 ALP1        9 GROUP        1 Y    ALP  0     ROOT ALP Y 8
     5 SEP2        6 GROUP        1 Y    SEP  0     **** SEP Y 9
     6 GLP5        3 GROUP        1 Y    GLP  0     **** GLP Y 13
     7 ALL1        8 GROUP        1 Z    ALL  0     ROOT ALL Z 15
     8 SEL2        5 GROUP        1 Z    SEL  0     **** SEL Z 16
     9 GLL5        2 GROUP        1 Z    GLL  0     **** GLL Z 20
@<TRIPOS>SET

