#    Name: 1me6_IVS_1_ligand
#    Modification time : Tue Mar 25 11:44:33 2014

@<TRIPOS>MOLECULE
1me6_IVS_1_ligand
   81    80     1     0     0
SMALL
NO_CHARGES


@<TRIPOS>ATOM
      1 C57        54.2730   65.5340   24.3030 C.3       1 IVS347      0.0000 
      2 O56        53.4420   64.3420   24.4600 O.3       1 IVS347      0.0000 
      3 C53        53.8000   63.5170   25.4770 C.2       1 IVS347      0.0000 
      4 O75        54.7040   63.8940   26.2550 O.2       1 IVS347      0.0000 
      5 C52        53.4560   62.0860   25.5210 C.3       1 IVS347      0.0000 
      6 C51        53.7230   61.2950   24.2090 C.3       1 IVS347      0.0000 
      7 O72        52.5490   60.4830   23.8830 O.3       1 IVS347      0.0000 
      8 C23        54.9790   60.3420   24.3240 C.3       1 IVS347      0.0000 
      9 C58        55.2280   59.5220   23.0420 C.3       1 IVS347      0.0000 
     10 N22        54.8040   59.4120   25.4550 N.am      1 IVS347      0.0000 
     11 C21        55.7930   59.1970   26.2770 C.2       1 IVS347      0.0000 
     12 O19        56.8040   59.9180   26.3460 O.2       1 IVS347      0.0000 
     13 C20        55.6380   57.9670   27.1900 C.3       1 IVS347      0.0000 
     14 N19        56.6360   56.9940   26.7020 N.am      1 IVS347      0.0000 
     15 C18        56.2980   55.7420   26.3490 C.2       1 IVS347      0.0000 
     16 O36        55.1640   55.2720   26.4220 O.2       1 IVS347      0.0000 
     17 C17        57.4480   54.8670   25.8580 C.3       1 IVS347      0.0000 
     18 N16        57.3190   53.6780   26.7020 N.am      1 IVS347      0.0000 
     19 C12        58.3320   53.4330   27.5890 C.2       1 IVS347      0.0000 
     20 O15        59.3500   54.1360   27.7260 O.2       1 IVS347      0.0000 
     21 C10        58.1040   52.2010   28.4270 C.3       1 IVS347      0.0000 
     22 C2         57.7490   52.5020   29.8930 C.3       1 IVS347      0.0000 
     23 C6         56.5360   53.4220   30.0000 C.3       1 IVS347      0.0000 
     24 C76        53.6080   66.5310   23.3480 C.3       1 IVS347      0.0000 
     25 C60        56.5620   59.8610   22.3660 C.3       1 IVS347      0.0000 
     26 C67        57.7680   59.6170   23.2790 C.3       1 IVS347      0.0000 
     27 C63        56.7070   59.0110   21.1480 C.3       1 IVS347      0.0000 
     28 C38        55.8760   58.3690   28.7010 C.3       1 IVS347      0.0000 
     29 C40        54.8330   59.3860   29.1560 C.3       1 IVS347      0.0000 
     30 C44        55.7520   57.1450   29.6180 C.3       1 IVS347      0.0000 
     31 C25        57.3270   54.5790   24.3300 C.3       1 IVS347      0.0000 
     32 C27        57.4420   55.8600   23.5360 C.3       1 IVS347      0.0000 
     33 C31        58.4480   53.6960   23.8810 C.3       1 IVS347      0.0000 
     34 C1         57.5600   51.1400   30.5810 C.3       1 IVS347      0.0000 
     35 H          55.2554   65.2754   23.8950 H         1 IVS347      0.0000 
     36 H          54.4259   66.0342   25.2648 H         1 IVS347      0.0000 
     37 H          52.3808   61.9523   25.7729 H         1 IVS347      0.0000 
     38 H          54.0191   61.5757   26.3333 H         1 IVS347      0.0000 
     39 H          53.9214   61.9990   23.4191 H         1 IVS347      0.0000 
     40 H          55.8461   60.9682   24.5006 H         1 IVS347      0.0000 
     41 H          54.4103   59.7109   22.3377 H         1 IVS347      0.0000 
     42 H          55.2148   58.4564   23.2964 H         1 IVS347      0.0000 
     43 H          53.8752   58.9721   25.5293 H         1 IVS347      0.0000 
     44 H          54.6518   57.5896   27.0814 H         1 IVS347      0.0000 
     45 H          57.6126   57.3416   26.6504 H         1 IVS347      0.0000 
     46 H          58.3594   55.3773   26.0633 H         1 IVS347      0.0000 
     47 H          56.5102   53.0998   26.6007 H         1 IVS347      0.0000 
     48 H          59.0092   51.5706   28.4111 H         1 IVS347      0.0000 
     49 H          57.2886   51.6013   27.9882 H         1 IVS347      0.0000 
     50 H          58.6137   52.9832   30.3404 H         1 IVS347      0.0000 
     51 H          56.5503   60.8963   22.0718 H         1 IVS347      0.0000 
     52 H          56.8478   58.7865   28.7969 H         1 IVS347      0.0000 
     53 H          56.3943   54.1160   24.1335 H         1 IVS347      0.0000 
     54 H          56.3027   53.6197   30.9521 H         1 IVS347      0.0000 
     55 H          56.6949   54.3001   29.5487 H         1 IVS347      0.0000 
     56 H          55.7249   53.0178   29.5773 H         1 IVS347      0.0000 
     57 H          54.1596   67.3567   23.2300 H         1 IVS347      0.0000 
     58 H          53.4696   66.1385   22.4387 H         1 IVS347      0.0000 
     59 H          52.7113   66.8227   23.6810 H         1 IVS347      0.0000 
     60 H          58.6296   59.8432   22.8246 H         1 IVS347      0.0000 
     61 H          57.7216   60.1696   24.1112 H         1 IVS347      0.0000 
     62 H          57.8297   58.6608   23.5652 H         1 IVS347      0.0000 
     63 H          57.5666   59.1908   20.6698 H         1 IVS347      0.0000 
     64 H          56.6943   58.0364   21.3716 H         1 IVS347      0.0000 
     65 H          55.9683   59.1711   20.4933 H         1 IVS347      0.0000 
     66 H          54.9675   59.6545   30.1098 H         1 IVS347      0.0000 
     67 H          54.8662   60.2222   28.6086 H         1 IVS347      0.0000 
     68 H          53.9039   59.0237   29.0817 H         1 IVS347      0.0000 
     69 H          56.4173   56.4362   29.3833 H         1 IVS347      0.0000 
     70 H          55.9033   57.3829   30.5774 H         1 IVS347      0.0000 
     71 H          54.8454   56.7271   29.5591 H         1 IVS347      0.0000 
     72 H          58.3190   56.3150   23.6902 H         1 IVS347      0.0000 
     73 H          57.3660   55.6955   22.5526 H         1 IVS347      0.0000 
     74 H          56.7257   56.5138   23.7800 H         1 IVS347      0.0000 
     75 H          59.3403   54.1175   24.0425 H         1 IVS347      0.0000 
     76 H          58.4463   52.8197   24.3628 H         1 IVS347      0.0000 
     77 H          58.3923   53.4931   22.9034 H         1 IVS347      0.0000 
     78 H          58.3888   50.5823   30.5347 H         1 IVS347      0.0000 
     79 H          57.3288   51.2416   31.5486 H         1 IVS347      0.0000 
     80 H          56.8255   50.6091   30.1583 H         1 IVS347      0.0000 
     81 H          52.3616   60.6742   22.9195 H         1 IVS347      0.0000 
@<TRIPOS>BOND
     1    2    1 1    
     2   24    1 1    
     3   35    1 1    
     4   36    1 1    
     5    3    2 1    
     6    4    3 2    
     7    5    3 1    
     8    6    5 1    
     9   37    5 1    
    10   38    5 1    
    11    7    6 1    
    12    8    6 1    
    13   39    6 1    
    14   81    7 1    
    15    9    8 1    
    16   10    8 1    
    17   40    8 1    
    18   25    9 1    
    19   41    9 1    
    20   42    9 1    
    21   11   10 am   
    22   43   10 1    
    23   12   11 2    
    24   13   11 1    
    25   14   13 1    
    26   28   13 1    
    27   44   13 1    
    28   15   14 am   
    29   45   14 1    
    30   16   15 2    
    31   17   15 1    
    32   18   17 1    
    33   31   17 1    
    34   46   17 1    
    35   19   18 am   
    36   47   18 1    
    37   20   19 2    
    38   21   19 1    
    39   22   21 1    
    40   48   21 1    
    41   49   21 1    
    42   23   22 1    
    43   34   22 1    
    44   50   22 1    
    45   54   23 1    
    46   55   23 1    
    47   56   23 1    
    48   57   24 1    
    49   58   24 1    
    50   59   24 1    
    51   26   25 1    
    52   27   25 1    
    53   51   25 1    
    54   60   26 1    
    55   61   26 1    
    56   62   26 1    
    57   63   27 1    
    58   64   27 1    
    59   65   27 1    
    60   29   28 1    
    61   30   28 1    
    62   52   28 1    
    63   66   29 1    
    64   67   29 1    
    65   68   29 1    
    66   69   30 1    
    67   70   30 1    
    68   71   30 1    
    69   32   31 1    
    70   33   31 1    
    71   53   31 1    
    72   72   32 1    
    73   73   32 1    
    74   74   32 1    
    75   75   33 1    
    76   76   33 1    
    77   77   33 1    
    78   78   34 1    
    79   79   34 1    
    80   80   34 1    
@<TRIPOS>SUBSTRUCTURE
     1 IVS347      1 GROUP   
@<TRIPOS>SET

