#    Name: 3U5Y_2_CAVITY_N1_6.mol2
#    Modification time : Tue Mar 11 06:17:23 2014

@<TRIPOS>MOLECULE
3U5Y_2_CAVITY_N1_6.mol2
  163     0     6     0     0
SMALL
NO_CHARGES


@<TRIPOS>ATOM
      1 CA         73.5783   24.7938   25.0831 C.3       5 GLY6        0.0000 
      2 N          65.7253   28.9260   22.9604 N.2       2 ALA2        0.0000 
      3 CZ         66.9258   28.0545   23.1825 C.ar      4 PHE5        0.0000 
      4 CZ         68.1262   27.1830   23.4047 C.ar      4 PHE5        0.0000 
      5 CZ         70.5271   25.4399   23.8491 C.ar      4 PHE5        0.0000 
      6 CZ         71.7275   24.5683   24.0712 C.ar      4 PHE5        0.0000 
      7 CZ         72.9280   23.6968   24.2934 C.ar      4 PHE5        0.0000 
      8 OG         65.0750   27.8290   22.1706 O.2       1 SER1        0.0000 
      9 OG         67.4759   26.0859   22.6150 O.2       1 SER1        0.0000 
     10 CZ         68.6764   25.2144   22.8372 C.ar      4 PHE5        0.0000 
     11 DU         69.8768   24.3429   23.0593 H         6 CUB7        0.0000 
     12 DU         71.0772   23.4713   23.2815 H         6 CUB7        0.0000 
     13 DU         72.2777   22.5998   23.5037 H         6 CUB7        0.0000 
     14 N          73.4781   21.7282   23.7258 N.2       2 ALA2        0.0000 
     15 N          68.0261   24.1174   22.0474 N.2       2 ALA2        0.0000 
     16 N          69.2265   23.2458   22.2696 N.2       2 ALA2        0.0000 
     17 N          70.4270   22.3743   22.4918 N.2       2 ALA2        0.0000 
     18 CZ         71.6274   21.5028   22.7139 C.ar      4 PHE5        0.0000 
     19 CZ         72.8278   20.6312   22.9361 C.ar      4 PHE5        0.0000 
     20 N          74.0283   19.7597   23.1583 N.2       2 ALA2        0.0000 
     21 OG         66.1753   23.8919   21.0355 O.2       1 SER1        0.0000 
     22 CZ         70.9771   20.4058   21.9242 C.ar      4 PHE5        0.0000 
     23 CZ         68.8477   30.7842   23.5062 C.ar      4 PHE5        0.0000 
     24 CZ         70.0481   29.9127   23.7284 C.ar      4 PHE5        0.0000 
     25 NZ         66.9970   30.5588   22.4943 N.2       3 LYS4        0.0000 
     26 CZ         68.1974   29.6872   22.7165 C.ar      4 PHE5        0.0000 
     27 CZ         69.3979   28.8157   22.9387 C.ar      4 PHE5        0.0000 
     28 CZ         72.9992   26.2011   23.6052 C.ar      4 PHE5        0.0000 
     29 CA         74.1996   25.3295   23.8273 C.3       5 GLY6        0.0000 
     30 CA         75.4001   24.4580   24.0495 C.3       5 GLY6        0.0000 
     31 NZ         66.3467   29.4617   21.7046 N.2       3 LYS4        0.0000 
     32 OG         67.5471   28.5902   21.9268 O.2       1 SER1        0.0000 
     33 CZ         68.7476   27.7187   22.1489 C.ar      4 PHE5        0.0000 
     34 CZ         69.9480   26.8471   22.3711 C.ar      4 PHE5        0.0000 
     35 CZ         71.1484   25.9756   22.5933 C.ar      4 PHE5        0.0000 
     36 CZ         72.3489   25.1040   22.8155 C.ar      4 PHE5        0.0000 
     37 DU         73.5493   24.2325   23.0376 H         6 CUB7        0.0000 
     38 N          74.7498   23.3610   23.2598 N.2       2 ALA2        0.0000 
     39 OG         68.0973   26.6216   21.3592 O.2       1 SER1        0.0000 
     40 DU         69.2977   25.7501   21.5814 H         6 CUB7        0.0000 
     41 DU         70.4981   24.8786   21.8036 H         6 CUB7        0.0000 
     42 DU         71.6986   24.0070   22.0257 H         6 CUB7        0.0000 
     43 CZ         72.8990   23.1355   22.2479 C.ar      4 PHE5        0.0000 
     44 N          74.0995   22.2639   22.4701 N.2       2 ALA2        0.0000 
     45 CA         68.6474   24.6531   20.7917 C.3       5 GLY6        0.0000 
     46 N          69.8478   23.7815   21.0138 N.2       2 ALA2        0.0000 
     47 CZ         71.0483   22.9100   21.2360 C.ar      4 PHE5        0.0000 
     48 CZ         72.2487   22.0385   21.4582 C.ar      4 PHE5        0.0000 
     49 CZ         73.4492   21.1669   21.6803 C.ar      4 PHE5        0.0000 
     50 CA         74.6496   20.2954   21.9025 C.3       5 GLY6        0.0000 
     51 CZ         69.4690   31.3199   22.2504 C.ar      4 PHE5        0.0000 
     52 CZ         70.6695   30.4484   22.4726 C.ar      4 PHE5        0.0000 
     53 CZ         71.8699   29.5769   22.6948 C.ar      4 PHE5        0.0000 
     54 NZ         68.8187   30.2229   21.4607 N.2       3 LYS4        0.0000 
     55 DU         70.0192   29.3514   21.6829 H         6 CUB7        0.0000 
     56 CZ         71.2196   28.4798   21.9051 C.ar      4 PHE5        0.0000 
     57 CZ         73.6205   26.7368   22.3494 C.ar      4 PHE5        0.0000 
     58 CZ         74.8210   25.8652   22.5716 C.ar      4 PHE5        0.0000 
     59 N          76.0214   24.9937   22.7937 N.2       2 ALA2        0.0000 
     60 CA         66.9680   29.9974   20.4488 C.3       5 GLY6        0.0000 
     61 CA         68.1685   29.1259   20.6710 C.3       5 GLY6        0.0000 
     62 DU         69.3689   28.2544   20.8932 H         6 CUB7        0.0000 
     63 DU         70.5693   27.3828   21.1153 H         6 CUB7        0.0000 
     64 DU         71.7698   26.5113   21.3375 H         6 CUB7        0.0000 
     65 DU         72.9702   25.6397   21.5597 H         6 CUB7        0.0000 
     66 DU         74.1707   24.7682   21.7818 H         6 CUB7        0.0000 
     67 N          75.3711   23.8967   22.0040 N.2       2 ALA2        0.0000 
     68 OG         67.5182   28.0289   19.8813 O.2       1 SER1        0.0000 
     69 OG         68.7186   27.1573   20.1034 O.2       1 SER1        0.0000 
     70 CA         69.9190   26.2858   20.3256 C.3       5 GLY6        0.0000 
     71 OG         71.1195   25.4143   20.5478 O.2       1 SER1        0.0000 
     72 CZ         72.3199   24.5427   20.7699 C.ar      4 PHE5        0.0000 
     73 CZ         73.5204   23.6712   20.9921 C.ar      4 PHE5        0.0000 
     74 CA         74.7208   22.7996   21.2143 C.3       5 GLY6        0.0000 
     75 CA         75.9212   21.9281   21.4365 C.3       5 GLY6        0.0000 
     76 OG         68.0683   26.0603   19.3137 O.2       1 SER1        0.0000 
     77 CA         69.2687   25.1888   19.5359 C.3       5 GLY6        0.0000 
     78 CA         70.4692   24.3172   19.7581 C.3       5 GLY6        0.0000 
     79 CZ         71.6696   23.4457   19.9802 C.ar      4 PHE5        0.0000 
     80 CA         65.1040   28.3904   24.2161 C.3       5 GLY6        0.0000 
     81 O          66.3044   27.5188   24.4383 O.2       2 ALA2        0.0000 
     82 CZ         72.3066   23.1611   25.5492 C.ar      4 PHE5        0.0000 
     83 CA         64.4537   27.2933   23.4264 C.3       5 GLY6        0.0000 
     84 OG         65.6542   26.4218   23.6486 O.2       1 SER1        0.0000 
     85 O          66.8546   25.5503   23.8708 O.2       2 ALA2        0.0000 
     86 CZ         68.0550   24.6787   24.0929 C.ar      4 PHE5        0.0000 
     87 CZ         69.2555   23.8072   24.3151 C.ar      4 PHE5        0.0000 
     88 CZ         70.4559   22.9356   24.5373 C.ar      4 PHE5        0.0000 
     89 N          71.6564   22.0641   24.7594 N.2       2 ALA2        0.0000 
     90 N          72.8568   21.1926   24.9816 N.2       2 ALA2        0.0000 
     91 OG         63.8034   26.1963   22.6367 O.2       1 SER1        0.0000 
     92 OG         65.0039   25.3248   22.8589 O.2       1 SER1        0.0000 
     93 OG         66.2043   24.4532   23.0810 O.2       1 SER1        0.0000 
     94 DU         67.4047   23.5817   23.3032 H         6 CUB7        0.0000 
     95 N          68.6052   22.7102   23.5254 N.2       2 ALA2        0.0000 
     96 DU         69.8056   21.8386   23.7476 H         6 CUB7        0.0000 
     97 DU         71.0061   20.9671   23.9697 H         6 CUB7        0.0000 
     98 N          72.2065   20.0955   24.1919 N.2       2 ALA2        0.0000 
     99 OG         64.3536   24.2278   22.0691 O.2       1 SER1        0.0000 
    100 OG         65.5540   23.3562   22.2913 O.2       1 SER1        0.0000 
    101 N          66.7544   22.4847   22.5135 N.2       2 ALA2        0.0000 
    102 N          69.1553   20.7416   22.9578 N.2       2 ALA2        0.0000 
    103 N          70.3558   19.8701   23.1800 N.2       2 ALA2        0.0000 
    104 CZ         63.7033   23.1307   21.2794 C.ar      4 PHE5        0.0000 
    105 O          64.9037   22.2592   21.5016 O.2       2 ALA2        0.0000 
    106 CZ         68.2264   30.2485   24.7620 C.ar      4 PHE5        0.0000 
    107 NZ         66.3756   30.0231   23.7501 N.2       3 LYS4        0.0000 
    108 CZ         67.5761   29.1515   23.9723 C.ar      4 PHE5        0.0000 
    109 CZ         70.6828   31.8300   17.6934 C.ar      4 PHE5        0.0000 
    110 N          70.0325   30.7330   16.9037 N.2       2 ALA2        0.0000 
    111 O          71.2329   29.8614   17.1258 O.2       2 ALA2        0.0000 
    112 NZ         63.1821   25.6606   23.8925 N.2       3 LYS4        0.0000 
    113 DU         64.3825   24.7891   24.1146 H         6 CUB7        0.0000 
    114 DU         65.5830   23.9175   24.3368 H         6 CUB7        0.0000 
    115 DU         66.7834   23.0460   24.5590 H         6 CUB7        0.0000 
    116 DU         67.9838   22.1745   24.7812 H         6 CUB7        0.0000 
    117 CZ         62.5318   24.5636   23.1027 C.ar      4 PHE5        0.0000 
    118 DU         63.7322   23.6921   23.3249 H         6 CUB7        0.0000 
    119 DU         64.9327   22.8205   23.5471 H         6 CUB7        0.0000 
    120 CA         63.0819   22.5950   22.5352 C.3       5 GLY6        0.0000 
    121 CA         64.2824   21.7235   22.7574 C.3       5 GLY6        0.0000 
    122 CA         65.7543   29.4874   25.0059 C.3       5 GLY6        0.0000 
    123 O          66.9547   28.6158   25.2280 O.2       2 ALA2        0.0000 
    124 O          70.0904   31.8556   20.9947 O.2       2 ALA2        0.0000 
    125 OG         71.2908   30.9841   21.2168 O.2       1 SER1        0.0000 
    126 NZ         68.2396   31.6301   19.9828 N.2       3 LYS4        0.0000 
    127 NZ         69.4401   30.7586   20.2049 N.2       3 LYS4        0.0000 
    128 OG         70.6405   29.8871   20.4271 O.2       1 SER1        0.0000 
    129 CZ         71.8410   29.0155   20.6493 C.ar      4 PHE5        0.0000 
    130 CZ         75.4423   26.4009   21.3158 C.ar      4 PHE5        0.0000 
    131 O          68.7898   29.6616   19.4152 O.2       2 ALA2        0.0000 
    132 DU         69.9902   28.7900   19.6374 H         6 CUB7        0.0000 
    133 O          71.1907   27.9185   19.8596 O.2       2 ALA2        0.0000 
    134 O          72.3911   27.0470   20.0817 O.2       2 ALA2        0.0000 
    135 O          73.5915   26.1754   20.3039 O.2       2 ALA2        0.0000 
    136 N          74.7920   25.3039   20.5261 N.2       2 ALA2        0.0000 
    137 CZ         68.1395   28.5646   18.6255 C.ar      4 PHE5        0.0000 
    138 CZ         69.3399   27.6930   18.8477 C.ar      4 PHE5        0.0000 
    139 O          70.5404   26.8215   19.0698 O.2       2 ALA2        0.0000 
    140 O          71.7408   25.9500   19.2920 O.2       2 ALA2        0.0000 
    141 O          72.9413   25.0784   19.5142 O.2       2 ALA2        0.0000 
    142 CA         74.1417   24.2069   19.7363 C.3       5 GLY6        0.0000 
    143 CA         75.3421   23.3353   19.9585 C.3       5 GLY6        0.0000 
    144 O          68.8610   32.1658   18.7270 O.2       2 ALA2        0.0000 
    145 O          70.0614   31.2943   18.9492 O.2       2 ALA2        0.0000 
    146 OG         71.2619   30.4228   19.1713 O.2       1 SER1        0.0000 
    147 CZ         72.4623   29.5512   19.3935 C.ar      4 PHE5        0.0000 
    148 O          69.4111   30.1973   18.1594 O.2       2 ALA2        0.0000 
    149 O          70.6116   29.3257   18.3816 O.2       2 ALA2        0.0000 
    150 CZ         69.9613   28.2287   17.5919 C.ar      4 PHE5        0.0000 
    151 NZ         65.0618   26.4474   26.9499 N.2       3 LYS4        0.0000 
    152 NZ         64.4115   25.3504   26.1601 N.2       3 LYS4        0.0000 
    153 NZ         63.7612   24.2534   25.3704 N.2       3 LYS4        0.0000 
    154 DU         64.9616   23.3818   25.5926 H         6 CUB7        0.0000 
    155 DU         63.1109   23.1564   24.5807 H         6 CUB7        0.0000 
    156 DU         64.3113   22.2848   24.8029 H         6 CUB7        0.0000 
    157 CA         63.6610   21.1878   24.0131 C.3       5 GLY6        0.0000 
    158 O          65.6831   26.9831   25.6941 O.2       2 ALA2        0.0000 
    159 NZ         63.8324   26.7576   24.6822 N.2       3 LYS4        0.0000 
    160 NZ         65.0328   25.8861   24.9044 N.2       3 LYS4        0.0000 
    161 O          66.2333   25.0146   25.1265 O.2       2 ALA2        0.0000 
    162 CA         67.4337   24.1430   25.3487 C.3       5 GLY6        0.0000 
    163 CA         68.6341   23.2715   25.5709 C.3       5 GLY6        0.0000 
@<TRIPOS>BOND
@<TRIPOS>SUBSTRUCTURE
     1 SER1        8 GROUP   
     2 ALA2        2 GROUP   
     3 LYS4       25 GROUP   
     4 PHE5        3 GROUP   
     5 GLY6        1 GROUP   
     6 CUB7       11 GROUP   
@<TRIPOS>SET

