#    Name: 3u5y_SCG_2_INTS_M
#    Modification time : Mon Mar 24 21:41:50 2014

@<TRIPOS>MOLECULE
3u5y_SCG_2_INTS_M
   56     0     9     0     0
SMALL
NO_CHARGES


@<TRIPOS>ATOM
      1 CA         70.9530   25.6295   24.4315 C.3       3 GLC5        0.0000 
      2 CA         70.0490   24.4230   23.0240 C.3       9 GLL5        0.0000 
      3 CA         71.8570   26.8360   25.8390 C.3       6 GLP5        0.0000 
      4 CA         68.9375   26.6330   24.0070 C.3       3 GLC5        0.0000 
      5 CA         68.2060   25.4310   22.4600 C.3       9 GLL5        0.0000 
      6 CA         69.6690   27.8350   25.5540 C.3       6 GLP5        0.0000 
      7 N          72.4795   26.9320   18.7670 N.am      2 SEC2        0.0000 
      8 N          72.2950   26.8540   20.4150 N.am      8 SEL2        0.0000 
      9 N          72.6640   27.0100   17.1190 N.am      5 SEP2        0.0000 
     10 CA         73.9710   27.5985   21.7480 C.3       3 GLC5        0.0000 
     11 CA         72.9190   26.0880   21.3520 C.3       9 GLL5        0.0000 
     12 CA         75.0230   29.1090   22.1440 C.3       6 GLP5        0.0000 
     13 CA         72.0760   25.9310   23.9240 C.3       3 GLC5        0.0000 
     14 CA         72.2950   25.0260   22.0090 C.3       9 GLL5        0.0000 
     15 CA         76.6535   23.0495   22.8250 C.3       3 GLC5        0.0000 
     16 CA         75.3390   24.1020   22.2290 C.3       9 GLL5        0.0000 
     17 CA         77.9680   21.9970   23.4210 C.3       6 GLP5        0.0000 
     18 CA         72.5765   29.6090   20.4385 C.3       3 GLC5        0.0000 
     19 CA         70.6300   29.2730   19.7140 C.3       9 GLL5        0.0000 
     20 CA         74.5230   29.9450   21.1630 C.3       6 GLP5        0.0000 
     21 CA         68.6445   31.9130   23.6595 C.3       3 GLC5        0.0000 
     22 CA         68.6300   31.0910   22.2270 C.3       9 GLL5        0.0000 
     23 CA         68.6590   32.7350   25.0920 C.3       6 GLP5        0.0000 
     24 O          66.8080   31.7140   21.6890 O.2       1 ALC1        0.0000 
     25 O          67.3190   30.5500   22.0050 O.2       7 ALL1        0.0000 
     26 O          66.2970   32.8780   21.3730 O.2       4 ALP1        0.0000 
     27 CA         67.0990   30.7365   19.0305 C.3       3 GLC5        0.0000 
     28 CA         68.8310   31.5600   19.7270 C.3       9 GLL5        0.0000 
     29 CA         65.3670   29.9130   18.3340 C.3       6 GLP5        0.0000 
     30 N          67.4645   33.4585   19.0710 N.am      2 SEC2        0.0000 
     31 N          68.5790   32.9590   19.9810 N.am      8 SEL2        0.0000 
     32 N          66.3500   33.9580   18.1610 N.am      5 SEP2        0.0000 
     33 N          69.7295   33.7640   20.0380 N.am      2 SEC2        0.0000 
     34 N          70.8800   34.5690   20.0950 N.am      5 SEP2        0.0000 
     35 O          67.4380   32.9185   20.6770 O.2       1 ALC1        0.0000 
     36 O          68.5790   32.9590   19.9810 O.2       7 ALL1        0.0000 
     37 O          67.7045   33.9575   20.8580 O.2       1 ALC1        0.0000 
     38 O          66.8300   34.9560   21.7350 O.2       4 ALP1        0.0000 
     39 N          67.4250   30.9800   17.2860 N.am      2 SEC2        0.0000 
     40 N          68.7720   31.4730   17.2730 N.am      8 SEL2        0.0000 
     41 N          66.0780   30.4870   17.2990 N.am      5 SEP2        0.0000 
     42 O          68.1080   32.6790   16.7365 O.2       1 ALC1        0.0000 
     43 O          68.7720   31.4730   17.2730 O.2       7 ALL1        0.0000 
     44 O          67.4440   33.8850   16.2000 O.2       4 ALP1        0.0000 
     45 CA         69.1190   28.7560   17.1795 C.3       3 GLC5        0.0000 
     46 CA         70.3760   29.9780   18.3370 C.3       9 GLL5        0.0000 
     47 CA         67.8620   27.5340   16.0220 C.3       6 GLP5        0.0000 
     48 O          72.8040   30.8655   17.8110 O.2       1 ALC1        0.0000 
     49 O          71.5990   30.0980   17.5510 O.2       7 ALL1        0.0000 
     50 O          74.0090   31.6330   18.0710 O.2       4 ALP1        0.0000 
     51 CA         69.2732   24.9907   19.0805 C.3       3 GLC5        0.0000 
     52 CA         70.1400   25.7030   20.7960 C.3       9 GLL5        0.0000 
     53 CA         69.1370   24.1630   17.1430 C.3       6 GLP5        0.0000 
     54 CA         69.6978   33.1530   18.3915 C.3       3 GLC5        0.0000 
     55 CA         69.6480   31.3460   18.4170 C.3       9 GLL5        0.0000 
     56 CA         70.1560   34.8530   17.7110 C.3       6 GLP5        0.0000 
@<TRIPOS>BOND
@<TRIPOS>SUBSTRUCTURE
     1 ALC1       24 GROUP        1 X    ALC  0     ROOT ALC X 1
     2 SEC2        7 GROUP        1 X    SEC  0     **** SEC X 2
     3 GLC5        1 GROUP        1 X    GLC  0     **** GLC X 6
     4 ALP1       26 GROUP        1 Y    ALP  0     ROOT ALP Y 8
     5 SEP2        9 GROUP        1 Y    SEP  0     **** SEP Y 9
     6 GLP5        3 GROUP        1 Y    GLP  0     **** GLP Y 13
     7 ALL1       25 GROUP        1 Z    ALL  0     ROOT ALL Z 15
     8 SEL2        8 GROUP        1 Z    SEL  0     **** SEL Z 16
     9 GLL5        2 GROUP        1 Z    GLL  0     **** GLL Z 20
@<TRIPOS>SET

