#    Name: 3u5y_SCG_2_ligand
#    Modification time : Mon Mar 24 21:41:50 2014

@<TRIPOS>MOLECULE
3u5y_SCG_2_ligand
   49    50     1     0     0
SMALL
NO_CHARGES


@<TRIPOS>ATOM
      1 O16        69.2850   22.4110   24.1430 O.2       1 SCG1001     0.0000 
      2 C10        70.2110   22.9760   23.5520 C.2       1 SCG1001     0.0000 
      3 C9         70.0490   24.4230   23.0240 C.3       1 SCG1001     0.0000 
      4 C1         70.8260   24.6470   21.7060 C.3       1 SCG1001     0.0000 
      5 C6         70.1400   25.7030   20.7960 C.3       1 SCG1001     0.0000 
      6 C7         68.6790   25.9340   21.2400 C.2       1 SCG1001     0.0000 
      7 C8         68.2060   25.4310   22.4600 C.2       1 SCG1001     0.0000 
      8 C5         70.9200   27.0460   20.7040 C.3       1 SCG1001     0.0000 
      9 O4         72.2950   26.8540   20.4150 O.3       1 SCG1001     0.0000 
     10 C3         72.9190   26.0880   21.3520 C.2       1 SCG1001     0.0000 
     11 C2         72.2950   25.0260   22.0090 C.2       1 SCG1001     0.0000 
     12 C12        73.1160   24.2240   23.0400 C.2       1 SCG1001     0.0000 
     13 O14        74.4110   24.5910   23.3080 O.3       1 SCG1001     0.0000 
     14 C15        75.3390   24.1020   22.2290 C.3       1 SCG1001     0.0000 
     15 O13        72.6150   23.2760   23.6520 O.2       1 SCG1001     0.0000 
     16 O11        70.5350   27.8250   19.5510 O.3       1 SCG1001     0.0000 
     17 C17        70.6300   29.2730   19.7140 C.3       1 SCG1001     0.0000 
     18 O22        69.6480   29.5280   20.7390 O.3       1 SCG1001     0.0000 
     19 C21        69.4990   30.9230   20.9620 C.3       1 SCG1001     0.0000 
     20 C23        68.6300   31.0910   22.2270 C.3       1 SCG1001     0.0000 
     21 O24        67.3190   30.5500   22.0050 O.3       1 SCG1001     0.0000 
     22 C20        68.8310   31.5600   19.7270 C.3       1 SCG1001     0.0000 
     23 O25        68.5790   32.9590   19.9810 O.3       1 SCG1001     0.0000 
     24 C19        69.6480   31.3460   18.4170 C.3       1 SCG1001     0.0000 
     25 O26        68.7720   31.4730   17.2730 O.3       1 SCG1001     0.0000 
     26 C18        70.3760   29.9780   18.3370 C.3       1 SCG1001     0.0000 
     27 O27        71.5990   30.0980   17.5510 O.3       1 SCG1001     0.0000 
     28 H          71.1584   22.5959   23.3387 H         1 SCG1001     0.0000 
     29 H          70.4186   25.1177   23.7770 H         1 SCG1001     0.0000 
     30 H          68.9919   24.6202   22.8513 H         1 SCG1001     0.0000 
     31 H          70.8380   23.6957   21.1630 H         1 SCG1001     0.0000 
     32 H          70.0996   25.2770   19.7767 H         1 SCG1001     0.0000 
     33 H          68.1038   26.4628   20.5992 H         1 SCG1001     0.0000 
     34 H          70.7869   27.6057   21.5901 H         1 SCG1001     0.0000 
     35 H          73.9218   26.2955   21.6034 H         1 SCG1001     0.0000 
     36 H          71.6151   29.5184   20.0548 H         1 SCG1001     0.0000 
     37 H          70.4389   31.3984   21.1326 H         1 SCG1001     0.0000 
     38 H          68.5943   32.1609   22.4612 H         1 SCG1001     0.0000 
     39 H          69.1458   30.5830   23.0496 H         1 SCG1001     0.0000 
     40 H          67.8655   31.0372   19.5867 H         1 SCG1001     0.0000 
     41 H          70.4126   32.1268   18.3762 H         1 SCG1001     0.0000 
     42 H          69.6785   29.2954   17.7715 H         1 SCG1001     0.0000 
     43 H          76.2883   24.3580   22.4115 H         1 SCG1001     0.0000 
     44 H          75.3155   23.1061   22.1422 H         1 SCG1001     0.0000 
     45 H          75.1003   24.4799   21.3345 H         1 SCG1001     0.0000 
     46 H          66.6901   31.2904   22.2420 H         1 SCG1001     0.0000 
     47 H          67.7423   32.9759   20.5283 H         1 SCG1001     0.0000 
     48 H          68.5515   32.4471   17.2229 H         1 SCG1001     0.0000 
     49 H          72.1936   30.6969   18.0875 H         1 SCG1001     0.0000 
@<TRIPOS>BOND
     1    2    1 2    
     2    3    2 1    
     3   28    2 1    
     4    4    3 1    
     5   29    3 1    
     6   30    3 1    
     7    5    4 1    
     8   11    4 1    
     9   31    4 1    
    10    6    5 1    
    11    8    5 1    
    12   32    5 1    
    13    7    6 2    
    14   33    6 1    
    15    9    8 1    
    16   16    8 1    
    17   34    8 1    
    18   10    9 1    
    19   11   10 2    
    20   35   10 1    
    21   12   11 1    
    22   13   12 1    
    23   15   12 2    
    24   14   13 1    
    25   43   14 1    
    26   44   14 1    
    27   45   14 1    
    28   17   16 1    
    29   18   17 1    
    30   26   17 1    
    31   36   17 1    
    32   19   18 1    
    33   20   19 1    
    34   22   19 1    
    35   37   19 1    
    36   21   20 1    
    37   38   20 1    
    38   39   20 1    
    39   46   21 1    
    40   23   22 1    
    41   24   22 1    
    42   40   22 1    
    43   47   23 1    
    44   25   24 1    
    45   26   24 1    
    46   41   24 1    
    47   48   25 1    
    48   27   26 1    
    49   42   26 1    
    50   49   27 1    
@<TRIPOS>SUBSTRUCTURE
     1 SCG1001     1 GROUP   
@<TRIPOS>SET

