#    Name: 3cwq_ADP_1_INTS_M
#    Modification time : Mon Mar 24 22:25:26 2014

@<TRIPOS>MOLECULE
3cwq_ADP_1_INTS_M
   47     0    12     0     0
SMALL
NO_CHARGES


@<TRIPOS>ATOM
      1 NZ         65.0095   29.4675   72.9785 N.4       3 LYC4        0.0000 
      2 NZ         64.0880   28.2900   73.8490 N.4      11 LYL4        0.0000 
      3 NZ         65.9310   30.6450   72.1080 N.4       7 LYP4        0.0000 
      4 N          65.1900   27.8475   73.6570 N.am      2 SEC2        0.0000 
      5 N          64.0880   28.2900   73.8490 N.am     10 SEL2        0.0000 
      6 N          66.2920   27.4050   73.4650 N.am      6 SEP2        0.0000 
      7 N          60.5170   29.2170   73.5220 N.am      2 SEC2        0.0000 
      8 N          61.9170   28.8930   72.8500 N.am     10 SEL2        0.0000 
      9 N          59.1170   29.5410   74.1940 N.am      6 SEP2        0.0000 
     10 N          60.6120   27.9255   73.0875 N.am      2 SEC2        0.0000 
     11 N          59.3070   26.9580   73.3250 N.am      6 SEP2        0.0000 
     12 N          65.3890   25.7270   76.0525 N.am      2 SEC2        0.0000 
     13 N          63.8610   26.1010   76.5870 N.am     10 SEL2        0.0000 
     14 N          66.9170   25.3530   75.5180 N.am      6 SEP2        0.0000 
     15 N          64.5050   25.1885   77.0765 N.am      2 SEC2        0.0000 
     16 N          65.1490   24.2760   77.5660 N.am      6 SEP2        0.0000 
     17 N          61.8190   26.5120   74.6145 N.am      2 SEC2        0.0000 
     18 N          62.1590   27.6970   75.3490 N.am     10 SEL2        0.0000 
     19 N          61.4790   25.3270   73.8800 N.am      6 SEP2        0.0000 
     20 N          60.8305   23.2370   82.4505 N.am      2 SEC2        0.0000 
     21 N          61.8900   23.7620   81.8550 N.am     10 SEL2        0.0000 
     22 N          59.7710   22.7120   83.0460 N.am      6 SEP2        0.0000 
     23 CA         60.2970   20.9180   76.5440 C.3       4 GLC5        0.0000 
     24 CA         61.4520   20.6720   77.9860 C.3      12 GLL5        0.0000 
     25 CA         59.1420   21.1640   75.1020 C.3       8 GLP5        0.0000 
     26 CA         59.4680   19.7550   77.4355 C.3       4 GLC5        0.0000 
     27 CA         61.2550   19.2400   78.0050 C.3      12 GLL5        0.0000 
     28 CA         57.6810   20.2700   76.8660 C.3       8 GLP5        0.0000 
     29 CA         59.8085   17.8620   78.1840 C.3       4 GLC5        0.0000 
     30 CA         58.3620   16.4840   78.3630 C.3       8 GLP5        0.0000 
     31 O          61.1620   17.1650   77.0505 O.2       1 ALC1        0.0000 
     32 O          61.7280   18.4580   77.0220 O.2       9 ALL1        0.0000 
     33 O          60.5960   15.8720   77.0790 O.2       5 ALP1        0.0000 
     34 N          60.2810   17.3765   79.6110 N.am      2 SEC2        0.0000 
     35 N          60.6210   18.6870   79.0520 N.am     10 SEL2        0.0000 
     36 N          59.9410   16.0660   80.1700 N.am      6 SEP2        0.0000 
     37 CA         58.9345   19.8465   78.4595 C.3       4 GLC5        0.0000 
     38 CA         60.1880   19.4230   80.0530 C.3      12 GLL5        0.0000 
     39 CA         58.4995   18.7150   79.9220 C.3       4 GLC5        0.0000 
     40 CA         56.8110   18.0070   79.7910 C.3       8 GLP5        0.0000 
     41 CA         60.2770   17.4330   80.7485 C.3       4 GLC5        0.0000 
     42 CA         60.3660   15.4430   81.4440 C.3       8 GLP5        0.0000 
     43 CA         62.0810   19.4925   80.2815 C.3       4 GLC5        0.0000 
     44 CA         63.9740   19.5620   80.5100 C.3       8 GLP5        0.0000 
     45 CA         59.3260   20.8410   77.9890 C.3       4 GLC5        0.0000 
     46 CA         60.9710   21.4120   79.1120 C.3      12 GLL5        0.0000 
     47 CA         62.5681   20.1230   79.5319 C.3       4 GLC5        0.0000 
@<TRIPOS>BOND
@<TRIPOS>SUBSTRUCTURE
     1 ALC1       31 GROUP        1 X    ALC  0     ROOT ALC X 1
     2 SEC2        4 GROUP        1 X    SEC  0     **** SEC X 2
     3 LYC4        1 GROUP        1 X    LYC  0     **** LYC X 4
     4 GLC5       23 GROUP        1 X    GLC  0     **** GLC X 6
     5 ALP1       33 GROUP        1 Y    ALP  0     ROOT ALP Y 8
     6 SEP2        6 GROUP        1 Y    SEP  0     **** SEP Y 9
     7 LYP4        3 GROUP        1 Y    LYP  0     **** LYP Y 11
     8 GLP5       25 GROUP        1 Y    GLP  0     **** GLP Y 13
     9 ALL1       32 GROUP        1 Z    ALL  0     ROOT ALL Z 15
    10 SEL2        5 GROUP        1 Z    SEL  0     **** SEL Z 16
    11 LYL4        2 GROUP        1 Z    LYL  0     **** LYL Z 18
    12 GLL5       24 GROUP        1 Z    GLL  0     **** GLL Z 20
@<TRIPOS>SET

