#    Name: 3cwq_ADP_1_ligand
#    Modification time : Mon Mar 24 22:25:26 2014

@<TRIPOS>MOLECULE
3cwq_ADP_1_ligand
   39    41     1     0     0
SMALL
NO_CHARGES


@<TRIPOS>ATOM
      1 PB         62.6810   28.6490   74.2050 P.3       1 ADP301      0.0000 
      2 O1B        64.0880   28.2900   73.8490 O.co2     1 ADP301      0.0000 
      3 O2B        61.9170   28.8930   72.8500 O.co2     1 ADP301      0.0000 
      4 O3B        62.8390   29.7800   75.1170 O.co2     1 ADP301      0.0000 
      5 PA         62.9370   27.2810   76.7730 P.3       1 ADP301      0.0000 
      6 O1A        63.8610   26.1010   76.5870 O.co2     1 ADP301      0.0000 
      7 O2A        63.4970   28.4480   77.5500 O.co2     1 ADP301      0.0000 
      8 O3A        62.1590   27.6970   75.3490 O.3       1 ADP301      0.0000 
      9 O5'        61.6560   26.5710   77.4580 O.3       1 ADP301      0.0000 
     10 C5'        61.2480   27.1410   78.6920 C.3       1 ADP301      0.0000 
     11 C4'        60.8070   26.1220   79.7420 C.3       1 ADP301      0.0000 
     12 O4'        60.2800   24.9250   79.1580 O.3       1 ADP301      0.0000 
     13 C3'        62.0420   25.7320   80.5360 C.3       1 ADP301      0.0000 
     14 O3'        61.8350   26.0750   81.9190 O.3       1 ADP301      0.0000 
     15 C2'        62.1280   24.2390   80.5050 C.3       1 ADP301      0.0000 
     16 O2'        61.8900   23.7620   81.8550 O.3       1 ADP301      0.0000 
     17 C1'        60.8830   23.7840   79.7840 C.3       1 ADP301      0.0000 
     18 N9         61.2730   22.6960   78.8840 N.pl3     1 ADP301      0.0000 
     19 C8         61.9280   22.8000   77.7230 C.2       1 ADP301      0.0000 
     20 N7         62.0270   21.5700   77.1910 N.2       1 ADP301      0.0000 
     21 C5         61.4520   20.6720   77.9860 C.ar      1 ADP301      0.0000 
     22 C6         61.2550   19.2400   78.0050 C.ar      1 ADP301      0.0000 
     23 N6         61.7280   18.4580   77.0220 N.pl3     1 ADP301      0.0000 
     24 N1         60.6210   18.6870   79.0520 N.ar      1 ADP301      0.0000 
     25 C2         60.1880   19.4230   80.0530 C.ar      1 ADP301      0.0000 
     26 N3         60.3340   20.7420   80.0870 N.ar      1 ADP301      0.0000 
     27 C4         60.9710   21.4120   79.1120 C.ar      1 ADP301      0.0000 
     28 H          60.4002   27.8542   78.5507 H         1 ADP301      0.0000 
     29 H          62.0649   27.7503   79.1490 H         1 ADP301      0.0000 
     30 H          60.1177   26.5856   80.4105 H         1 ADP301      0.0000 
     31 H          62.8929   26.1578   80.1304 H         1 ADP301      0.0000 
     32 H          62.9591   23.8870   80.0758 H         1 ADP301      0.0000 
     33 H          60.2173   23.3818   80.5619 H         1 ADP301      0.0000 
     34 H          62.2713   23.6144   77.3319 H         1 ADP301      0.0000 
     35 H          61.5883   17.4744   77.1364 H         1 ADP301      0.0000 
     36 H          62.1779   18.9288   76.2631 H         1 ADP301      0.0000 
     37 H          59.6985   18.9445   80.8739 H         1 ADP301      0.0000 
     38 H          61.5421   25.2243   82.3554 H         1 ADP301      0.0000 
     39 H          62.5386   23.0115   81.9823 H         1 ADP301      0.0000 
@<TRIPOS>BOND
     1    2    1 ar   
     2    3    1 ar   
     3    4    1 ar   
     4    8    1 1    
     5    6    5 ar   
     6    7    5 ar   
     7    8    5 1    
     8    9    5 1    
     9   10    9 1    
    10   11   10 1    
    11   28   10 1    
    12   29   10 1    
    13   12   11 1    
    14   13   11 1    
    15   30   11 1    
    16   17   12 1    
    17   14   13 1    
    18   15   13 1    
    19   31   13 1    
    20   38   14 1    
    21   16   15 1    
    22   17   15 1    
    23   32   15 1    
    24   39   16 1    
    25   18   17 1    
    26   33   17 1    
    27   19   18 1    
    28   27   18 1    
    29   20   19 2    
    30   34   19 1    
    31   21   20 1    
    32   22   21 ar   
    33   27   21 ar   
    34   23   22 1    
    35   24   22 ar   
    36   35   23 1    
    37   36   23 1    
    38   25   24 ar   
    39   26   25 ar   
    40   37   25 1    
    41   27   26 ar   
@<TRIPOS>SUBSTRUCTURE
     1 ADP301      1 GROUP   
@<TRIPOS>SET

