#    Name: 3r6s_CMP_4_INTS_M
#    Modification time : Tue Mar 25 11:05:44 2014

@<TRIPOS>MOLECULE
3r6s_CMP_4_INTS_M
   68     0     9     0     0
SMALL
NO_CHARGES


@<TRIPOS>ATOM
      1 N          15.0135   28.8355  -17.9695 N.am      2 SEC2        0.0000 
      2 N          16.2770   28.8990  -18.7870 N.am      8 SEL2        0.0000 
      3 N          13.7500   28.7720  -17.1520 N.am      5 SEP2        0.0000 
      4 N          15.0745   28.9655  -19.3565 N.am      2 SEC2        0.0000 
      5 N          13.8720   29.0320  -19.9260 N.am      5 SEP2        0.0000 
      6 N          19.2330   29.4940  -18.3035 N.am      2 SEC2        0.0000 
      7 N          18.6720   28.0410  -18.3660 N.am      8 SEL2        0.0000 
      8 N          19.7940   30.9470  -18.2410 N.am      5 SEP2        0.0000 
      9 N          18.7590   28.7345  -17.3420 N.am      2 SEC2        0.0000 
     10 N          18.8460   29.4280  -16.3180 N.am      5 SEP2        0.0000 
     11 N          19.3545   27.0095  -17.4685 N.am      2 SEC2        0.0000 
     12 N          20.0370   25.9780  -16.5710 N.am      5 SEP2        0.0000 
     13 CA         15.8170   24.6115  -18.4445 C.3       3 GLC5        0.0000 
     14 CA         15.6660   25.9830  -19.5820 C.3       9 GLL5        0.0000 
     15 CA         15.9680   23.2400  -17.3070 C.3       6 GLP5        0.0000 
     16 CA         13.5980   25.5735  -19.7580 C.3       3 GLC5        0.0000 
     17 CA         11.5300   25.1640  -19.9340 C.3       6 GLP5        0.0000 
     18 CA         16.6890   24.4265  -19.4885 C.3       3 GLC5        0.0000 
     19 CA         16.2080   25.9170  -21.0130 C.3       9 GLL5        0.0000 
     20 CA         17.1700   22.9360  -17.9640 C.3       6 GLP5        0.0000 
     21 CA         15.2905   24.5025  -22.4785 C.3       3 GLC5        0.0000 
     22 CA         14.3730   23.0880  -23.9440 C.3       6 GLP5        0.0000 
     23 CA         17.4480   24.3690  -22.0230 C.3       3 GLC5        0.0000 
     24 CA         18.6880   22.8210  -23.0330 C.3       6 GLP5        0.0000 
     25 N          14.0235   25.1845  -21.1445 N.am      2 SEC2        0.0000 
     26 N          15.2250   25.7310  -22.0450 N.am      8 SEL2        0.0000 
     27 N          12.8220   24.6380  -20.2440 N.am      5 SEP2        0.0000 
     28 N          19.1115   28.6870  -20.6260 N.am      2 SEC2        0.0000 
     29 N          17.7010   27.6760  -20.5110 N.am      8 SEL2        0.0000 
     30 N          20.5220   29.6980  -20.7410 N.am      5 SEP2        0.0000 
     31 N          19.1050   25.7390  -22.0650 N.am      2 SEC2        0.0000 
     32 N          18.1510   26.5340  -22.9740 N.am      8 SEL2        0.0000 
     33 N          20.0590   24.9440  -21.1560 N.am      5 SEP2        0.0000 
     34 N          19.4480   26.6980  -23.2300 N.am      2 SEC2        0.0000 
     35 N          20.7450   26.8620  -23.4860 N.am      5 SEP2        0.0000 
     36 CA         15.0985   24.7250  -23.5860 C.3       3 GLC5        0.0000 
     37 CA         15.8240   26.3620  -23.2280 C.3       9 GLL5        0.0000 
     38 N          12.2305   29.6735  -23.4175 N.am      2 SEC2        0.0000 
     39 N          13.1490   28.7020  -24.0010 N.am      8 SEL2        0.0000 
     40 N          11.3120   30.6450  -22.8340 N.am      5 SEP2        0.0000 
     41 CA         14.6045   29.8720  -25.4760 C.3       3 GLC5        0.0000 
     42 CA         13.3510   28.1530  -25.2020 C.3       9 GLL5        0.0000 
     43 CA         15.8580   31.5910  -25.7500 C.3       6 GLP5        0.0000 
     44 CA         13.2050   30.3725  -26.5320 C.3       3 GLC5        0.0000 
     45 CA         12.7880   28.3170  -26.4780 C.3       9 GLL5        0.0000 
     46 CA         13.6220   32.4280  -26.5860 C.3       6 GLP5        0.0000 
     47 O          11.6270   29.8280  -27.9590 O.2       1 ALC1        0.0000 
     48 O          11.7970   29.1670  -26.7070 O.2       7 ALL1        0.0000 
     49 O          11.4570   30.4890  -29.2110 O.2       4 ALP1        0.0000 
     50 O          11.0600   30.1140  -25.7510 O.2       1 ALC1        0.0000 
     51 O          10.3230   31.0610  -24.7950 O.2       4 ALP1        0.0000 
     52 CA         13.5510   24.8000  -27.4445 C.3       3 GLC5        0.0000 
     53 CA         14.2300   26.6880  -27.2930 C.3       9 GLL5        0.0000 
     54 CA         12.8720   22.9120  -27.5960 C.3       6 GLP5        0.0000 
     55 CA         15.5395   25.0165  -27.0310 C.3       3 GLC5        0.0000 
     56 CA         16.8490   23.3450  -26.7690 C.3       6 GLP5        0.0000 
     57 CA         15.8145   27.3440  -27.7110 C.3       3 GLC5        0.0000 
     58 CA         17.3990   28.0000  -28.1290 C.3       6 GLP5        0.0000 
     59 CA         14.3665   25.1505  -24.4955 C.3       3 GLC5        0.0000 
     60 CA         14.3600   27.2130  -25.0470 C.3       9 GLL5        0.0000 
     61 CA         15.8795   27.6065  -26.5880 C.3       3 GLC5        0.0000 
     62 CA         18.3938   26.0168  -20.4875 C.3       3 GLC5        0.0000 
     63 CA         16.6270   27.3440  -21.3250 C.3       9 GLL5        0.0000 
     64 CA         20.3700   25.4030  -19.8060 C.3       6 GLP5        0.0000 
     65 CA         17.5580   28.9862  -21.4577 C.3       3 GLC5        0.0000 
     66 CA         18.3180   30.6830  -20.8610 C.3       6 GLP5        0.0000 
     67 CA         12.0084   27.2485  -24.4888 C.3       3 GLC5        0.0000 
     68 CA         10.3020   26.7730  -23.5340 C.3       6 GLP5        0.0000 
@<TRIPOS>BOND
@<TRIPOS>SUBSTRUCTURE
     1 ALC1       47 GROUP        1 X    ALC  0     ROOT ALC X 1
     2 SEC2        1 GROUP        1 X    SEC  0     **** SEC X 2
     3 GLC5       13 GROUP        1 X    GLC  0     **** GLC X 6
     4 ALP1       49 GROUP        1 Y    ALP  0     ROOT ALP Y 8
     5 SEP2        3 GROUP        1 Y    SEP  0     **** SEP Y 9
     6 GLP5       15 GROUP        1 Y    GLP  0     **** GLP Y 13
     7 ALL1       48 GROUP        1 Z    ALL  0     ROOT ALL Z 15
     8 SEL2        2 GROUP        1 Z    SEL  0     **** SEL Z 16
     9 GLL5       14 GROUP        1 Z    GLL  0     **** GLL Z 20
@<TRIPOS>SET

