#    Name: 3r6s_CMP_4_ligand
#    Modification time : Tue Mar 25 11:05:44 2014

@<TRIPOS>MOLECULE
3r6s_CMP_4_ligand
   33    36     1     0     0
SMALL
NO_CHARGES


@<TRIPOS>ATOM
      1 P          17.3320   27.8340  -18.9330 P.3       1 CMP301      0.0000 
      2 O1P        16.2770   28.8990  -18.7870 O.co2     1 CMP301      0.0000 
      3 O2P        18.6720   28.0410  -18.3660 O.co2     1 CMP301      0.0000 
      4 O5'        16.7050   26.4180  -18.6720 O.3       1 CMP301      0.0000 
      5 C5'        15.6660   25.9830  -19.5820 C.3       1 CMP301      0.0000 
      6 C4'        16.2080   25.9170  -21.0130 C.3       1 CMP301      0.0000 
      7 O4'        15.2250   25.7310  -22.0450 O.3       1 CMP301      0.0000 
      8 C3'        16.6270   27.3440  -21.3250 C.3       1 CMP301      0.0000 
      9 O3'        17.7010   27.6760  -20.5110 O.3       1 CMP301      0.0000 
     10 C2'        16.9690   27.2350  -22.7840 C.3       1 CMP301      0.0000 
     11 O2'        18.1510   26.5340  -22.9740 O.3       1 CMP301      0.0000 
     12 C1'        15.8240   26.3620  -23.2280 C.3       1 CMP301      0.0000 
     13 N9         14.7470   27.2390  -23.7750 N.pl3     1 CMP301      0.0000 
     14 C8         14.0020   28.1500  -23.1210 C.2       1 CMP301      0.0000 
     15 N7         13.1490   28.7020  -24.0010 N.2       1 CMP301      0.0000 
     16 C5         13.3510   28.1530  -25.2020 C.ar      1 CMP301      0.0000 
     17 C6         12.7880   28.3170  -26.4780 C.ar      1 CMP301      0.0000 
     18 N6         11.7970   29.1670  -26.7070 N.pl3     1 CMP301      0.0000 
     19 N1         13.2510   27.5750  -27.4890 N.ar      1 CMP301      0.0000 
     20 C2         14.2300   26.6880  -27.2930 C.ar      1 CMP301      0.0000 
     21 N3         14.7900   26.5160  -26.0960 N.ar      1 CMP301      0.0000 
     22 C4         14.3600   27.2130  -25.0470 C.ar      1 CMP301      0.0000 
     23 H          14.8159   26.6737  -19.5747 H         1 CMP301      0.0000 
     24 H          15.2949   24.9875  -19.3156 H         1 CMP301      0.0000 
     25 H          17.0326   25.3115  -21.0946 H         1 CMP301      0.0000 
     26 H          15.7681   27.9523  -21.2153 H         1 CMP301      0.0000 
     27 H          16.8864   28.1566  -23.2362 H         1 CMP301      0.0000 
     28 H          16.1254   25.6622  -23.9296 H         1 CMP301      0.0000 
     29 H          14.0697   28.3680  -22.1829 H         1 CMP301      0.0000 
     30 H          11.4680   29.6828  -25.9159 H         1 CMP301      0.0000 
     31 H          11.4680   29.2156  -27.6501 H         1 CMP301      0.0000 
     32 H          14.5691   26.1071  -28.1105 H         1 CMP301      0.0000 
     33 H          17.8849   25.7081  -23.4710 H         1 CMP301      0.0000 
@<TRIPOS>BOND
     1    2    1 ar   
     2    3    1 ar   
     3    4    1 1    
     4    9    1 1    
     5    5    4 1    
     6    6    5 1    
     7   23    5 1    
     8   24    5 1    
     9    7    6 1    
    10    8    6 1    
    11   25    6 1    
    12   12    7 1    
    13    9    8 1    
    14   10    8 1    
    15   26    8 1    
    16   11   10 1    
    17   12   10 1    
    18   27   10 1    
    19   33   11 1    
    20   13   12 1    
    21   28   12 1    
    22   14   13 1    
    23   22   13 1    
    24   15   14 2    
    25   29   14 1    
    26   16   15 1    
    27   17   16 ar   
    28   22   16 ar   
    29   18   17 1    
    30   19   17 ar   
    31   30   18 1    
    32   31   18 1    
    33   20   19 ar   
    34   21   20 ar   
    35   32   20 1    
    36   22   21 ar   
@<TRIPOS>SUBSTRUCTURE
     1 CMP301      1 GROUP   
@<TRIPOS>SET

