#    Name: 2gz1_NAP_1_INTS_M
#    Modification time : Tue Mar 25 15:13:53 2014

@<TRIPOS>MOLECULE
2gz1_NAP_1_INTS_M
   95     0    12     0     0
SMALL
NO_CHARGES


@<TRIPOS>ATOM
      1 N           5.4385   16.4445   51.7365 N.am      2 SEC2        0.0000 
      2 N           4.8710   16.0070   50.4750 N.am     10 SEL2        0.0000 
      3 N           6.0060   16.8820   52.9980 N.am      6 SEP2        0.0000 
      4 N           5.9135   16.1330   49.4580 N.am      2 SEC2        0.0000 
      5 N           6.9560   16.2590   48.4410 N.am      6 SEP2        0.0000 
      6 CA         -0.7860   15.0465   52.9710 C.3       4 GLC5        0.0000 
      7 CA          1.0040   14.0440   52.6190 C.3      12 GLL5        0.0000 
      8 CA         -2.5760   16.0490   53.3230 C.3       8 GLP5        0.0000 
      9 N           2.7935   12.8350   55.9550 N.am      2 SEC2        0.0000 
     10 N           1.7890   12.8030   54.5440 N.am     10 SEL2        0.0000 
     11 N           3.7980   12.8670   57.3660 N.am      6 SEP2        0.0000 
     12 O           2.5725   11.8675   54.9585 O.2       1 ALC1        0.0000 
     13 O           1.7890   12.8030   54.5440 O.2       9 ALL1        0.0000 
     14 O           3.3560   10.9320   55.3730 O.2       5 ALP1        0.0000 
     15 CA         -0.4095   13.4865   54.9065 C.3       4 GLC5        0.0000 
     16 CA         -0.6510   12.5340   53.1340 C.3      12 GLL5        0.0000 
     17 CA         -0.1680   14.4390   56.6790 C.3       8 GLP5        0.0000 
     18 CA         -1.9375   13.7960   53.7060 C.3       4 GLC5        0.0000 
     19 CA         -3.2240   15.0580   54.2780 C.3       8 GLP5        0.0000 
     20 CA         -5.7665   11.9115   53.5665 C.3       4 GLC5        0.0000 
     21 CA         -4.8550   10.2380   52.7260 C.3      12 GLL5        0.0000 
     22 CA         -6.6780   13.5850   54.4070 C.3       8 GLP5        0.0000 
     23 CA         -2.8315   10.3155   56.1300 C.3       4 GLC5        0.0000 
     24 CA         -4.2320   10.7040   54.9130 C.3      12 GLL5        0.0000 
     25 CA         -1.4310    9.9270   57.3470 C.3       8 GLP5        0.0000 
     26 CA         -3.4390    9.0420   54.8290 C.3       4 GLC5        0.0000 
     27 CA         -2.6460    7.3800   54.7450 C.3       8 GLP5        0.0000 
     28 CA         -5.2995   10.4425   56.4295 C.3       4 GLC5        0.0000 
     29 CA         -6.3670   10.1810   57.9460 C.3       8 GLP5        0.0000 
     30 CA         -5.4550   12.1445   54.6600 C.3       4 GLC5        0.0000 
     31 CA         -3.0175   13.2145   53.7420 C.3       4 GLC5        0.0000 
     32 CA         -2.8110   11.3710   53.2060 C.3      12 GLL5        0.0000 
     33 N           4.2765   18.9295   53.0980 N.am      2 SEC2        0.0000 
     34 N           3.3630   18.4270   52.1210 N.am     10 SEL2        0.0000 
     35 N           5.1900   19.4320   54.0750 N.am      6 SEP2        0.0000 
     36 CA         -1.1050   17.4975   52.4780 C.3       4 GLC5        0.0000 
     37 CA          0.3660   18.9460   51.6330 C.3      12 GLL5        0.0000 
     38 N           0.0660   20.7525   53.2855 N.am      2 SEC2        0.0000 
     39 N          -0.1840   21.2530   51.8500 N.am     10 SEL2        0.0000 
     40 N           0.3160   20.2520   54.7210 N.am      6 SEP2        0.0000 
     41 CA         -2.6890   18.6750   50.0345 C.3       4 GLC5        0.0000 
     42 CA         -1.2790   20.1120   50.0440 C.3      12 GLL5        0.0000 
     43 CA         -4.0990   17.2380   50.0250 C.3       8 GLP5        0.0000 
     44 N          -3.0495   18.7085   50.6830 N.am      2 SEC2        0.0000 
     45 N          -2.6960   20.2480   50.0700 N.am     10 SEL2        0.0000 
     46 N          -3.4030   17.1690   51.2960 N.am      6 SEP2        0.0000 
     47 CA         -1.2375   22.8235   52.7880 C.3       4 GLC5        0.0000 
     48 CA         -0.6030   22.2070   50.8770 C.3      12 GLL5        0.0000 
     49 CA         -1.8720   23.4400   54.6990 C.3       8 GLP5        0.0000 
     50 N           6.2925   24.9080   49.7605 N.am      2 SEC2        0.0000 
     51 N           4.9750   24.5650   50.0900 N.am     10 SEL2        0.0000 
     52 N           7.6100   25.2510   49.4310 N.am      6 SEP2        0.0000 
     53 O           5.6045   21.9075   49.1195 O.2       1 ALC1        0.0000 
     54 O           4.4320   22.3750   49.8180 O.2       9 ALL1        0.0000 
     55 O           6.7770   21.4400   48.4210 O.2       5 ALP1        0.0000 
     56 CA          2.6810   26.6375   49.6185 C.3       4 GLC5        0.0000 
     57 CA          2.3300   25.2330   50.8130 C.3      12 GLL5        0.0000 
     58 CA          3.0320   28.0420   48.4240 C.3       8 GLP5        0.0000 
     59 CA          2.1325   27.3230   50.5715 C.3       4 GLC5        0.0000 
     60 CA          1.0750   25.6950   51.1640 C.3      12 GLL5        0.0000 
     61 CA          3.1900   28.9510   49.9790 C.3       8 GLP5        0.0000 
     62 CA         -0.9450   24.0340   52.9460 C.3       4 GLC5        0.0000 
     63 CA         -0.0180   24.6280   51.1930 C.3      12 GLL5        0.0000 
     64 N          -0.0570    7.3730   53.5815 N.am      2 SEC2        0.0000 
     65 N           0.9240    8.0250   54.1180 N.am     10 SEL2        0.0000 
     66 N          -1.0380    6.7210   53.0450 N.am      6 SEP2        0.0000 
     67 N          -0.4820    8.2190   54.7940 N.am      2 SEC2        0.0000 
     68 N          -1.8880    8.4130   55.4700 N.am      6 SEP2        0.0000 
     69 N           1.8095    7.5360   54.7560 N.am      2 SEC2        0.0000 
     70 N           2.6950    7.0470   55.3940 N.am      6 SEP2        0.0000 
     71 NZ          1.6590    8.4300   50.3685 N.4       3 LYC4        0.0000 
     72 NZ          1.0060    9.0180   51.7480 N.4      11 LYL4        0.0000 
     73 NZ          1.9050    6.5820   49.1130 N.4       7 LYP4        0.0000 
     74 N          -0.0160    7.8695   52.3965 N.am      2 SEC2        0.0000 
     75 N           1.0060    9.0180   51.7480 N.am     10 SEL2        0.0000 
     76 N           1.3065    7.5600   51.0330 N.am      2 SEC2        0.0000 
     77 N           1.6070    6.1020   50.3180 N.am      6 SEP2        0.0000 
     78 N           1.6590    8.4300   50.3685 N.am      2 SEC2        0.0000 
     79 N           2.3120    7.8420   48.9890 N.am      6 SEP2        0.0000 
     80 N           3.1495   10.1895   54.3705 N.am      2 SEC2        0.0000 
     81 N           2.9430    9.4470   53.3680 N.am     10 SEL2        0.0000 
     82 N           3.3560   10.9320   55.3730 N.am      6 SEP2        0.0000 
     83 CA          0.5775   13.9148   54.7758 C.3       4 GLC5        0.0000 
     84 CA          3.1319   14.2190   53.1698 C.3       4 GLC5        0.0000 
     85 CA          4.8220   14.9370   53.8170 C.3       8 GLP5        0.0000 
     86 CA         -2.9091    9.1640   53.0563 C.3       4 GLC5        0.0000 
     87 CA         -3.6880   10.8440   52.2680 C.3      12 GLL5        0.0000 
     88 CA         -2.2770    7.3720   53.2610 C.3       8 GLP5        0.0000 
     89 CA         -0.9207   19.2745   53.4560 C.3       4 GLC5        0.0000 
     90 CA         -1.6360   19.0880   55.3540 C.3       8 GLP5        0.0000 
     91 CA          2.8564   23.0757   52.0354 C.3       4 GLC5        0.0000 
     92 CA          3.4370   21.8090   53.4190 C.3       8 GLP5        0.0000 
     93 CA          2.4056   25.2464   52.7477 C.3       4 GLC5        0.0000 
     94 CA          2.7010   23.9440   50.4810 C.3      12 GLL5        0.0000 
     95 CA          3.0160   25.3510   54.5900 C.3       8 GLP5        0.0000 
@<TRIPOS>BOND
@<TRIPOS>SUBSTRUCTURE
     1 ALC1       12 GROUP        1 X    ALC  0     ROOT ALC X 1
     2 SEC2        1 GROUP        1 X    SEC  0     **** SEC X 2
     3 LYC4       71 GROUP        1 X    LYC  0     **** LYC X 4
     4 GLC5        6 GROUP        1 X    GLC  0     **** GLC X 6
     5 ALP1       14 GROUP        1 Y    ALP  0     ROOT ALP Y 8
     6 SEP2        3 GROUP        1 Y    SEP  0     **** SEP Y 9
     7 LYP4       73 GROUP        1 Y    LYP  0     **** LYP Y 11
     8 GLP5        8 GROUP        1 Y    GLP  0     **** GLP Y 13
     9 ALL1       13 GROUP        1 Z    ALL  0     ROOT ALL Z 15
    10 SEL2        2 GROUP        1 Z    SEL  0     **** SEL Z 16
    11 LYL4       72 GROUP        1 Z    LYL  0     **** LYL Z 18
    12 GLL5        7 GROUP        1 Z    GLL  0     **** GLL Z 20
@<TRIPOS>SET

