#    Name: 2gz1_NAP_1_ligand
#    Modification time : Tue Mar 25 15:13:54 2014

@<TRIPOS>MOLECULE
2gz1_NAP_1_ligand
   73    77     1     0     0
SMALL
NO_CHARGES


@<TRIPOS>ATOM
      1 PA          3.4750   15.7680   50.0860 P.3       1 NAP702      0.0000 
      2 O1A         3.1810   14.9710   48.8770 O.co2     1 NAP702      0.0000 
      3 O2A         4.8710   16.0070   50.4750 O.co2     1 NAP702      0.0000 
      4 O5B         2.7900   14.9940   51.3270 O.3       1 NAP702      0.0000 
      5 C5B         1.4790   14.4860   51.2190 C.3       1 NAP702      0.0000 
      6 C4B         1.0040   14.0440   52.6190 C.3       1 NAP702      0.0000 
      7 O4B        -0.4080   13.7920   52.4800 O.3       1 NAP702      0.0000 
      8 C3B         1.6420   12.7370   53.1260 C.3       1 NAP702      0.0000 
      9 O3B         1.7890   12.8030   54.5440 O.3       1 NAP702      0.0000 
     10 C2B         0.5760   11.7110   52.8040 C.3       1 NAP702      0.0000 
     11 O2B         0.6470   10.5980   53.7020 O.3       1 NAP702      0.0000 
     12 C1B        -0.6510   12.5340   53.1340 C.3       1 NAP702      0.0000 
     13 N9A        -1.7900   11.8790   52.5340 N.pl3     1 NAP702      0.0000 
     14 C8A        -1.9980   11.6890   51.2250 C.2       1 NAP702      0.0000 
     15 N7A        -3.1600   11.0560   51.0600 N.2       1 NAP702      0.0000 
     16 C5A        -3.6880   10.8440   52.2680 C.ar      1 NAP702      0.0000 
     17 C6A        -4.8550   10.2380   52.7260 C.ar      1 NAP702      0.0000 
     18 N6A        -5.7320    9.7160   51.8800 N.pl3     1 NAP702      0.0000 
     19 N1A        -5.0920   10.1850   54.0460 N.ar      1 NAP702      0.0000 
     20 C2A        -4.2320   10.7040   54.9130 C.ar      1 NAP702      0.0000 
     21 N3A        -3.1030   11.2930   54.5160 N.ar      1 NAP702      0.0000 
     22 C4A        -2.8110   11.3710   53.2060 C.ar      1 NAP702      0.0000 
     23 O3          2.5790   17.1520   50.0260 O.3       1 NAP702      0.0000 
     24 PN          2.8980   18.6280   50.7500 P.3       1 NAP702      0.0000 
     25 O1N         3.7020   19.5000   49.8500 O.co2     1 NAP702      0.0000 
     26 O2N         3.3630   18.4270   52.1210 O.co2     1 NAP702      0.0000 
     27 O5D         1.3880   19.2020   50.6690 O.3       1 NAP702      0.0000 
     28 C5D         0.3660   18.9460   51.6330 C.3       1 NAP702      0.0000 
     29 C4D        -0.7770   19.9760   51.4830 C.3       1 NAP702      0.0000 
     30 O4D        -0.1840   21.2530   51.8500 O.3       1 NAP702      0.0000 
     31 C3D        -1.2790   20.1120   50.0440 C.3       1 NAP702      0.0000 
     32 O3D        -2.6960   20.2480   50.0700 O.3       1 NAP702      0.0000 
     33 C2D        -0.6670   21.4240   49.5760 C.3       1 NAP702      0.0000 
     34 O2D        -1.5330   22.1000   48.6610 O.3       1 NAP702      0.0000 
     35 C1D        -0.6030   22.2070   50.8770 C.3       1 NAP702      0.0000 
     36 N1N         0.4240   23.2710   50.8490 N.pl3     1 NAP702      0.0000 
     37 C2N         1.7420   22.9600   50.5000 C.ar      1 NAP702      0.0000 
     38 C3N         2.7010   23.9440   50.4810 C.ar      1 NAP702      0.0000 
     39 C7N         4.1490   23.6500   50.1150 C.2       1 NAP702      0.0000 
     40 O7N         4.9750   24.5650   50.0900 O.2       1 NAP702      0.0000 
     41 N7N         4.4320   22.3750   49.8180 N.am      1 NAP702      0.0000 
     42 C4N         2.3300   25.2330   50.8130 C.ar      1 NAP702      0.0000 
     43 C5N         1.0750   25.6950   51.1640 C.ar      1 NAP702      0.0000 
     44 C6N        -0.0180   24.6280   51.1930 C.ar      1 NAP702      0.0000 
     45 P2B         1.4970    9.2580   53.2220 P.3       1 NAP702      0.0000 
     46 O1X         0.9240    8.0250   54.1180 O.co2     1 NAP702      0.0000 
     47 O2X         1.0060    9.0180   51.7480 O.co2     1 NAP702      0.0000 
     48 O3X         2.9430    9.4470   53.3680 O.co2     1 NAP702      0.0000 
     49 H           1.4205   13.6112   50.5669 H         1 NAP702      0.0000 
     50 H           0.7681   15.2329   50.8576 H         1 NAP702      0.0000 
     51 H           1.1771   14.8247   53.3135 H         1 NAP702      0.0000 
     52 H           2.4992   12.5407   52.5963 H         1 NAP702      0.0000 
     53 H           0.5861   11.4920   51.8028 H         1 NAP702      0.0000 
     54 H          -0.7291   12.6324   54.1672 H         1 NAP702      0.0000 
     55 H          -1.3966   11.9687   50.5120 H         1 NAP702      0.0000 
     56 H          -6.5327    9.2793   52.2900 H         1 NAP702      0.0000 
     57 H          -5.5135    9.8062   50.9083 H         1 NAP702      0.0000 
     58 H          -4.4453   10.6506   55.9504 H         1 NAP702      0.0000 
     59 H           0.7411   19.0232   52.6599 H         1 NAP702      0.0000 
     60 H          -0.0749   17.9502   51.5099 H         1 NAP702      0.0000 
     61 H          -1.5647   19.7275   52.1311 H         1 NAP702      0.0000 
     62 H          -0.9216   19.3294   49.4740 H         1 NAP702      0.0000 
     63 H           0.2983   21.2551   49.2322 H         1 NAP702      0.0000 
     64 H          -1.5557   22.5917   51.1058 H         1 NAP702      0.0000 
     65 H           1.9837   21.9877   50.2583 H         1 NAP702      0.0000 
     66 H           3.6670   21.7325   49.8627 H         1 NAP702      0.0000 
     67 H           5.3830   22.1797   49.5782 H         1 NAP702      0.0000 
     68 H           3.1239   25.9771   50.7962 H         1 NAP702      0.0000 
     69 H           0.8341   26.6099   51.3870 H         1 NAP702      0.0000 
     70 H          -0.9184   24.8571   51.4228 H         1 NAP702      0.0000 
     71 H           1.9842   11.8642   54.8278 H         1 NAP702      0.0000 
     72 H          -2.8762   21.1524   49.6831 H         1 NAP702      0.0000 
     73 H          -1.4543   23.0684   48.8978 H         1 NAP702      0.0000 
@<TRIPOS>BOND
     1    2    1 ar   
     2    3    1 ar   
     3    4    1 1    
     4   23    1 1    
     5    5    4 1    
     6    6    5 1    
     7   49    5 1    
     8   50    5 1    
     9    7    6 1    
    10    8    6 1    
    11   51    6 1    
    12   12    7 1    
    13    9    8 1    
    14   10    8 1    
    15   52    8 1    
    16   71    9 1    
    17   11   10 1    
    18   12   10 1    
    19   53   10 1    
    20   45   11 1    
    21   13   12 1    
    22   54   12 1    
    23   14   13 1    
    24   22   13 1    
    25   15   14 2    
    26   55   14 1    
    27   16   15 1    
    28   17   16 ar   
    29   22   16 ar   
    30   18   17 1    
    31   19   17 ar   
    32   56   18 1    
    33   57   18 1    
    34   20   19 ar   
    35   21   20 ar   
    36   58   20 1    
    37   22   21 ar   
    38   24   23 1    
    39   25   24 ar   
    40   26   24 ar   
    41   27   24 1    
    42   28   27 1    
    43   29   28 1    
    44   59   28 1    
    45   60   28 1    
    46   30   29 1    
    47   31   29 1    
    48   61   29 1    
    49   35   30 1    
    50   32   31 1    
    51   33   31 1    
    52   62   31 1    
    53   72   32 1    
    54   34   33 1    
    55   35   33 1    
    56   63   33 1    
    57   73   34 1    
    58   36   35 1    
    59   64   35 1    
    60   37   36 ar   
    61   44   36 ar   
    62   38   37 ar   
    63   65   37 1    
    64   39   38 1    
    65   42   38 ar   
    66   40   39 2    
    67   41   39 am   
    68   66   41 1    
    69   67   41 1    
    70   43   42 ar   
    71   68   42 1    
    72   44   43 ar   
    73   69   43 1    
    74   70   44 1    
    75   46   45 ar   
    76   47   45 ar   
    77   48   45 ar   
@<TRIPOS>SUBSTRUCTURE
     1 NAP702      1 GROUP   
@<TRIPOS>SET

