#    Name: 1yho_TRR_1_INTS_M
#    Modification time : Tue Mar 25 11:04:04 2014

@<TRIPOS>MOLECULE
1yho_TRR_1_INTS_M
   46     0     6     0     0
SMALL
NO_CHARGES


@<TRIPOS>ATOM
      1 O          -2.9865   -5.5645    5.8230 O.2       1 ALC1        0.0000 
      2 O          -2.3520   -4.2270    5.2640 O.2       5 ALL1        0.0000 
      3 O          -3.6210   -6.9020    6.3820 O.2       3 ALP1        0.0000 
      4 CA         -3.2745   -1.3815    3.7495 C.3       2 GLC5        0.0000 
      5 CA         -2.9490   -3.3200    4.4160 C.3       6 GLL5        0.0000 
      6 CA         -3.6000    0.5570    3.0830 C.3       4 GLP5        0.0000 
      7 CA         -4.3015   -2.5750    5.5250 C.3       2 GLC5        0.0000 
      8 CA         -5.6540   -1.8300    6.6340 C.3       4 GLP5        0.0000 
      9 O          -4.4075   -4.8245    4.3650 O.2       1 ALC1        0.0000 
     10 O          -4.3180   -3.2990    4.2870 O.2       5 ALL1        0.0000 
     11 O          -4.4970   -6.3500    4.4430 O.2       3 ALP1        0.0000 
     12 CA         -2.2015   -0.9460    3.4520 C.3       2 GLC5        0.0000 
     13 CA         -0.8030   -2.4490    3.8210 C.3       6 GLL5        0.0000 
     14 O          -1.0180   -0.9140    2.0390 O.2       1 ALC1        0.0000 
     15 O          -0.0410   -1.5580    3.0990 O.2       5 ALL1        0.0000 
     16 O          -1.9950   -0.2700    0.9790 O.2       3 ALP1        0.0000 
     17 O           1.5445   -1.0440    2.8020 O.2       1 ALC1        0.0000 
     18 O           3.1300   -0.5300    2.5050 O.2       3 ALP1        0.0000 
     19 CA         -1.1600   -4.8180    7.5315 C.3       2 GLC5        0.0000 
     20 CA         -0.9800   -4.2530    5.3970 C.3       6 GLL5        0.0000 
     21 CA         -1.3400   -5.3830    9.6660 C.3       4 GLP5        0.0000 
     22 CA          3.4150   -2.6230    4.7880 C.3       2 GLC5        0.0000 
     23 CA          1.3080   -3.3850    4.8140 C.3       6 GLL5        0.0000 
     24 CA          5.5220   -1.8610    4.7620 C.3       4 GLP5        0.0000 
     25 CA          0.7420   -2.1430    5.6910 C.3       2 GLC5        0.0000 
     26 CA          0.1760   -0.9010    6.5680 C.3       4 GLP5        0.0000 
     27 CA          4.9205   -6.6770    5.6155 C.3       2 GLC5        0.0000 
     28 CA          2.8240   -7.1940    6.1010 C.3       6 GLL5        0.0000 
     29 CA          7.0170   -6.1600    5.1300 C.3       4 GLP5        0.0000 
     30 CA          1.0235   -4.8890    9.9475 C.3       2 GLC5        0.0000 
     31 CA          2.6820   -5.3810    9.3100 C.3       6 GLL5        0.0000 
     32 CA         -0.6350   -4.3970   10.5850 C.3       4 GLP5        0.0000 
     33 CA          2.8415   -9.5965    6.4475 C.3       2 GLC5        0.0000 
     34 CA          4.5410   -8.8420    6.0000 C.3       6 GLL5        0.0000 
     35 CA          1.1420  -10.3510    6.8950 C.3       4 GLP5        0.0000 
     36 CA          6.0445   -8.7115    5.3755 C.3       2 GLC5        0.0000 
     37 CA          7.5480   -8.5810    4.7510 C.3       4 GLP5        0.0000 
     38 CA          5.8660   -9.5120    6.9240 C.3       2 GLC5        0.0000 
     39 CA          7.1910  -10.1820    7.8480 C.3       4 GLP5        0.0000 
     40 CA          0.8035   -7.1835    1.3365 C.3       2 GLC5        0.0000 
     41 CA          2.4770   -7.7720    2.4750 C.3       6 GLL5        0.0000 
     42 CA         -0.8700   -6.5950    0.1980 C.3       4 GLP5        0.0000 
     43 CA          0.8775   -2.8927    2.7708 C.3       2 GLC5        0.0000 
     44 CA         -0.1930   -3.3620    4.6740 C.3       6 GLL5        0.0000 
     45 CA          2.2530   -2.8800    1.2940 C.3       4 GLP5        0.0000 
     46 CA          2.0328   -3.8865    2.9904 C.3       2 GLC5        0.0000 
@<TRIPOS>BOND
@<TRIPOS>SUBSTRUCTURE
     1 ALC1        1 GROUP        1 X    ALC  0     ROOT ALC X 1
     2 GLC5        4 GROUP        1 X    GLC  0     **** GLC X 6
     3 ALP1        3 GROUP        1 Y    ALP  0     ROOT ALP Y 8
     4 GLP5        6 GROUP        1 Y    GLP  0     **** GLP Y 13
     5 ALL1        2 GROUP        1 Z    ALL  0     ROOT ALL Z 15
     6 GLL5        5 GROUP        1 Z    GLL  0     **** GLL Z 20
@<TRIPOS>SET

