#    Name: 1yho_TRR_1_ligand
#    Modification time : Tue Mar 25 11:04:04 2014

@<TRIPOS>MOLECULE
1yho_TRR_1_ligand
   40    41     1     0     0
SMALL
NO_CHARGES


@<TRIPOS>ATOM
      1 N1         -2.3520   -4.2270    5.2640 N.pl3     1 TRR200      0.0000 
      2 C2         -2.9490   -3.3200    4.4160 C.ar      1 TRR200      0.0000 
      3 N2         -4.3180   -3.2990    4.2870 N.pl3     1 TRR200      0.0000 
      4 N3         -2.1760   -2.4340    3.6970 N.ar      1 TRR200      0.0000 
      5 C4         -0.8030   -2.4490    3.8210 C.ar      1 TRR200      0.0000 
      6 N4         -0.0410   -1.5580    3.0990 N.pl3     1 TRR200      0.0000 
      7 C5         -0.1930   -3.3620    4.6740 C.ar      1 TRR200      0.0000 
      8 C6         -0.9800   -4.2530    5.3970 C.ar      1 TRR200      0.0000 
      9 C7          1.3080   -3.3850    4.8140 C.3       1 TRR200      0.0000 
     10 C11         1.8400   -4.7190    5.2650 C.ar      1 TRR200      0.0000 
     11 C12         2.1190   -4.9370    6.6120 C.ar      1 TRR200      0.0000 
     12 C13         2.6130   -6.1780    7.0340 C.ar      1 TRR200      0.0000 
     13 C14         2.8240   -7.1940    6.1010 C.ar      1 TRR200      0.0000 
     14 C15         2.5450   -6.9770    4.7520 C.ar      1 TRR200      0.0000 
     15 C16         2.0510   -5.7340    4.3340 C.ar      1 TRR200      0.0000 
     16 O13         2.8970   -6.4110    8.3780 O.3       1 TRR200      0.0000 
     17 O14         3.3110   -8.4170    6.5150 O.3       1 TRR200      0.0000 
     18 O15         2.7610   -8.0020    3.8330 O.3       1 TRR200      0.0000 
     19 C17         2.6820   -5.3810    9.3100 C.3       1 TRR200      0.0000 
     20 C18         4.5410   -8.8420    6.0000 C.3       1 TRR200      0.0000 
     21 C19         2.4770   -7.7720    2.4750 C.3       1 TRR200      0.0000 
     22 H          -2.9342   -4.8903    5.8024 H         1 TRR200      0.0000 
     23 H          -4.7720   -2.4487    4.5530 H         1 TRR200      0.0000 
     24 H          -4.7400   -4.1359    3.9384 H         1 TRR200      0.0000 
     25 H          -0.5435   -0.9281    2.5068 H         1 TRR200      0.0000 
     26 H           0.9486   -1.6184    3.2297 H         1 TRR200      0.0000 
     27 H          -0.5316   -4.9306    6.0308 H         1 TRR200      0.0000 
     28 H           1.6157   -2.6087    5.5353 H         1 TRR200      0.0000 
     29 H           1.7655   -3.1203    3.8454 H         1 TRR200      0.0000 
     30 H           1.9637   -4.1900    7.2988 H         1 TRR200      0.0000 
     31 H           1.8457   -5.5748    3.3413 H         1 TRR200      0.0000 
     32 H           2.9225   -5.6641   10.2384 H         1 TRR200      0.0000 
     33 H           3.2283   -4.5701    9.1000 H         1 TRR200      0.0000 
     34 H           1.7248   -5.0923    9.3303 H         1 TRR200      0.0000 
     35 H           5.2786   -8.2065    6.2280 H         1 TRR200      0.0000 
     36 H           4.8044   -9.7375    6.3587 H         1 TRR200      0.0000 
     37 H           4.5192   -8.9204    5.0033 H         1 TRR200      0.0000 
     38 H           3.0218   -7.0201    2.1038 H         1 TRR200      0.0000 
     39 H           2.6683   -8.5774    1.9140 H         1 TRR200      0.0000 
     40 H           1.5159   -7.5363    2.3313 H         1 TRR200      0.0000 
@<TRIPOS>BOND
     1    2    1 ar   
     2    8    1 ar   
     3   22    1 1    
     4    3    2 1    
     5    4    2 ar   
     6   23    3 1    
     7   24    3 1    
     8    5    4 ar   
     9    6    5 1    
    10    7    5 ar   
    11   25    6 1    
    12   26    6 1    
    13    8    7 ar   
    14    9    7 1    
    15   27    8 1    
    16   10    9 1    
    17   28    9 1    
    18   29    9 1    
    19   11   10 ar   
    20   15   10 ar   
    21   12   11 ar   
    22   30   11 1    
    23   13   12 ar   
    24   16   12 1    
    25   14   13 ar   
    26   17   13 1    
    27   15   14 ar   
    28   18   14 1    
    29   31   15 1    
    30   19   16 1    
    31   20   17 1    
    32   21   18 1    
    33   32   19 1    
    34   33   19 1    
    35   34   19 1    
    36   35   20 1    
    37   36   20 1    
    38   37   20 1    
    39   38   21 1    
    40   39   21 1    
    41   40   21 1    
@<TRIPOS>SUBSTRUCTURE
     1 TRR200      1 GROUP   
@<TRIPOS>SET

