#    Name: 2A2S_2_CAVITY_N1_6.mol2
#    Modification time : Tue Mar 11 00:16:32 2014

@<TRIPOS>MOLECULE
2A2S_2_CAVITY_N1_6.mol2
  158     0     7     0     0
SMALL
NO_CHARGES


@<TRIPOS>ATOM
      1 CA          9.0888   18.2235   -1.6929 C.3       6 GLY6        0.0000 
      2 CZ         10.7820   20.6169   -0.0635 C.ar      5 PHE5        0.0000 
      3 CZ         10.2357   19.2285   -0.2182 C.ar      5 PHE5        0.0000 
      4 DU          8.9744   19.6473    0.4774 H         7 CUB7        0.0000 
      5 CA          9.6893   17.8401   -0.3729 C.3       6 GLY6        0.0000 
      6 CZ         11.9289   21.6218    1.4112 C.ar      5 PHE5        0.0000 
      7 CA         10.6676   22.0406    2.1067 C.3       6 GLY6        0.0000 
      8 CZ         11.3826   20.2334    1.2565 C.ar      5 PHE5        0.0000 
      9 DU         10.1213   20.6522    1.9520 H         7 CUB7        0.0000 
     10 CA          8.8600   21.0710    2.6476 C.3       6 GLY6        0.0000 
     11 CZ         10.8362   18.8451    1.1018 C.ar      5 PHE5        0.0000 
     12 DU          9.5750   19.2639    1.7973 H         7 CUB7        0.0000 
     13 CZ          8.3137   19.6827    2.4929 C.ar      5 PHE5        0.0000 
     14 CZ          7.0524   20.1015    3.1884 C.ar      5 PHE5        0.0000 
     15 CZ         11.5512   17.0379    0.2515 C.ar      5 PHE5        0.0000 
     16 CZ         10.2899   17.4567    0.9471 C.ar      5 PHE5        0.0000 
     17 O          11.0049   15.6495    0.0968 O.2       2 ALA2        0.0000 
     18 CZ         12.5295   21.2384    2.7312 C.ar      5 PHE5        0.0000 
     19 OG         11.2682   21.6572    3.4267 O.2       1 SER1        0.0000 
     20 CZ         11.9831   19.8500    2.5765 C.ar      5 PHE5        0.0000 
     21 OG         10.7219   20.2688    3.2720 O.2       1 SER1        0.0000 
     22 OG          9.4606   20.6876    3.9675 O.2       1 SER1        0.0000 
     23 CZ         11.4368   18.4616    2.4217 C.ar      5 PHE5        0.0000 
     24 DU         10.1755   18.8804    3.1173 H         7 CUB7        0.0000 
     25 CZ          8.9143   19.2992    3.8128 C.ar      5 PHE5        0.0000 
     26 CZ         13.4131   16.2357    0.8759 C.ar      5 PHE5        0.0000 
     27 CZ         12.1518   16.6545    1.5715 C.ar      5 PHE5        0.0000 
     28 CZ         10.8905   17.0733    2.2670 C.ar      5 PHE5        0.0000 
     29 CZ         12.8668   14.8473    0.7212 C.ar      5 PHE5        0.0000 
     30 O          11.6055   15.2661    1.4168 O.2       2 ALA2        0.0000 
     31 DU         10.3442   15.6849    2.1123 H         7 CUB7        0.0000 
     32 OG         13.1300   20.8550    4.0511 O.2       1 SER1        0.0000 
     33 OG         11.8688   21.2738    4.7467 O.2       1 SER1        0.0000 
     34 CZ         12.5837   19.4666    3.8964 C.ar      5 PHE5        0.0000 
     35 OG         11.3224   19.8854    4.5919 O.2       1 SER1        0.0000 
     36 CZ         13.2987   17.6594    3.0462 C.ar      5 PHE5        0.0000 
     37 CZ         12.0374   18.0782    3.7417 C.ar      5 PHE5        0.0000 
     38 DU         10.7761   18.4970    4.4372 H         7 CUB7        0.0000 
     39 CZ          9.5148   18.9158    5.1328 C.ar      5 PHE5        0.0000 
     40 O          14.0137   15.8523    2.1959 O.2       2 ALA2        0.0000 
     41 CZ         12.7524   16.2711    2.8914 C.ar      5 PHE5        0.0000 
     42 DU         11.4911   16.6899    3.5870 H         7 CUB7        0.0000 
     43 DU         10.2298   17.1087    4.2825 H         7 CUB7        0.0000 
     44 CA         13.4673   14.4639    2.0412 C.3       6 GLY6        0.0000 
     45 O          12.2061   14.8827    2.7367 O.2       2 ALA2        0.0000 
     46 O          10.9448   15.3015    3.4323 O.2       2 ALA2        0.0000 
     47 OG         11.7544   22.6976    6.9169 O.2       1 SER1        0.0000 
     48 OG         12.4693   20.8904    6.0666 O.2       1 SER1        0.0000 
     49 OG         11.2081   21.3092    6.7622 O.2       1 SER1        0.0000 
     50 OG         13.1843   19.0832    5.2164 O.2       1 SER1        0.0000 
     51 OG         11.9230   19.5020    5.9119 O.2       1 SER1        0.0000 
     52 OG         10.6617   19.9208    6.6074 O.2       1 SER1        0.0000 
     53 N          13.8993   17.2760    4.3661 N.2       2 ALA2        0.0000 
     54 DU         12.6380   17.6948    5.0617 H         7 CUB7        0.0000 
     55 DU         11.3767   18.1136    5.7572 H         7 CUB7        0.0000 
     56 CZ         10.1154   18.5324    6.4527 C.ar      5 PHE5        0.0000 
     57 O          13.3530   15.8876    4.2114 O.2       2 ALA2        0.0000 
     58 O          12.0917   16.3064    4.9069 O.2       2 ALA2        0.0000 
     59 DU         10.8304   16.7252    5.6025 H         7 CUB7        0.0000 
     60 CZ          8.3078   17.5628    6.9936 C.ar      5 PHE5        0.0000 
     61 CA         12.3550   22.3141    8.2368 C.3       6 GLY6        0.0000 
     62 O          11.0937   22.7329    8.9324 O.2       2 ALA2        0.0000 
     63 OG         13.0699   20.5070    7.3866 O.2       1 SER1        0.0000 
     64 OG         11.8086   20.9258    8.0821 O.2       1 SER1        0.0000 
     65 CZ         10.5474   21.3446    8.7777 C.ar      5 PHE5        0.0000 
     66 N          15.0462   18.2810    5.8408 N.2       2 ALA2        0.0000 
     67 OG         13.7849   18.6998    6.5363 O.2       1 SER1        0.0000 
     68 OG         12.5236   19.1186    7.2319 O.2       1 SER1        0.0000 
     69 CZ         11.2623   19.5374    7.9274 C.ar      5 PHE5        0.0000 
     70 N          14.4999   16.8926    5.6861 N.2       2 ALA2        0.0000 
     71 DU         13.2386   17.3114    6.3816 H         7 CUB7        0.0000 
     72 DU         11.9773   17.7302    7.0772 H         7 CUB7        0.0000 
     73 CA         10.7160   18.1490    7.7727 C.3       6 GLY6        0.0000 
     74 O          13.9535   15.5042    5.5314 O.2       2 ALA2        0.0000 
     75 O          12.6923   15.9230    6.2269 O.2       2 ALA2        0.0000 
     76 DU         11.4310   16.3418    6.9224 H         7 CUB7        0.0000 
     77 CA         10.1697   16.7606    7.6180 C.3       6 GLY6        0.0000 
     78 O          10.8847   14.9534    6.7677 O.2       2 ALA2        0.0000 
     79 CA         12.2406   23.7379   10.4070 C.3       6 GLY6        0.0000 
     80 CA         12.9555   21.9307    9.5568 C.3       6 GLY6        0.0000 
     81 O          11.6943   22.3495   10.2523 O.2       2 ALA2        0.0000 
     82 O          10.4330   22.7683   10.9479 O.2       2 ALA2        0.0000 
     83 CA         12.4092   20.5423    9.4021 C.3       6 GLY6        0.0000 
     84 CA         11.1479   20.9611   10.0976 C.3       6 GLY6        0.0000 
     85 CA         13.1242   18.7352    8.5518 C.3       6 GLY6        0.0000 
     86 CA         11.8629   19.1540    9.2474 C.3       6 GLY6        0.0000 
     87 N          15.1004   16.5092    7.0060 N.2       2 ALA2        0.0000 
     88 CA         13.8392   16.9280    7.7016 C.3       6 GLY6        0.0000 
     89 O          12.5779   17.3468    8.3971 O.2       2 ALA2        0.0000 
     90 CA         11.3166   17.7656    9.0926 C.3       6 GLY6        0.0000 
     91 N          18.3380   13.8644    4.7647 N.2       2 ALA2        0.0000 
     92 N          17.0767   14.2832    5.4602 N.2       2 ALA2        0.0000 
     93 N          15.8154   14.7020    6.1558 N.2       2 ALA2        0.0000 
     94 N          14.5541   15.1208    6.8513 N.2       2 ALA2        0.0000 
     95 O          13.2928   15.5396    7.5469 O.2       2 ALA2        0.0000 
     96 O          12.0316   15.9584    8.2424 O.2       2 ALA2        0.0000 
     97 CA         10.7703   16.3772    8.9379 C.3       6 GLY6        0.0000 
     98 N          12.7465   14.1512    7.3921 N.2       2 ALA2        0.0000 
     99 O          11.4852   14.5700    8.0877 O.2       2 ALA2        0.0000 
    100 CA         10.2240   14.9888    8.7832 C.3       6 GLY6        0.0000 
    101 CA          8.9627   15.4076    9.4788 C.3       6 GLY6        0.0000 
    102 O          10.9389   13.1816    7.9330 O.2       2 ALA2        0.0000 
    103 DU          9.6776   13.6004    8.6285 H         7 CUB7        0.0000 
    104 CA         12.2948   21.9661   11.5723 C.3       6 GLY6        0.0000 
    105 CA         18.2236   15.2882    6.9349 C.3       6 GLY6        0.0000 
    106 N          16.9623   15.7070    7.6305 N.2       2 ALA2        0.0000 
    107 O          18.9386   13.4810    6.0847 O.2       2 ALA2        0.0000 
    108 N          17.6773   13.8998    6.7802 N.2       2 ALA2        0.0000 
    109 N          16.4160   14.3186    7.4757 N.2       2 ALA2        0.0000 
    110 N          15.1547   14.7374    8.1713 N.2       2 ALA2        0.0000 
    111 O          13.8934   15.1562    8.8668 O.2       2 ALA2        0.0000 
    112 O          12.6321   15.5750    9.5624 O.2       2 ALA2        0.0000 
    113 N          17.1310   12.5114    6.6255 N.2       2 ALA2        0.0000 
    114 N          14.6084   13.3490    8.0166 N.2       2 ALA2        0.0000 
    115 N          13.3471   13.7678    8.7121 N.2       2 ALA2        0.0000 
    116 DU         12.0858   14.1866    9.4076 H         7 CUB7        0.0000 
    117 CA         10.8245   14.6054   10.1032 C.3       6 GLY6        0.0000 
    118 CA          9.5633   15.0242   10.7987 C.3       6 GLY6        0.0000 
    119 CA          8.3020   15.4430   11.4943 C.3       6 GLY6        0.0000 
    120 N          12.8008   12.3794    8.5574 N.2       2 ALA2        0.0000 
    121 DU         11.5395   12.7982    9.2529 H         7 CUB7        0.0000 
    122 DU          9.0169   13.6358   10.6440 H         7 CUB7        0.0000 
    123 OD1        10.9932   11.4098    9.0982 O.3       3 ASP3        0.0000 
    124 DU          9.7319   11.8286    9.7937 H         7 CUB7        0.0000 
    125 OG         17.5629   15.3236    8.9504 O.2       1 SER1        0.0000 
    126 N          17.0166   13.9352    8.7957 N.2       2 ALA2        0.0000 
    127 O          15.7553   14.3540    9.4912 O.2       2 ALA2        0.0000 
    128 O          14.4940   14.7728   10.1868 O.2       2 ALA2        0.0000 
    129 O          11.9714   15.6104   11.5779 O.2       2 ALA2        0.0000 
    130 CA         10.7102   16.0292   12.2734 C.3       6 GLY6        0.0000 
    131 NZ         16.4703   12.5468    8.6410 N.2       4 LYS4        0.0000 
    132 NZ         15.2090   12.9656    9.3365 N.2       4 LYS4        0.0000 
    133 NZ         13.9477   13.3844   10.0321 N.2       4 LYS4        0.0000 
    134 O          12.6864   13.8032   10.7276 O.2       2 ALA2        0.0000 
    135 O          11.4251   14.2220   11.4231 O.2       2 ALA2        0.0000 
    136 CA         10.1638   14.6408   12.1187 C.3       6 GLY6        0.0000 
    137 NZ         13.4014   11.9960    9.8773 N.2       4 LYS4        0.0000 
    138 DU         12.1401   12.4148   10.5729 H         7 CUB7        0.0000 
    139 DU         10.8788   12.8336   11.2684 H         7 CUB7        0.0000 
    140 OD1        12.8551   10.6076    9.7226 O.3       3 ASP3        0.0000 
    141 OD1        11.5938   11.0264   10.4182 O.3       3 ASP3        0.0000 
    142 O          16.9022   15.3590   10.9659 O.2       2 ALA2        0.0000 
    143 N          16.3559   13.9706   10.8112 N.2       2 ALA2        0.0000 
    144 O          15.0946   14.3894   11.5067 O.2       2 ALA2        0.0000 
    145 NZ         15.8096   12.5822   10.6565 N.2       4 LYS4        0.0000 
    146 NZ         14.5483   13.0010   11.3520 N.2       4 LYS4        0.0000 
    147 O          13.2870   13.4198   12.0476 O.2       2 ALA2        0.0000 
    148 CA         12.0257   13.8386   12.7431 C.3       6 GLY6        0.0000 
    149 NZ         12.7407   12.0314   11.8928 N.2       4 LYS4        0.0000 
    150 CA         11.4794   12.4502   12.5884 C.3       6 GLY6        0.0000 
    151 NZ         12.1944   10.6430   11.7381 N.2       4 LYS4        0.0000 
    152 NZ         16.9565   13.5872   12.1312 N.2       4 LYS4        0.0000 
    153 NZ         13.8876   13.0364   13.3675 N.2       4 LYS4        0.0000 
    154 NZ         13.3413   11.6480   13.2128 N.2       4 LYS4        0.0000 
    155 NZ         12.7950   10.2596   13.0581 N.2       4 LYS4        0.0000 
    156 NZ         15.7495   12.2342   13.9919 N.2       4 LYS4        0.0000 
    157 NZ         14.4882   12.6530   14.6875 N.2       4 LYS4        0.0000 
    158 NZ         13.9419   11.2646   14.5328 N.2       4 LYS4        0.0000 
@<TRIPOS>BOND
@<TRIPOS>SUBSTRUCTURE
     1 SER1       19 GROUP   
     2 ALA2       17 GROUP   
     3 ASP3      123 GROUP   
     4 LYS4      131 GROUP   
     5 PHE5        2 GROUP   
     6 GLY6        1 GROUP   
     7 CUB7        4 GROUP   
@<TRIPOS>SET

