#    Name: 2a2s_GSN_2_INTS_M
#    Modification time : Mon Mar 24 18:25:46 2014

@<TRIPOS>MOLECULE
2a2s_GSN_2_INTS_M
   61     0    15     0     0
SMALL
NO_CHARGES


@<TRIPOS>ATOM
      1 N          19.6105   15.8395    8.7790 N.am      2 SEC2        0.0000 
      2 N          18.3110   15.5340    8.1940 N.am     12 SEL2        0.0000 
      3 N          20.9100   16.1450    9.3640 N.am      7 SEP2        0.0000 
      4 NZ         16.3400   16.2485   11.1255 N.4       4 LYC4        0.0000 
      5 NZ         17.7380   15.4000   10.3410 N.4      14 LYL4        0.0000 
      6 NZ         14.9420   17.0970   11.9100 N.4       9 LYP4        0.0000 
      7 N          19.3240   15.7725    9.8525 N.am      2 SEC2        0.0000 
      8 N          17.7380   15.4000   10.3410 N.am     12 SEL2        0.0000 
      9 N          18.3835   16.4550   10.7130 N.am      2 SEC2        0.0000 
     10 N          19.0290   17.5100   11.0850 N.am      7 SEP2        0.0000 
     11 N          18.8700   14.7565   11.1800 N.am      2 SEC2        0.0000 
     12 N          20.0020   14.1130   12.0190 N.am      7 SEP2        0.0000 
     13 OD1        16.1400   11.6910   11.0060 O.co2     3 ASC3        0.0000 
     14 OD1        16.5890   13.0280   10.0550 O.co2    13 ASL3        0.0000 
     15 OD1        15.6910   10.3540   11.9570 O.co2     8 ASP3        0.0000 
     16 OD1        16.3775   11.6020    9.9380 O.co2     3 ASC3        0.0000 
     17 OD1        16.1660   10.1760    9.8210 O.co2     8 ASP3        0.0000 
     18 O          16.3775   11.6020    9.9380 O.2       1 ALC1        0.0000 
     19 O          16.5890   13.0280   10.0550 O.2      11 ALL1        0.0000 
     20 O          16.1660   10.1760    9.8210 O.2       6 ALP1        0.0000 
     21 O          17.9030   12.6360   10.0455 O.2       1 ALC1        0.0000 
     22 O          19.2170   12.2440   10.0360 O.2       6 ALP1        0.0000 
     23 CA         15.6425   13.9785    5.1610 C.3       5 GLC5        0.0000 
     24 CA         15.5730   14.9760    6.9340 C.3      15 GLL5        0.0000 
     25 CA         15.7120   12.9810    3.3880 C.3      10 GLP5        0.0000 
     26 O          15.5590   16.3015    4.7955 O.2       1 ALC1        0.0000 
     27 O          14.2800   15.9430    5.1490 O.2      11 ALL1        0.0000 
     28 O          16.8380   16.6600    4.4420 O.2       6 ALP1        0.0000 
     29 CA         14.4020   14.7025    3.9080 C.3       5 GLC5        0.0000 
     30 CA         13.0920   16.4240    4.4280 C.3      15 GLL5        0.0000 
     31 CA         14.2860   18.3660    7.8915 C.3       5 GLC5        0.0000 
     32 CA         13.0370   18.7020    6.0840 C.3      15 GLL5        0.0000 
     33 CA         15.5350   18.0300    9.6990 C.3      10 GLP5        0.0000 
     34 N          15.6155   15.5605    2.3055 N.am      2 SEC2        0.0000 
     35 N          14.1980   15.7180    2.4120 N.am     12 SEL2        0.0000 
     36 N          17.0330   15.4030    2.1990 N.am      7 SEP2        0.0000 
     37 CA         12.7890   16.7660    0.2590 C.3       5 GLC5        0.0000 
     38 CA         11.7820   15.2120    1.0560 C.3      15 GLL5        0.0000 
     39 CA         13.7960   18.3200   -0.5380 C.3      10 GLP5        0.0000 
     40 CA         12.6635   15.1275   -0.6080 C.3       5 GLC5        0.0000 
     41 CA         13.5450   15.0430   -2.2720 C.3      10 GLP5        0.0000 
     42 NZ         11.7690   11.9590   -0.3970 N.4       4 LYC4        0.0000 
     43 NZ         11.2690   13.1920   -0.0760 N.4      14 LYL4        0.0000 
     44 NZ         12.2690   10.7260   -0.7180 N.4       9 LYP4        0.0000 
     45 N          11.7235   14.1565   -1.1530 N.am      2 SEC2        0.0000 
     46 N          11.2690   13.1920   -0.0760 N.am     12 SEL2        0.0000 
     47 N          12.1780   15.1210   -2.2300 N.am      7 SEP2        0.0000 
     48 N          11.7690   11.9590   -0.3970 N.am      2 SEC2        0.0000 
     49 N          12.2690   10.7260   -0.7180 N.am      7 SEP2        0.0000 
     50 NZ         11.8855   11.9185    0.7095 N.4       4 LYC4        0.0000 
     51 NZ         11.5020   13.1110    2.1370 N.4      14 LYL4        0.0000 
     52 N          11.9945   12.9525    3.4200 N.am      2 SEC2        0.0000 
     53 N          11.5020   13.1110    2.1370 N.am     12 SEL2        0.0000 
     54 N          12.4870   12.7940    4.7030 N.am      7 SEP2        0.0000 
     55 CA         15.6893   16.2731    8.7245 C.3       5 GLC5        0.0000 
     56 CA         15.4360   14.2900    8.2970 C.3      15 GLL5        0.0000 
     57 CA         13.5213   17.9887    2.5920 C.3       5 GLC5        0.0000 
     58 CA         13.9530   18.7880    0.7630 C.3      10 GLP5        0.0000 
     59 CA         14.7710   19.5358    4.7520 C.3       5 GLC5        0.0000 
     60 CA         13.0870   17.9550    4.4140 C.3      15 GLL5        0.0000 
     61 CA         16.4800   20.7430    4.2550 C.3      10 GLP5        0.0000 
@<TRIPOS>BOND
@<TRIPOS>SUBSTRUCTURE
     1 ALC1       18 GROUP        1 X    ALC  0     ROOT ALC X 1
     2 SEC2        1 GROUP        1 X    SEC  0     **** SEC X 2
     3 ASC3       13 GROUP        1 X    ASC  0     **** ASC X 3
     4 LYC4        4 GROUP        1 X    LYC  0     **** LYC X 4
     5 GLC5       23 GROUP        1 X    GLC  0     **** GLC X 6
     6 ALP1       20 GROUP        1 Y    ALP  0     ROOT ALP Y 8
     7 SEP2        3 GROUP        1 Y    SEP  0     **** SEP Y 9
     8 ASP3       15 GROUP        1 Y    ASP  0     **** ASP Y 10
     9 LYP4        6 GROUP        1 Y    LYP  0     **** LYP Y 11
    10 GLP5       25 GROUP        1 Y    GLP  0     **** GLP Y 13
    11 ALL1       19 GROUP        1 Z    ALL  0     ROOT ALL Z 15
    12 SEL2        2 GROUP        1 Z    SEL  0     **** SEL Z 16
    13 ASL3       14 GROUP        1 Z    ASL  0     **** ASL Z 17
    14 LYL4        5 GROUP        1 Z    LYL  0     **** LYL Z 18
    15 GLL5       24 GROUP        1 Z    GLL  0     **** GLL Z 20
@<TRIPOS>SET

