#    Name: 2a2s_GSN_2_ligand
#    Modification time : Mon Mar 24 18:25:46 2014

@<TRIPOS>MOLECULE
2a2s_GSN_2_ligand
   37    36     1     0     0
SMALL
NO_CHARGES


@<TRIPOS>ATOM
      1 OXT        18.3110   15.5340    8.1940 O.co2     1 GSN2221     0.0000 
      2 C          17.6900   15.0220    9.1510 C.2       1 GSN2221     0.0000 
      3 O          17.7380   15.4000   10.3410 O.co2     1 GSN2221     0.0000 
      4 CA         16.7920   13.8230    8.8350 C.3       1 GSN2221     0.0000 
      5 N          16.5890   13.0280   10.0550 N.4       1 GSN2221     0.0000 
      6 CB         15.4360   14.2900    8.2970 C.3       1 GSN2221     0.0000 
      7 CAG        15.5730   14.9760    6.9340 C.3       1 GSN2221     0.0000 
      8 CAH        14.2190   15.4110    6.3670 C.2       1 GSN2221     0.0000 
      9 OAI        13.1790   15.2640    7.0060 O.2       1 GSN2221     0.0000 
     10 NAJ        14.2800   15.9430    5.1490 N.am      1 GSN2221     0.0000 
     11 CAK        13.0920   16.4240    4.4280 C.3       1 GSN2221     0.0000 
     12 CAL        13.0870   17.9550    4.4140 C.3       1 GSN2221     0.0000 
     13 SAM        13.0370   18.7020    6.0840 S.3       1 GSN2221     0.0000 
     14 NAN        11.5640   18.2060    6.5770 N.2       1 GSN2221     0.0000 
     15 OAV        11.0860   18.5650    7.8660 O.2       1 GSN2221     0.0000 
     16 CAO        13.1270   15.9110    2.9870 C.2       1 GSN2221     0.0000 
     17 OAP        14.1980   15.7180    2.4120 O.2       1 GSN2221     0.0000 
     18 NAQ        11.9350   15.6960    2.4360 N.am      1 GSN2221     0.0000 
     19 CAR        11.7820   15.2120    1.0560 C.3       1 GSN2221     0.0000 
     20 CAS        11.4920   13.7100    1.0400 C.2       1 GSN2221     0.0000 
     21 OAU        11.2690   13.1920   -0.0760 O.co2     1 GSN2221     0.0000 
     22 OAT        11.5020   13.1110    2.1370 O.co2     1 GSN2221     0.0000 
     23 H          17.2724   13.2257    8.0791 H         1 GSN2221     0.0000 
     24 H          14.9910   14.9899    9.0067 H         1 GSN2221     0.0000 
     25 H          14.7736   13.4279    8.1987 H         1 GSN2221     0.0000 
     26 H          16.0498   14.2854    6.2326 H         1 GSN2221     0.0000 
     27 H          16.2162   15.8544    7.0390 H         1 GSN2221     0.0000 
     28 H          15.1847   16.0493    4.6326 H         1 GSN2221     0.0000 
     29 H          12.1966   16.0803    4.8954 H         1 GSN2221     0.0000 
     30 H          12.2122   18.3786    3.9541 H         1 GSN2221     0.0000 
     31 H          13.9835   18.3849    4.0044 H         1 GSN2221     0.0000 
     32 H          11.0430   15.8588    2.9522 H         1 GSN2221     0.0000 
     33 H          12.6948   15.3920    0.4797 H         1 GSN2221     0.0000 
     34 H          10.9564   15.7268    0.5550 H         1 GSN2221     0.0000 
     35 H          16.1521   13.5627   10.7783 H         1 GSN2221     0.0000 
     36 H          16.0076   12.2319    9.8871 H         1 GSN2221     0.0000 
     37 H          17.4535   12.6869   10.4242 H         1 GSN2221     0.0000 
@<TRIPOS>BOND
     1    2    1 ar   
     2    3    2 ar   
     3    4    2 1    
     4    5    4 1    
     5    6    4 1    
     6   23    4 1    
     7   35    5 1    
     8   36    5 1    
     9   37    5 1    
    10    7    6 1    
    11   24    6 1    
    12   25    6 1    
    13    8    7 1    
    14   26    7 1    
    15   27    7 1    
    16    9    8 2    
    17   10    8 am   
    18   11   10 1    
    19   28   10 1    
    20   12   11 1    
    21   16   11 1    
    22   29   11 1    
    23   13   12 1    
    24   30   12 1    
    25   31   12 1    
    26   14   13 1    
    27   15   14 2    
    28   17   16 2    
    29   18   16 am   
    30   19   18 1    
    31   32   18 1    
    32   20   19 1    
    33   33   19 1    
    34   34   19 1    
    35   21   20 ar   
    36   22   20 ar   
@<TRIPOS>SUBSTRUCTURE
     1 GSN2221     1 GROUP   
@<TRIPOS>SET

