#    Name: 1v1b_ATP_3_INTS_M
#    Modification time : Tue Mar 25 07:26:28 2014

@<TRIPOS>MOLECULE
1v1b_ATP_3_INTS_M
   48     0     9     0     0
SMALL
NO_CHARGES


@<TRIPOS>ATOM
      1 N          13.7520   30.3200  108.0370 N.am      2 SEC2        0.0000 
      2 N          14.4940   31.5430  107.8900 N.am      8 SEL2        0.0000 
      3 N          13.0100   29.0970  108.1840 N.am      5 SEP2        0.0000 
      4 N          11.3630   31.6740  106.3595 N.am      2 SEC2        0.0000 
      5 N          12.2630   32.1730  107.2650 N.am      8 SEL2        0.0000 
      6 N          10.4630   31.1750  105.4540 N.am      5 SEP2        0.0000 
      7 N          11.2170   32.3090  105.1645 N.am      2 SEC2        0.0000 
      8 N          11.9710   33.4430  104.8750 N.am      8 SEL2        0.0000 
      9 CA         10.6070   33.9445   99.2095 C.3       3 GLC5        0.0000 
     10 CA         10.5190   32.6560  100.8870 C.3       9 GLL5        0.0000 
     11 CA         10.6950   35.2330   97.5320 C.3       6 GLP5        0.0000 
     12 CA         10.2510   30.9090  102.8210 C.3       3 GLC5        0.0000 
     13 CA          9.3790   31.7040  100.9310 C.3       9 GLL5        0.0000 
     14 CA         11.1230   30.1140  104.7110 C.3       6 GLP5        0.0000 
     15 CA          8.8905   29.9090  101.7730 C.3       3 GLC5        0.0000 
     16 CA          8.4020   28.1140  102.6150 C.3       6 GLP5        0.0000 
     17 CA          9.8445   33.5615   98.5255 C.3       3 GLC5        0.0000 
     18 CA          8.9940   31.8900   99.5190 C.3       9 GLL5        0.0000 
     19 O           8.9565   31.0870   97.0780 O.2       1 ALC1        0.0000 
     20 O           9.3610   30.8520   98.6250 O.2       7 ALL1        0.0000 
     21 O           8.5520   31.3220   95.5310 O.2       4 ALP1        0.0000 
     22 N           6.1220   30.4390   98.4540 N.am      2 SEC2        0.0000 
     23 N           6.7130   31.0590   99.3400 N.am      8 SEL2        0.0000 
     24 N           5.5310   29.8190   97.5680 N.am      5 SEP2        0.0000 
     25 CA          6.1850   31.8700  102.4815 C.3       3 GLC5        0.0000 
     26 CA          7.2280   32.7030  101.0980 C.3       9 GLL5        0.0000 
     27 CA          5.1420   31.0370  103.8650 C.3       6 GLP5        0.0000 
     28 CA          3.3880   37.5645  101.2800 C.3       3 GLC5        0.0000 
     29 CA          4.9690   36.9950  100.6050 C.3       9 GLL5        0.0000 
     30 CA          1.8070   38.1340  101.9550 C.3       6 GLP5        0.0000 
     31 CA          4.1370   34.6010   98.1240 C.3       3 GLC5        0.0000 
     32 CA          3.8120   35.0850   99.7750 C.3       9 GLL5        0.0000 
     33 CA          4.4620   34.1170   96.4730 C.3       6 GLP5        0.0000 
     34 CA          1.9860   34.8680   98.6755 C.3       3 GLC5        0.0000 
     35 CA          0.1600   34.6510   97.5760 C.3       6 GLP5        0.0000 
     36 CA          2.8095   36.6095  100.8650 C.3       3 GLC5        0.0000 
     37 CA          2.7080   34.4110  100.9140 C.3       3 GLC5        0.0000 
     38 CA          1.6040   33.7370  102.0530 C.3       6 GLP5        0.0000 
     39 CA          4.2830   34.3115  101.9285 C.3       3 GLC5        0.0000 
     40 CA          5.8840   34.7990  100.7400 C.3       9 GLL5        0.0000 
     41 CA          2.6820   33.8240  103.1170 C.3       6 GLP5        0.0000 
     42 CA         11.0252   30.9795   99.3115 C.3       3 GLC5        0.0000 
     43 CA         12.5790   29.9240   98.4090 C.3       6 GLP5        0.0000 
     44 CA          7.8570   30.0375   99.9340 C.3       3 GLC5        0.0000 
     45 CA          7.4780   28.0270  100.2920 C.3       6 GLP5        0.0000 
     46 CA          5.5669   36.0096  102.8482 C.3       3 GLC5        0.0000 
     47 CA          6.0620   36.1400  101.0130 C.3       9 GLL5        0.0000 
     48 CA          5.4340   36.3360  104.9220 C.3       6 GLP5        0.0000 
@<TRIPOS>BOND
@<TRIPOS>SUBSTRUCTURE
     1 ALC1       19 GROUP        1 X    ALC  0     ROOT ALC X 1
     2 SEC2        1 GROUP        1 X    SEC  0     **** SEC X 2
     3 GLC5        9 GROUP        1 X    GLC  0     **** GLC X 6
     4 ALP1       21 GROUP        1 Y    ALP  0     ROOT ALP Y 8
     5 SEP2        3 GROUP        1 Y    SEP  0     **** SEP Y 9
     6 GLP5       11 GROUP        1 Y    GLP  0     **** GLP Y 13
     7 ALL1       20 GROUP        1 Z    ALL  0     ROOT ALL Z 15
     8 SEL2        2 GROUP        1 Z    SEL  0     **** SEL Z 16
     9 GLL5       10 GROUP        1 Z    GLL  0     **** GLL Z 20
@<TRIPOS>SET

