#    Name: 1v1b_ATP_3_ligand
#    Modification time : Tue Mar 25 07:26:28 2014

@<TRIPOS>MOLECULE
1v1b_ATP_3_ligand
   43    45     1     0     0
SMALL
NO_CHARGES


@<TRIPOS>ATOM
      1 PG         13.6860   32.4610  107.0490 P.3       1 ATP1301     0.0000 
      2 O1G        13.9810   33.8760  107.4430 O.co2     1 ATP1301     0.0000 
      3 O2G        14.4940   31.5430  107.8900 O.co2     1 ATP1301     0.0000 
      4 O3G        12.2630   32.1730  107.2650 O.co2     1 ATP1301     0.0000 
      5 PB         13.3300   33.2510  104.4930 P.3       1 ATP1301     0.0000 
      6 O1B        11.9710   33.4430  104.8750 O.co2     1 ATP1301     0.0000 
      7 O2B        14.0170   34.5350  104.5140 O.co2     1 ATP1301     0.0000 
      8 O3B        14.0670   32.2250  105.4960 O.3       1 ATP1301     0.0000 
      9 PA         12.4600   33.3370  101.9460 P.3       1 ATP1301     0.0000 
     10 O1A        13.0510   33.1640  100.6290 O.co2     1 ATP1301     0.0000 
     11 O2A        12.3340   34.7810  102.2070 O.co2     1 ATP1301     0.0000 
     12 O3A        13.4070   32.6360  103.0210 O.3       1 ATP1301     0.0000 
     13 O5'        11.1080   32.7110  102.0160 O.3       1 ATP1301     0.0000 
     14 C5'        10.5190   32.6560  100.8870 C.3       1 ATP1301     0.0000 
     15 C4'         9.3790   31.7040  100.9310 C.3       1 ATP1301     0.0000 
     16 O4'         8.4570   32.3710  101.8400 O.3       1 ATP1301     0.0000 
     17 C3'         8.9940   31.8900   99.5190 C.3       1 ATP1301     0.0000 
     18 O3'         9.3610   30.8520   98.6250 O.3       1 ATP1301     0.0000 
     19 C2'         7.4780   32.2060   99.6330 C.3       1 ATP1301     0.0000 
     20 O2'         6.7130   31.0590   99.3400 O.3       1 ATP1301     0.0000 
     21 C1'         7.2280   32.7030  101.0980 C.3       1 ATP1301     0.0000 
     22 N9          6.9960   34.1720  101.1910 N.pl3     1 ATP1301     0.0000 
     23 C8          7.7980   35.2000  101.7230 C.2       1 ATP1301     0.0000 
     24 N7          7.2790   36.3900  101.6380 N.2       1 ATP1301     0.0000 
     25 C5          6.0620   36.1400  101.0130 C.ar      1 ATP1301     0.0000 
     26 C6          4.9690   36.9950  100.6050 C.ar      1 ATP1301     0.0000 
     27 N6          4.9920   38.3050  100.7990 N.pl3     1 ATP1301     0.0000 
     28 N1          3.8640   36.4190   99.9870 N.ar      1 ATP1301     0.0000 
     29 C2          3.8120   35.0850   99.7750 C.ar      1 ATP1301     0.0000 
     30 N3          4.7610   34.1800  100.1080 N.ar      1 ATP1301     0.0000 
     31 C4          5.8840   34.7990  100.7400 C.ar      1 ATP1301     0.0000 
     32 H          11.1719   32.3213  100.0329 H         1 ATP1301     0.0000 
     33 H          10.0933   33.6359  100.5316 H         1 ATP1301     0.0000 
     34 H           9.6760   30.7976  101.1605 H         1 ATP1301     0.0000 
     35 H           9.4452   32.8722   99.2108 H         1 ATP1301     0.0000 
     36 H           7.2742   33.0327   98.9795 H         1 ATP1301     0.0000 
     37 H           6.4088   32.1532  101.4965 H         1 ATP1301     0.0000 
     38 H           8.6917   34.9761  102.1245 H         1 ATP1301     0.0000 
     39 H           4.1961   38.8127  100.4692 H         1 ATP1301     0.0000 
     40 H           5.8032   38.6677  101.2577 H         1 ATP1301     0.0000 
     41 H           2.9200   34.7010   99.2891 H         1 ATP1301     0.0000 
     42 H           9.0791   31.1765   97.7221 H         1 ATP1301     0.0000 
     43 H           7.3543   30.4230   98.9108 H         1 ATP1301     0.0000 
@<TRIPOS>BOND
     1    2    1 ar   
     2    3    1 ar   
     3    4    1 ar   
     4    8    1 1    
     5    6    5 ar   
     6    7    5 ar   
     7    8    5 1    
     8   12    5 1    
     9   10    9 ar   
    10   11    9 ar   
    11   12    9 1    
    12   13    9 1    
    13   14   13 1    
    14   15   14 1    
    15   32   14 1    
    16   33   14 1    
    17   16   15 1    
    18   17   15 1    
    19   34   15 1    
    20   21   16 1    
    21   18   17 1    
    22   19   17 1    
    23   35   17 1    
    24   42   18 1    
    25   20   19 1    
    26   21   19 1    
    27   36   19 1    
    28   43   20 1    
    29   22   21 1    
    30   37   21 1    
    31   23   22 1    
    32   31   22 1    
    33   24   23 2    
    34   38   23 1    
    35   25   24 1    
    36   26   25 ar   
    37   31   25 ar   
    38   27   26 1    
    39   28   26 ar   
    40   39   27 1    
    41   40   27 1    
    42   29   28 ar   
    43   30   29 ar   
    44   41   29 1    
    45   31   30 ar   
@<TRIPOS>SUBSTRUCTURE
     1 ATP1301     1 GROUP   
@<TRIPOS>SET

