#    Name: 4aa1_TYR_ILE_HIS_PRO_PHE_1_INTS_M
#    Modification time : Tue Mar 25 05:21:20 2014

@<TRIPOS>MOLECULE
4aa1_TYR_ILE_HIS_PRO_PHE_1_INTS_M
   79     0    12     0     0
SMALL
NO_CHARGES


@<TRIPOS>ATOM
      1 O          -8.5020   21.8615   21.5300 O.2       1 ALC1        0.0000 
      2 O          -9.0950   23.2670   21.3540 O.2       9 ALL1        0.0000 
      3 O          -7.9090   20.4560   21.7060 O.2       5 ALP1        0.0000 
      4 N         -10.7735   20.4180   22.6035 N.am      2 SEC2        0.0000 
      5 N         -11.5660   21.4330   22.0120 N.am     10 SEL2        0.0000 
      6 N          -9.9810   19.4030   23.1950 N.am      6 SEP2        0.0000 
      7 CA         -8.8700   20.9405   18.6215 C.3       4 GLC5        0.0000 
      8 CA        -10.3450   22.2750   19.4430 C.3      12 GLL5        0.0000 
      9 CA         -7.3950   19.6060   17.8000 C.3       8 GLP5        0.0000 
     10 N          -7.6490   25.5320   13.8500 N.am      2 SEC2        0.0000 
     11 N          -8.2910   25.1830   14.9950 N.am     10 SEL2        0.0000 
     12 N          -7.0070   25.8810   12.7050 N.am      6 SEP2        0.0000 
     13 CA        -12.1815   21.7795   24.2110 C.3       4 GLC5        0.0000 
     14 CA        -13.2750   23.3190   23.2460 C.3      12 GLL5        0.0000 
     15 CA        -11.0880   20.2400   25.1760 C.3       8 GLP5        0.0000 
     16 Zn        -15.2295   22.6175   20.9780 Zn        3 ZIC7        0.0000 
     17 Zn        -15.2170   23.3500   21.7970 Zn       11 ZIL7        0.0000 
     18 Zn        -15.2420   21.8850   20.1590 Zn        7 ZIP7        0.0000 
     19 N         -15.5885   24.6455   21.8130 N.am      2 SEC2        0.0000 
     20 N         -15.2170   23.3500   21.7970 N.am     10 SEL2        0.0000 
     21 N         -15.9600   25.9410   21.8290 N.am      6 SEP2        0.0000 
     22 CA        -14.3915   27.1395   23.8905 C.3       4 GLC5        0.0000 
     23 CA        -12.8550   25.8360   23.5710 C.3      12 GLL5        0.0000 
     24 CA        -15.9280   28.4430   24.2100 C.3       8 GLP5        0.0000 
     25 CA        -12.9155   27.6115   22.9535 C.3       4 GLC5        0.0000 
     26 CA        -12.9760   29.3870   22.3360 C.3       8 GLP5        0.0000 
     27 CA        -11.1325   22.7650   25.4965 C.3       4 GLC5        0.0000 
     28 CA        -12.1450   24.2050   25.3390 C.3      12 GLL5        0.0000 
     29 CA        -10.1200   21.3250   25.6540 C.3       8 GLP5        0.0000 
     30 CA        -11.3850   27.8895   23.7785 C.3       4 GLC5        0.0000 
     31 CA        -11.3490   26.0990   23.2810 C.3      12 GLL5        0.0000 
     32 CA        -11.4210   29.6800   24.2760 C.3       8 GLP5        0.0000 
     33 O         -14.4835   21.8565   24.9780 O.2       1 ALC1        0.0000 
     34 O         -15.4520   22.4220   23.8540 O.2       9 ALL1        0.0000 
     35 O         -13.5150   21.2910   26.1020 O.2       5 ALP1        0.0000 
     36 CA        -16.8720   20.7535   22.3210 C.3       4 GLC5        0.0000 
     37 CA        -16.8950   22.1630   23.7960 C.3      12 GLL5        0.0000 
     38 CA        -16.8490   19.3440   20.8460 C.3       8 GLP5        0.0000 
     39 N         -16.6295   24.3970   25.7880 N.am      2 SEC2        0.0000 
     40 N         -17.1560   24.4040   24.5910 N.am     10 SEL2        0.0000 
     41 N         -16.1030   24.3900   26.9850 N.am      6 SEP2        0.0000 
     42 CA        -16.0760   19.9790   26.1345 C.3       4 GLC5        0.0000 
     43 CA        -17.2560   21.1920   24.9300 C.3      12 GLL5        0.0000 
     44 CA        -14.8960   18.7660   27.3390 C.3       8 GLP5        0.0000 
     45 CA        -20.2315   26.9535   23.3550 C.3       4 GLC5        0.0000 
     46 CA        -19.6740   24.8300   23.5320 C.3      12 GLL5        0.0000 
     47 CA        -20.7890   29.0770   23.1780 C.3       8 GLP5        0.0000 
     48 CA        -18.7490   25.0895   21.9930 C.3       4 GLC5        0.0000 
     49 CA        -17.8240   25.3490   20.4540 C.3       8 GLP5        0.0000 
     50 N         -21.8500   25.9505   25.6775 N.am      2 SEC2        0.0000 
     51 N         -20.3300   26.2540   25.3600 N.am     10 SEL2        0.0000 
     52 N         -23.3700   25.6470   25.9950 N.am      6 SEP2        0.0000 
     53 N         -20.4825   26.9225   26.5370 N.am      2 SEC2        0.0000 
     54 N         -20.6350   27.5910   27.7140 N.am      6 SEP2        0.0000 
     55 N         -20.8805   27.1400   24.5720 N.am      2 SEC2        0.0000 
     56 N         -21.4310   28.0260   23.7840 N.am      6 SEP2        0.0000 
     57 CA        -22.1730   25.7765   21.9530 C.3       4 GLC5        0.0000 
     58 CA        -20.9580   24.5530   22.7310 C.3      12 GLL5        0.0000 
     59 CA        -23.3880   27.0000   21.1750 C.3       8 GLP5        0.0000 
     60 CA        -18.6390   24.0425   21.3820 C.3       4 GLC5        0.0000 
     61 CA        -19.4540   22.7360   22.3100 C.3      12 GLL5        0.0000 
     62 CA        -11.2282   21.0772   18.5335 C.3       4 GLC5        0.0000 
     63 CA        -12.3870   19.4970   18.2160 C.3       8 GLP5        0.0000 
     64 CA         -9.2508   23.2270   14.9940 C.3       4 GLC5        0.0000 
     65 CA         -8.7820   24.4790   16.0750 C.3      12 GLL5        0.0000 
     66 CA        -10.1530   22.3050   13.4850 C.3       8 GLP5        0.0000 
     67 CA        -10.7539   23.0249   15.6041 C.3       4 GLC5        0.0000 
     68 CA        -10.1460   24.4360   16.3010 C.3      12 GLL5        0.0000 
     69 CA        -11.3250   22.1420   14.1460 C.3       8 GLP5        0.0000 
     70 CA        -13.7880   24.2195   26.2018 C.3       4 GLC5        0.0000 
     71 CA        -13.1790   24.5010   24.2680 C.3      12 GLL5        0.0000 
     72 CA        -14.9140   24.0860   27.6000 C.3       8 GLP5        0.0000 
     73 CA        -12.8205   25.7280   26.3592 C.3       4 GLC5        0.0000 
     74 CA        -12.9790   27.1030   27.9150 C.3       8 GLP5        0.0000 
     75 CA        -18.0620   18.9735   25.4258 C.3       4 GLC5        0.0000 
     76 CA        -18.1470   16.9540   25.9020 C.3       8 GLP5        0.0000 
     77 CA        -19.9480   24.7848   21.1408 C.3       4 GLC5        0.0000 
     78 CA        -20.9000   23.1180   22.3320 C.3      12 GLL5        0.0000 
     79 CA        -18.9670   25.7340   19.7500 C.3       8 GLP5        0.0000 
@<TRIPOS>BOND
@<TRIPOS>SUBSTRUCTURE
     1 ALC1        1 GROUP        1 X    ALC  0     ROOT ALC X 1
     2 SEC2        4 GROUP        1 X    SEC  0     **** SEC X 2
     3 ZIC7       16 GROUP        1 X    ZIC  0     **** ZIC X 5
     4 GLC5        7 GROUP        1 X    GLC  0     **** GLC X 6
     5 ALP1        3 GROUP        1 Y    ALP  0     ROOT ALP Y 8
     6 SEP2        6 GROUP        1 Y    SEP  0     **** SEP Y 9
     7 ZIP7       18 GROUP        1 Y    ZIP  0     **** ZIP Y 12
     8 GLP5        9 GROUP        1 Y    GLP  0     **** GLP Y 13
     9 ALL1        2 GROUP        1 Z    ALL  0     ROOT ALL Z 15
    10 SEL2        5 GROUP        1 Z    SEL  0     **** SEL Z 16
    11 ZIL7       17 GROUP        1 Z    ZIL  0     **** ZIL Z 19
    12 GLL5        8 GROUP        1 Z    GLL  0     **** GLL Z 20
@<TRIPOS>SET

