#    Name: 4aa1_TYR_ILE_HIS_PRO_PHE_1_ligand
#    Modification time : Tue Mar 25 05:21:20 2014

@<TRIPOS>MOLECULE
4aa1_TYR_ILE_HIS_PRO_PHE_1_ligand
   76    78     5     0     0
SMALL
NO_CHARGES


@<TRIPOS>ATOM
      1 N          -9.0950   23.2670   21.3540 N.4       1 TYR3        0.0000
      2 CA        -10.4390   23.1330   20.7090 C.3       1 TYR3        0.0000
      3 C         -11.5130   22.6190   21.6800 C.2       1 TYR3        0.0000
      4 O         -11.5660   21.4330   22.0120 O.2       1 TYR3        0.0000
      5 CB        -10.3450   22.2750   19.4430 C.3       1 TYR3        0.0000
      6 CG         -9.7940   23.0400   18.2590 C.ar      1 TYR3        0.0000
      7 CD1        -8.4220   23.1050   18.0200 C.ar      1 TYR3        0.0000
      8 CD2       -10.6450   23.7190   17.3880 C.ar      1 TYR3        0.0000
      9 CE1        -7.9150   23.8190   16.9310 C.ar      1 TYR3        0.0000
     10 CE2       -10.1460   24.4360   16.3010 C.ar      1 TYR3        0.0000
     11 CZ         -8.7820   24.4790   16.0750 C.ar      1 TYR3        0.0000
     12 OH         -8.2910   25.1830   14.9950 O.3       1 TYR3        0.0000
     13 HA        -10.7579   24.1467   20.3805 H         1 TYR3        0.0000
     14 HB2       -11.3458   21.8950   19.1996 H         1 TYR3        0.0000
     15 HB3        -9.7024   21.4094   19.6506 H         1 TYR3        0.0000
     16 HD1        -7.7693   22.6186   18.6566 H         1 TYR3        0.0000
     17 HD2       -11.6675   23.6904   17.5513 H         1 TYR3        0.0000
     18 HE1        -6.9013   23.8513   16.7700 H         1 TYR3        0.0000
     19 HE2       -10.7929   24.9286   15.6735 H         1 TYR3        0.0000
     20 HNCA       -8.4067   23.6041   20.7116 H         1 TYR3        0.0000
     21 H          -9.1145   23.9047   22.1240 H         1 TYR3        0.0000
     22 H          -8.7633   22.3919   21.7065 H         1 TYR3        0.0000
     23 HH         -8.8049   26.0409   14.9901 H         1 TYR3        0.0000
     24 N         -12.3830   23.5340   22.1010 N.am      2 ILE4        0.0000
     25 CA        -13.2750   23.3190   23.2460 C.3       2 ILE4        0.0000
     26 C         -14.7490   23.0380   22.8980 C.2       2 ILE4        0.0000
     27 O         -15.2170   23.3500   21.7970 O.2       2 ILE4        0.0000
     28 CB        -13.1790   24.5010   24.2680 C.3       2 ILE4        0.0000
     29 CG1       -12.8550   25.8360   23.5710 C.3       2 ILE4        0.0000
     30 CG2       -12.1450   24.2050   25.3390 C.3       2 ILE4        0.0000
     31 CD1       -11.3490   26.0990   23.2810 C.3       2 ILE4        0.0000
     32 HNCA      -12.4784   24.4664   21.6324 H         2 ILE4        0.0000
     33 HA        -12.9126   22.4234   23.8198 H         2 ILE4        0.0000
     34 HB        -14.1531   24.5984   24.7472 H         2 ILE4        0.0000
     35 HG12      -13.2382   26.6664   24.1929 H         2 ILE4        0.0000
     36 HG13      -13.4055   25.8820   22.6128 H         2 ILE4        0.0000
     37 HG21      -11.2353   24.0646   24.9482 H         2 ILE4        0.0000
     38 HG22      -12.0686   24.9530   25.9983 H         2 ILE4        0.0000
     39 HG23      -12.3721   23.3801   25.8566 H         2 ILE4        0.0000
     40 HD11      -10.8051   26.1073   24.1201 H         2 ILE4        0.0000
     41 HD12      -10.9576   25.3979   22.6849 H         2 ILE4        0.0000
     42 HD13      -11.2059   26.9801   22.8303 H         2 ILE4        0.0000
     43 N         -15.4520   22.4220   23.8540 N.am      3 HIS5        0.0000
     44 CA        -16.8950   22.1630   23.7960 C.3       3 HIS5        0.0000
     45 C         -17.6620   23.4880   23.9480 C.2       3 HIS5        0.0000
     46 O         -17.1560   24.4040   24.5910 O.2       3 HIS5        0.0000
     47 CB        -17.2560   21.1920   24.9300 C.3       3 HIS5        0.0000
     48 CG        -18.6980   20.7940   24.9690 C.2       3 HIS5        0.0000
     49 ND1       -19.2320   19.8390   24.1290 N.pl3     3 HIS5        0.0000
     50 CD2       -19.7160   21.2090   25.7610 C.2       3 HIS5        0.0000
     51 CE1       -20.5180   19.6930   24.3930 C.2       3 HIS5        0.0000
     52 NE2       -20.8380   20.5140   25.3780 N.2       3 HIS5        0.0000
     53 HNCA      -14.9800   22.0763   24.7379 H         3 HIS5        0.0000
     54 HA        -17.1589   21.7136   22.8626 H         3 HIS5        0.0000
     55 HB2       -16.9724   21.6630   25.8910 H         3 HIS5        0.0000
     56 HB3       -16.6222   20.2901   24.8269 H         3 HIS5        0.0000
     57 HD1       -18.7138   19.3652   23.4571 H         3 HIS5        0.0000
     58 HD2       -19.6738   21.8590   26.4553 H         3 HIS5        0.0000
     59 HE1       -21.1291   19.0821   23.9378 H         3 HIS5        0.0000
     60 N         -18.8690   23.6080   23.3430 N.am      4 PRO6        0.0000
     61 CA        -19.6740   24.8300   23.5320 C.3       4 PRO6        0.0000
     62 C         -20.0240   25.1220   24.9940 C.2       4 PRO6        0.0000
     63 O         -20.3300   26.2540   25.3600 O.2       4 PRO6        0.0000
     64 CB        -20.9580   24.5530   22.7310 C.3       4 PRO6        0.0000
     65 CG        -20.9000   23.1180   22.3320 C.3       4 PRO6        0.0000
     66 CD        -19.4540   22.7360   22.3100 C.3       4 PRO6        0.0000
     67 HA        -19.1927   25.6692   23.0877 H         4 PRO6        0.0000
     68 HB2       -20.9698   25.1880   21.8659 H         4 PRO6        0.0000
     69 HB3       -21.8060   24.7382   23.3620 H         4 PRO6        0.0000
     70 HG2       -21.3277   22.9896   21.3492 H         4 PRO6        0.0000
     71 HG3       -21.4280   22.5119   23.0526 H         4 PRO6        0.0000
     72 HD2       -19.3468   21.7088   22.5767 H         4 PRO6        0.0000
     73 HD3       -19.0371   22.9516   21.3522 H         4 PRO6        0.0000
     74 N         -20.0100   24.2380   25.8450 N.am      5 PHE7        0.0000
     75 HNCA      -19.7828   23.3194   25.5216 H         5 PHE7        0.0000
     76 H         -20.2271   24.5226   26.7787 H         5 PHE7        0.0000
@<TRIPOS>BOND
     1    2    1 1
     2   20    1 1
     3   21    1 1
     4   22    1 1
     5    3    2 1
     6    5    2 1
     7   13    2 1
     8    4    3 2
     9    6    5 1
    10   14    5 1
    11   15    5 1
    12    7    6 ar
    13    8    6 ar
    14    9    7 ar
    15   16    7 1
    16   10    8 ar
    17   17    8 1
    18   11    9 ar
    19   18    9 1
    20   11   10 ar
    21   19   10 1
    22   12   11 1
    23   23   12 1
    24   25   24 1
    25   32   24 1
    26   26   25 1
    27   28   25 1
    28   33   25 1
    29   27   26 2
    30   29   28 1
    31   30   28 1
    32   34   28 1
    33   31   29 1
    34   35   29 1
    35   36   29 1
    36   37   30 1
    37   38   30 1
    38   39   30 1
    39   40   31 1
    40   41   31 1
    41   42   31 1
    42   44   43 1
    43   53   43 1
    44   45   44 1
    45   47   44 1
    46   54   44 1
    47   46   45 2
    48   48   47 1
    49   55   47 1
    50   56   47 1
    51   49   48 1
    52   50   48 2
    53   51   49 1
    54   57   49 1
    55   52   50 1
    56   58   50 1
    57   52   51 2
    58   59   51 1
    59   61   60 1
    60   66   60 1
    61   62   61 1
    62   64   61 1
    63   67   61 1
    64   63   62 2
    65   65   64 1
    66   68   64 1
    67   69   64 1
    68   66   65 1
    69   70   65 1
    70   71   65 1
    71   72   66 1
    72   73   66 1
    73   75   74 1
    74   76   74 1
    75   24    3 am
    76   43   26 am
    77   60   45 am
    78   74   62 am
@<TRIPOS>SUBSTRUCTURE
     1 TYR3        1 RESIDUE
     2 ILE4       24 RESIDUE
     3 HIS5       43 RESIDUE
     4 PRO6       60 RESIDUE
     5 PHE7       74 RESIDUE
@<TRIPOS>SET

