#    Name: 4bbe_3O4_1_INTS_M
#    Modification time : Tue Mar 25 07:13:12 2014

@<TRIPOS>MOLECULE
4bbe_3O4_1_INTS_M
   63     0     6     0     0
SMALL
NO_CHARGES


@<TRIPOS>ATOM
      1 N           2.9200   -6.9540   -7.4880 N.am      1 SEC2        0.0000 
      2 N           2.6020   -6.9730   -6.0520 N.am      5 SEL2        0.0000 
      3 N           3.2380   -6.9350   -8.9240 N.am      3 SEP2        0.0000 
      4 CA          0.0890   -9.3090   -7.2105 C.3       2 GLC5        0.0000 
      5 CA          0.3690   -7.6770   -6.5640 C.3       6 GLL5        0.0000 
      6 CA         -0.1910  -10.9410   -7.8570 C.3       4 GLP5        0.0000 
      7 CA          1.9595   -7.9865   -8.0025 C.3       2 GLC5        0.0000 
      8 CA          3.5500   -8.2960   -9.4410 C.3       4 GLP5        0.0000 
      9 CA          0.7750   -5.8165   -5.5775 C.3       2 GLC5        0.0000 
     10 CA          1.1810   -3.9560   -4.5910 C.3       4 GLP5        0.0000 
     11 CA          7.4155   -9.2825   -3.3710 C.3       2 GLC5        0.0000 
     12 CA          6.9870   -9.2220   -1.2470 C.3       6 GLL5        0.0000 
     13 CA          7.8440   -9.3430   -5.4950 C.3       4 GLP5        0.0000 
     14 CA          9.4740  -10.8045    0.5535 C.3       2 GLC5        0.0000 
     15 CA          7.9290   -9.5790   -0.2880 C.3       6 GLL5        0.0000 
     16 CA         11.0190  -12.0300    1.3950 C.3       4 GLP5        0.0000 
     17 CA          8.5740   -8.8585    1.6460 C.3       2 GLC5        0.0000 
     18 CA          9.2190   -8.1380    3.5800 C.3       4 GLP5        0.0000 
     19 N           8.5570  -10.8035    1.8280 N.am      1 SEC2        0.0000 
     20 N           7.6340  -10.4910    0.6270 N.am      5 SEL2        0.0000 
     21 N           9.4800  -11.1160    3.0290 N.am      3 SEP2        0.0000 
     22 CA          6.2165  -12.9350   -0.3480 C.3       2 GLC5        0.0000 
     23 CA          6.4270  -11.0880    0.6560 C.3       6 GLL5        0.0000 
     24 CA          6.0060  -14.7820   -1.3520 C.3       4 GLP5        0.0000 
     25 CA          4.9415   -9.7605    1.1805 C.3       2 GLC5        0.0000 
     26 CA          3.4560   -8.4330    1.7050 C.3       4 GLP5        0.0000 
     27 CA          3.1005  -14.1355    0.0750 C.3       2 GLC5        0.0000 
     28 CA          2.6060  -12.8170    1.7010 C.3       6 GLL5        0.0000 
     29 CA          3.5950  -15.4540   -1.5510 C.3       4 GLP5        0.0000 
     30 CA          4.4380   -7.4640   -1.3765 C.3       2 GLC5        0.0000 
     31 CA          4.9780   -8.6210   -3.1770 C.3       6 GLL5        0.0000 
     32 CA          3.8980   -6.3070    0.4240 C.3       4 GLP5        0.0000 
     33 CA          2.0990  -13.3435    4.5480 C.3       2 GLC5        0.0000 
     34 CA          1.3720  -15.3760    4.1890 C.3       6 GLL5        0.0000 
     35 CA          2.8260  -11.3110    4.9070 C.3       4 GLP5        0.0000 
     36 CA          6.1575   -8.9062   -4.5630 C.3       2 GLC5        0.0000 
     37 CA          3.9640   -8.3180   -4.0850 C.3       6 GLL5        0.0000 
     38 CA          3.7860   -9.1300   -0.1887 C.3       2 GLC5        0.0000 
     39 CA          4.7450   -9.5300   -2.1420 C.3       6 GLL5        0.0000 
     40 CA          8.2990  -10.9333   -1.7548 C.3       2 GLC5        0.0000 
     41 CA          9.1400  -12.4660   -2.7420 C.3       4 GLP5        0.0000 
     42 CA          8.4540   -7.6728   -0.9198 C.3       2 GLC5        0.0000 
     43 CA          9.4500   -5.9450   -1.0720 C.3       4 GLP5        0.0000 
     44 CA          5.8064   -8.4366    0.3326 C.3       2 GLC5        0.0000 
     45 CA          4.4660   -7.3170    1.4250 C.3       4 GLP5        0.0000 
     46 CA          5.2043  -13.5793    0.1385 C.3       2 GLC5        0.0000 
     47 CA          3.7910  -12.1610    1.3670 C.3       6 GLL5        0.0000 
     48 CA          3.9228  -12.2240    3.6162 C.3       2 GLC5        0.0000 
     49 CA          5.0140  -12.5920    1.8910 C.3       6 GLL5        0.0000 
     50 CA          3.0297  -12.7185    3.8702 C.3       2 GLC5        0.0000 
     51 CA          3.8440  -14.3390    3.0970 C.3       6 GLL5        0.0000 
     52 CA          4.2859  -15.1884    1.5166 C.3       2 GLC5        0.0000 
     53 CA          2.6230  -13.9130    2.5700 C.3       6 GLL5        0.0000 
     54 CA          5.0430  -16.4150    0.2840 C.3       4 GLP5        0.0000 
     55 CA          3.0122  -11.9000    3.2205 C.3       2 GLC5        0.0000 
     56 CA          3.4801  -10.5149    1.6850 C.3       2 GLC5        0.0000 
     57 CA          3.1576  -10.4328   -4.8174 C.3       2 GLC5        0.0000 
     58 CA          2.4740   -9.8200   -2.9300 C.3       6 GLL5        0.0000 
     59 CA          3.4110  -11.6470   -6.1570 C.3       4 GLP5        0.0000 
     60 CA          5.0667  -10.9127   -3.5396 C.3       2 GLC5        0.0000 
     61 CA          5.1800  -12.5970   -4.6660 C.3       4 GLP5        0.0000 
     62 CA          2.4112  -17.4513    4.7058 C.3       2 GLC5        0.0000 
     63 CA          3.8840  -18.8990    5.3030 C.3       4 GLP5        0.0000 
@<TRIPOS>BOND
@<TRIPOS>SUBSTRUCTURE
     1 SEC2        1 GROUP        1 X    SEC  0     ROOT SEC X 2
     2 GLC5        4 GROUP        1 X    GLC  0     **** GLC X 6
     3 SEP2        3 GROUP        1 Y    SEP  0     ROOT SEP Y 9
     4 GLP5        6 GROUP        1 Y    GLP  0     **** GLP Y 13
     5 SEL2        2 GROUP        1 Z    SEL  0     ROOT SEL Z 16
     6 GLL5        5 GROUP        1 Z    GLL  0     **** GLL Z 20
@<TRIPOS>SET

