#    Name: 4bbe_3O4_1_ligand
#    Modification time : Tue Mar 25 07:13:12 2014

@<TRIPOS>MOLECULE
4bbe_3O4_1_ligand
   52    55     1     0     0
SMALL
NO_CHARGES


@<TRIPOS>ATOM
      1 O23         2.6020   -6.9730   -6.0520 O.2       1 3O42229     0.0000 
      2 C22         1.6770   -7.7360   -5.7750 C.2       1 3O42229     0.0000 
      3 N24         1.6930   -8.6600   -4.8080 N.am      1 3O42229     0.0000 
      4 C25         2.7050   -8.9160   -3.9660 C.ar      1 3O42229     0.0000 
      5 C26         3.9640   -8.3180   -4.0850 C.ar      1 3O42229     0.0000 
      6 C19         0.3690   -7.6770   -6.5640 C.3       1 3O42229     0.0000 
      7 C17         3.4870  -10.1240   -2.0230 C.ar      1 3O42229     0.0000 
      8 C16         4.7450   -9.5300   -2.1420 C.ar      1 3O42229     0.0000 
      9 C12         5.7420   -9.8450   -1.2160 C.ar      1 3O42229     0.0000 
     10 C11         6.9870   -9.2220   -1.2470 C.ar      1 3O42229     0.0000 
     11 C10         7.9290   -9.5790   -0.2880 C.ar      1 3O42229     0.0000 
     12 N15         7.6340  -10.4910    0.6270 N.ar      1 3O42229     0.0000 
     13 C14         6.4270  -11.0880    0.6560 C.ar      1 3O42229     0.0000 
     14 N13         5.4970  -10.7610   -0.2620 N.ar      1 3O42229     0.0000 
     15 N7          6.1890  -12.0030    1.6080 N.pl3     1 3O42229     0.0000 
     16 C1          5.0140  -12.5920    1.8910 C.ar      1 3O42229     0.0000 
     17 C2          5.0250  -13.6820    2.7600 C.ar      1 3O42229     0.0000 
     18 C3          3.8440  -14.3390    3.0970 C.ar      1 3O42229     0.0000 
     19 C4          2.6230  -13.9130    2.5700 C.ar      1 3O42229     0.0000 
     20 C5          2.6060  -12.8170    1.7010 C.ar      1 3O42229     0.0000 
     21 C6          3.7910  -12.1610    1.3670 C.ar      1 3O42229     0.0000 
     22 C90         2.4740   -9.8200   -2.9300 C.ar      1 3O42229     0.0000 
     23 N8          1.4280  -14.5830    2.9250 N.3       1 3O42229     0.0000 
     24 C13         4.9780   -8.6210   -3.1770 C.ar      1 3O42229     0.0000 
     25 C9          1.3720  -15.3760    4.1890 C.3       1 3O42229     0.0000 
     26 C31         0.5050  -16.6310    4.0280 C.3       1 3O42229     0.0000 
     27 O30        -0.7680  -16.2520    3.4610 O.3       1 3O42229     0.0000 
     28 C29        -0.6210  -15.7790    2.1030 C.3       1 3O42229     0.0000 
     29 C28         0.2190  -14.4920    2.0540 C.3       1 3O42229     0.0000 
     30 H           0.7947   -9.2660   -4.6916 H         1 3O42229     0.0000 
     31 H           4.1410   -7.6505   -4.8481 H         1 3O42229     0.0000 
     32 H           3.3079  -10.7913   -1.2591 H         1 3O42229     0.0000 
     33 H           7.2014   -8.5234   -1.9537 H         1 3O42229     0.0000 
     34 H           8.8585   -9.1122   -0.3141 H         1 3O42229     0.0000 
     35 H           7.0428  -12.3030    2.2209 H         1 3O42229     0.0000 
     36 H           5.9213  -14.0064    3.1591 H         1 3O42229     0.0000 
     37 H           3.8697  -15.1441    3.7386 H         1 3O42229     0.0000 
     38 H           1.7121  -12.4936    1.3061 H         1 3O42229     0.0000 
     39 H           3.7667  -11.3524    0.7294 H         1 3O42229     0.0000 
     40 H           1.5505  -10.2648   -2.8351 H         1 3O42229     0.0000 
     41 H           5.8994   -8.1751   -3.2684 H         1 3O42229     0.0000 
     42 H           0.9545  -14.7669    4.9975 H         1 3O42229     0.0000 
     43 H           2.3799  -15.6858    4.4841 H         1 3O42229     0.0000 
     44 H           0.3862  -17.0858    5.0117 H         1 3O42229     0.0000 
     45 H           1.0396  -17.3282    3.3825 H         1 3O42229     0.0000 
     46 H          -1.5963  -15.5581    1.6485 H         1 3O42229     0.0000 
     47 H          -0.1230  -16.5265    1.4707 H         1 3O42229     0.0000 
     48 H           0.5157  -14.3128    1.0140 H         1 3O42229     0.0000 
     49 H          -0.4132  -13.6549    2.3721 H         1 3O42229     0.0000 
     50 H           0.5132   -7.8609   -7.5363 H         1 3O42229     0.0000 
     51 H          -0.2944   -8.3485   -6.2339 H         1 3O42229     0.0000 
     52 H          -0.0651   -6.7786   -6.4968 H         1 3O42229     0.0000 
@<TRIPOS>BOND
     1    2    1 2    
     2    3    2 am   
     3    6    2 1    
     4    4    3 1    
     5   30    3 1    
     6    5    4 ar   
     7   22    4 ar   
     8   24    5 ar   
     9   31    5 1    
    10   50    6 1    
    11   51    6 1    
    12   52    6 1    
    13    8    7 ar   
    14   22    7 ar   
    15   32    7 1    
    16    9    8 1    
    17   24    8 ar   
    18   10    9 ar   
    19   14    9 ar   
    20   11   10 ar   
    21   33   10 1    
    22   12   11 ar   
    23   34   11 1    
    24   13   12 ar   
    25   14   13 ar   
    26   15   13 1    
    27   16   15 1    
    28   35   15 1    
    29   17   16 ar   
    30   21   16 ar   
    31   18   17 ar   
    32   36   17 1    
    33   19   18 ar   
    34   37   18 1    
    35   20   19 ar   
    36   23   19 1    
    37   21   20 ar   
    38   38   20 1    
    39   39   21 1    
    40   40   22 1    
    41   25   23 1    
    42   29   23 1    
    43   41   24 1    
    44   26   25 1    
    45   42   25 1    
    46   43   25 1    
    47   27   26 1    
    48   44   26 1    
    49   45   26 1    
    50   28   27 1    
    51   29   28 1    
    52   46   28 1    
    53   47   28 1    
    54   48   29 1    
    55   49   29 1    
@<TRIPOS>SUBSTRUCTURE
     1 3O42229     1 GROUP   
@<TRIPOS>SET

