#    Name: 3h3t_16H_1_INTS_M
#    Modification time : Tue Mar 25 13:33:30 2014

@<TRIPOS>MOLECULE
3h3t_16H_1_INTS_M
   90     0     9     0     0
SMALL
NO_CHARGES


@<TRIPOS>ATOM
      1 N           9.5595    1.2580   34.3485 N.am      2 SEC2        0.0000 
      2 N           8.3160    0.9210   33.6370 N.am      8 SEL2        0.0000 
      3 N          10.8030    1.5950   35.0600 N.am      5 SEP2        0.0000 
      4 O           6.4810    1.9355   30.6480 O.2       1 ALC1        0.0000 
      5 O           7.0670    0.9550   31.7190 O.2       7 ALL1        0.0000 
      6 O           5.8950    2.9160   29.5770 O.2       4 ALP1        0.0000 
      7 CA          6.1035   -0.1445   33.9565 C.3       3 GLC5        0.0000 
      8 CA          6.3470   -0.3100   31.8090 C.3       9 GLL5        0.0000 
      9 CA          5.8600    0.0210   36.1040 C.3       6 GLP5        0.0000 
     10 CA          3.3980    0.3045   30.3865 C.3       3 GLC5        0.0000 
     11 CA          4.9810   -0.2560   31.1180 C.3       9 GLL5        0.0000 
     12 CA          1.8150    0.8650   29.6550 C.3       6 GLP5        0.0000 
     13 CA          4.4375    1.5625   32.0020 C.3       3 GLC5        0.0000 
     14 CA          3.8940    3.3810   32.8860 C.3       6 GLP5        0.0000 
     15 N           5.7895   -0.6220   28.5685 N.am      2 SEC2        0.0000 
     16 N           5.0610    0.2630   29.7760 N.am      8 SEL2        0.0000 
     17 N           6.5180   -1.5070   27.3610 N.am      5 SEP2        0.0000 
     18 O           5.4780    1.5895   29.6765 O.2       1 ALC1        0.0000 
     19 O           5.0610    0.2630   29.7760 O.2       7 ALL1        0.0000 
     20 CA          6.1795   -3.0780   30.7460 C.3       3 GLC5        0.0000 
     21 CA          7.2260   -1.4480   31.2720 C.3       9 GLL5        0.0000 
     22 CA          5.1330   -4.7080   30.2200 C.3       6 GLP5        0.0000 
     23 N           7.2650   -2.5905   34.0005 N.am      2 SEC2        0.0000 
     24 N           8.4620   -1.9100   33.3930 N.am      8 SEL2        0.0000 
     25 N           6.0680   -3.2710   34.6080 N.am      5 SEP2        0.0000 
     26 CA          6.3565    3.7715   32.4840 C.3       3 GLC5        0.0000 
     27 CA          8.2980    2.9130   32.4340 C.3       9 GLL5        0.0000 
     28 CA          4.4150    4.6300   32.5340 C.3       6 GLP5        0.0000 
     29 CA          7.5500    4.0465   33.8190 C.3       3 GLC5        0.0000 
     30 CA          6.8020    5.1800   35.2040 C.3       6 GLP5        0.0000 
     31 CA          9.5445    4.4435   33.2900 C.3       3 GLC5        0.0000 
     32 CA          9.6150    3.0120   31.6870 C.3       9 GLL5        0.0000 
     33 CA          9.4740    5.8750   34.8930 C.3       6 GLP5        0.0000 
     34 CA         12.5075    4.5935   32.7210 C.3       3 GLC5        0.0000 
     35 CA         11.3210    4.7470   31.1550 C.3       9 GLL5        0.0000 
     36 CA         13.6940    4.4400   34.2870 C.3       6 GLP5        0.0000 
     37 CA         10.6805    5.0985   28.4425 C.3       3 GLC5        0.0000 
     38 CA         11.7830    4.1310   29.8450 C.3       9 GLL5        0.0000 
     39 CA          9.5780    6.0660   27.0400 C.3       6 GLP5        0.0000 
     40 CA         14.1150    3.3735   31.4330 C.3       3 GLC5        0.0000 
     41 CA         13.2650    3.8250   29.8800 C.3       9 GLL5        0.0000 
     42 CA         14.9650    2.9220   32.9860 C.3       6 GLP5        0.0000 
     43 CA         16.2235    5.0475   27.3645 C.3       3 GLC5        0.0000 
     44 CA         15.2310    3.4690   28.3190 C.3       9 GLL5        0.0000 
     45 CA         17.2160    6.6260   26.4100 C.3       6 GLP5        0.0000 
     46 CA         15.5515    3.6850   30.5115 C.3       3 GLC5        0.0000 
     47 CA         15.8720    3.9010   32.7040 C.3       6 GLP5        0.0000 
     48 CA         16.5035    2.4190   25.5100 C.3       3 GLC5        0.0000 
     49 CA         15.2140    2.6170   27.0530 C.3       9 GLL5        0.0000 
     50 CA         17.7930    2.2210   23.9670 C.3       6 GLP5        0.0000 
     51 CA         11.7335    0.8460   24.9415 C.3       3 GLC5        0.0000 
     52 CA         13.6900    1.3400   25.4370 C.3       9 GLL5        0.0000 
     53 CA          9.7770    0.3520   24.4460 C.3       6 GLP5        0.0000 
     54 CA         14.4470   -0.9265   23.8055 C.3       3 GLC5        0.0000 
     55 CA         14.9130    0.4470   25.2960 C.3       9 GLL5        0.0000 
     56 CA         13.9810   -2.3000   22.3150 C.3       6 GLP5        0.0000 
     57 CA         11.7105   -1.2015   25.6275 C.3       3 GLC5        0.0000 
     58 CA         13.8100   -1.5260   26.2630 C.3       9 GLL5        0.0000 
     59 CA          9.6110   -0.8770   24.9920 C.3       6 GLP5        0.0000 
     60 CA         13.8955   -1.9130   24.2890 C.3       3 GLC5        0.0000 
     61 CA         13.2270   -3.3020   29.1180 C.3       3 GLC5        0.0000 
     62 CA         13.4890   -2.1840   27.5800 C.3       9 GLL5        0.0000 
     63 CA         12.9650   -4.4200   30.6560 C.3       6 GLP5        0.0000 
     64 CA         10.3180   -1.9545   33.2533 C.3       3 GLC5        0.0000 
     65 CA          9.7300   -0.9450   31.4660 C.3       9 GLL5        0.0000 
     66 CA         11.5500   -2.8390   34.6940 C.3       6 GLP5        0.0000 
     67 CA          9.7540   -3.1215   31.1914 C.3       3 GLC5        0.0000 
     68 CA         10.0320   -5.1470   31.4250 C.3       6 GLP5        0.0000 
     69 CA         12.2927   -2.4743   30.2815 C.3       3 GLC5        0.0000 
     70 CA         11.0940   -0.7900   29.5340 C.3       9 GLL5        0.0000 
     71 CA         13.7215   -1.0905   31.3208 C.3       3 GLC5        0.0000 
     72 CA         12.1470   -0.2670   30.2800 C.3       9 GLL5        0.0000 
     73 CA         15.3760   -2.0150   31.6830 C.3       6 GLP5        0.0000 
     74 CA         11.4648   -1.5328   33.3070 C.3       3 GLC5        0.0000 
     75 CA         11.9870   -0.0650   31.6370 C.3       9 GLL5        0.0000 
     76 CA          9.7607    6.0802   32.1535 C.3       3 GLC5        0.0000 
     77 CA          9.8380    4.4700   31.3250 C.3       9 GLL5        0.0000 
     78 CA          8.9420    7.5520   33.0670 C.3       6 GLP5        0.0000 
     79 CA         12.6355    6.1985   29.9045 C.3       3 GLC5        0.0000 
     80 CA         13.7190    7.9580   29.3090 C.3       6 GLP5        0.0000 
     81 CA         13.6438    5.9723   29.2540 C.3       3 GLC5        0.0000 
     82 CA         15.1013    3.8810   25.8520 C.3       3 GLC5        0.0000 
     83 CA         14.9800    4.7190   24.0180 C.3       6 GLP5        0.0000 
     84 CA         16.0472    1.5573   24.6668 C.3       3 GLC5        0.0000 
     85 CA         14.6520    2.9103   24.8518 C.3       3 GLC5        0.0000 
     86 CA         14.3329   -3.2640   26.4114 C.3       3 GLC5        0.0000 
     87 CA         14.9710   -0.5620   26.4320 C.3       9 GLL5        0.0000 
     88 CA         14.7260   -4.9140   25.8590 C.3       6 GLP5        0.0000 
     89 CA         15.2549   -2.1040   28.2469 C.3       3 GLC5        0.0000 
     90 CA         16.5700   -2.5940   29.5300 C.3       6 GLP5        0.0000 
@<TRIPOS>BOND
@<TRIPOS>SUBSTRUCTURE
     1 ALC1        4 GROUP        1 X    ALC  0     ROOT ALC X 1
     2 SEC2        1 GROUP        1 X    SEC  0     **** SEC X 2
     3 GLC5        7 GROUP        1 X    GLC  0     **** GLC X 6
     4 ALP1        6 GROUP        1 Y    ALP  0     ROOT ALP Y 8
     5 SEP2        3 GROUP        1 Y    SEP  0     **** SEP Y 9
     6 GLP5        9 GROUP        1 Y    GLP  0     **** GLP Y 13
     7 ALL1        5 GROUP        1 Z    ALL  0     ROOT ALL Z 15
     8 SEL2        2 GROUP        1 Z    SEL  0     **** SEL Z 16
     9 GLL5        8 GROUP        1 Z    GLL  0     **** GLL Z 20
@<TRIPOS>SET

