#    Name: 3h3t_16H_1_ligand
#    Modification time : Tue Mar 25 13:33:31 2014

@<TRIPOS>MOLECULE
3h3t_16H_1_ligand
   75    75     1     0     0
SMALL
NO_CHARGES


@<TRIPOS>ATOM
      1 O21         8.3160    0.9210   33.6370 O.2       1 16H600      0.0000 
      2 C21         7.8890    1.4800   32.6400 C.2       1 16H600      0.0000 
      3 N2          7.0670    0.9550   31.7190 N.am      1 16H600      0.0000 
      4 C2          6.3470   -0.3100   31.8090 C.3       1 16H600      0.0000 
      5 C1          4.9810   -0.2560   31.1180 C.3       1 16H600      0.0000 
      6 O1          5.0610    0.2630   29.7760 O.3       1 16H600      0.0000 
      7 C3          7.2260   -1.4480   31.2720 C.3       1 16H600      0.0000 
      8 C4          8.4420   -1.1950   32.1590 C.3       1 16H600      0.0000 
      9 C5          9.7300   -0.9450   31.4660 C.ar      1 16H600      0.0000 
     10 C6          9.8660   -1.1220   30.1030 C.ar      1 16H600      0.0000 
     11 C7         11.0940   -0.7900   29.5340 C.ar      1 16H600      0.0000 
     12 C8         12.1470   -0.2670   30.2800 C.ar      1 16H600      0.0000 
     13 C9         11.9870   -0.0650   31.6370 C.ar      1 16H600      0.0000 
     14 C10        10.7720   -0.3880   32.2030 C.ar      1 16H600      0.0000 
     15 O4          8.4620   -1.9100   33.3930 O.3       1 16H600      0.0000 
     16 C22         8.2980    2.9130   32.4340 C.3       1 16H600      0.0000 
     17 C23         9.6150    3.0120   31.6870 C.3       1 16H600      0.0000 
     18 C24         9.8380    4.4700   31.3250 C.3       1 16H600      0.0000 
     19 C25        11.3210    4.7470   31.1550 C.3       1 16H600      0.0000 
     20 C26        11.7830    4.1310   29.8450 C.3       1 16H600      0.0000 
     21 C27        13.2650    3.8250   29.8800 C.3       1 16H600      0.0000 
     22 C28        13.8720    4.1480   28.5180 C.3       1 16H600      0.0000 
     23 C29        15.2310    3.4690   28.3190 C.3       1 16H600      0.0000 
     24 C30        15.2140    2.6170   27.0530 C.3       1 16H600      0.0000 
     25 C31        13.7800    2.1720   26.7130 C.3       1 16H600      0.0000 
     26 C32        13.6900    1.3400   25.4370 C.3       1 16H600      0.0000 
     27 C33        14.9130    0.4470   25.2960 C.3       1 16H600      0.0000 
     28 C34        14.9710   -0.5620   26.4320 C.3       1 16H600      0.0000 
     29 C35        13.8100   -1.5260   26.2630 C.3       1 16H600      0.0000 
     30 C36        13.4890   -2.1840   27.5800 C.3       1 16H600      0.0000 
     31 H           6.8917    1.4896   30.8025 H         1 16H600      0.0000 
     32 H           6.1623   -0.5371   32.8791 H         1 16H600      0.0000 
     33 H           4.3131    0.3620   31.7464 H         1 16H600      0.0000 
     34 H           4.5618   -1.2793   31.1264 H         1 16H600      0.0000 
     35 H           7.4641   -1.2699   30.2790 H         1 16H600      0.0000 
     36 H           6.7977   -2.3629   31.5044 H         1 16H600      0.0000 
     37 H           8.1645   -0.0409   32.5451 H         1 16H600      0.0000 
     38 H           9.1087   -1.4777   29.5358 H         1 16H600      0.0000 
     39 H          11.2293   -0.9394   28.5086 H         1 16H600      0.0000 
     40 H          13.0347   -0.0346   29.8196 H         1 16H600      0.0000 
     41 H          12.7458    0.3120   32.2025 H         1 16H600      0.0000 
     42 H          10.6216   -0.2103   33.2236 H         1 16H600      0.0000 
     43 H           8.3992    3.4092   33.4050 H         1 16H600      0.0000 
     44 H           7.5234    3.4377   31.8648 H         1 16H600      0.0000 
     45 H           9.5669    2.4192   30.7870 H         1 16H600      0.0000 
     46 H          10.4180    2.6699   32.3209 H         1 16H600      0.0000 
     47 H           9.4401    5.1034   32.1153 H         1 16H600      0.0000 
     48 H           9.3192    4.6948   30.3953 H         1 16H600      0.0000 
     49 H          11.8687    4.3039   31.9756 H         1 16H600      0.0000 
     50 H          11.4897    5.8151   31.1314 H         1 16H600      0.0000 
     51 H          11.5743    4.8254   29.0280 H         1 16H600      0.0000 
     52 H          11.2256    3.2090   29.6651 H         1 16H600      0.0000 
     53 H          13.4168    2.7752   30.0988 H         1 16H600      0.0000 
     54 H          13.7459    4.4308   30.6381 H         1 16H600      0.0000 
     55 H          13.9981    5.2305   28.4268 H         1 16H600      0.0000 
     56 H          13.1893    3.8158   27.7309 H         1 16H600      0.0000 
     57 H          15.4436    2.8377   29.1765 H         1 16H600      0.0000 
     58 H          16.0008    4.2298   28.2322 H         1 16H600      0.0000 
     59 H          15.8320    1.7345   27.2011 H         1 16H600      0.0000 
     60 H          15.6112    3.1945   26.2215 H         1 16H600      0.0000 
     61 H          13.1498    3.0659   26.6071 H         1 16H600      0.0000 
     62 H          13.3840    1.5871   27.5548 H         1 16H600      0.0000 
     63 H          13.6271    2.0060   24.5785 H         1 16H600      0.0000 
     64 H          12.7938    0.7235   25.4735 H         1 16H600      0.0000 
     65 H          15.8121    1.0614   25.3127 H         1 16H600      0.0000 
     66 H          14.8655   -0.0822   24.3453 H         1 16H600      0.0000 
     67 H          14.8810   -0.0482   27.3763 H         1 16H600      0.0000 
     68 H          15.9023   -1.1045   26.3858 H         1 16H600      0.0000 
     69 H          14.0778   -2.2847   25.5294 H         1 16H600      0.0000 
     70 H          12.9394   -0.9794   25.9041 H         1 16H600      0.0000 
     71 H          14.2679   -2.6996   27.9372 H         1 16H600      0.0000 
     72 H          13.2361   -1.5140   28.2780 H         1 16H600      0.0000 
     73 H          12.7257   -2.8249   27.4987 H         1 16H600      0.0000 
     74 H           5.3604    1.2111   29.8827 H         1 16H600      0.0000 
     75 H           8.2855   -1.2198   34.0948 H         1 16H600      0.0000 
@<TRIPOS>BOND
     1    2    1 2    
     2    3    2 am   
     3   16    2 1    
     4    4    3 1    
     5   31    3 1    
     6    5    4 1    
     7    7    4 1    
     8   32    4 1    
     9    6    5 1    
    10   33    5 1    
    11   34    5 1    
    12   74    6 1    
    13    8    7 1    
    14   35    7 1    
    15   36    7 1    
    16    9    8 1    
    17   15    8 1    
    18   37    8 1    
    19   10    9 ar   
    20   14    9 ar   
    21   11   10 ar   
    22   38   10 1    
    23   12   11 ar   
    24   39   11 1    
    25   13   12 ar   
    26   40   12 1    
    27   14   13 ar   
    28   41   13 1    
    29   42   14 1    
    30   75   15 1    
    31   17   16 1    
    32   43   16 1    
    33   44   16 1    
    34   18   17 1    
    35   45   17 1    
    36   46   17 1    
    37   19   18 1    
    38   47   18 1    
    39   48   18 1    
    40   20   19 1    
    41   49   19 1    
    42   50   19 1    
    43   21   20 1    
    44   51   20 1    
    45   52   20 1    
    46   22   21 1    
    47   53   21 1    
    48   54   21 1    
    49   23   22 1    
    50   55   22 1    
    51   56   22 1    
    52   24   23 1    
    53   57   23 1    
    54   58   23 1    
    55   25   24 1    
    56   59   24 1    
    57   60   24 1    
    58   26   25 1    
    59   61   25 1    
    60   62   25 1    
    61   27   26 1    
    62   63   26 1    
    63   64   26 1    
    64   28   27 1    
    65   65   27 1    
    66   66   27 1    
    67   29   28 1    
    68   67   28 1    
    69   68   28 1    
    70   30   29 1    
    71   69   29 1    
    72   70   29 1    
    73   71   30 1    
    74   72   30 1    
    75   73   30 1    
@<TRIPOS>SUBSTRUCTURE
     1 16H600      1 GROUP   
@<TRIPOS>SET

