#    Name: 3vt9_YI4_1_INTS_M
#    Modification time : Tue Mar 25 01:34:12 2014

@<TRIPOS>MOLECULE
3vt9_YI4_1_INTS_M
  127     0     9     0     0
SMALL
NO_CHARGES


@<TRIPOS>ATOM
      1 N          10.1490   -0.7870   29.6460 N.am      2 SEC2        0.0000 
      2 N           9.5400   -0.9530   28.4510 N.am      8 SEL2        0.0000 
      3 N          10.7580   -0.6210   30.8410 N.am      5 SEP2        0.0000 
      4 O          10.7215   -1.6390   28.0100 O.2       1 ALC1        0.0000 
      5 O           9.5400   -0.9530   28.4510 O.2       7 ALL1        0.0000 
      6 O          11.9030   -2.3250   27.5690 O.2       4 ALP1        0.0000 
      7 CA          6.2070    1.1775   28.9680 C.3       3 GLC5        0.0000 
      8 CA          7.9130    0.8050   28.5620 C.3       9 GLL5        0.0000 
      9 CA          4.5010    1.5500   29.3740 C.3       6 GLP5        0.0000 
     10 CA          7.8510    2.5685   29.7110 C.3       3 GLC5        0.0000 
     11 CA          7.7890    4.3320   30.8600 C.3       6 GLP5        0.0000 
     12 CA          7.5715   -0.3015   30.3970 C.3       3 GLC5        0.0000 
     13 CA          7.2300   -1.4080   32.2320 C.3       6 GLP5        0.0000 
     14 CA          7.8915   -2.7670   27.2995 C.3       3 GLC5        0.0000 
     15 CA          7.9640   -0.8210   26.6360 C.3       9 GLL5        0.0000 
     16 CA          7.8190   -4.7130   27.9630 C.3       6 GLP5        0.0000 
     17 CA          5.8760   -1.1675   26.7245 C.3       3 GLC5        0.0000 
     18 CA          3.7880   -1.5140   26.8130 C.3       6 GLP5        0.0000 
     19 CA          6.9470   -1.9405   24.9980 C.3       3 GLC5        0.0000 
     20 CA          5.9300   -3.0600   23.3600 C.3       6 GLP5        0.0000 
     21 CA          9.0555   -1.9075   25.1225 C.3       3 GLC5        0.0000 
     22 CA         10.1470   -2.9940   23.6090 C.3       6 GLP5        0.0000 
     23 CA         10.9005    1.1030   29.5925 C.3       3 GLC5        0.0000 
     24 CA         10.9220    1.5850   27.7670 C.3       9 GLL5        0.0000 
     25 CA         10.8790    0.6210   31.4180 C.3       6 GLP5        0.0000 
     26 CA         13.2265    0.1075   25.8035 C.3       3 GLC5        0.0000 
     27 CA         12.2790    1.6680   27.0610 C.3       9 GLL5        0.0000 
     28 CA         14.1740   -1.4530   24.5460 C.3       6 GLP5        0.0000 
     29 CA         15.7665    0.6415   27.8505 C.3       3 GLC5        0.0000 
     30 CA         14.1240    1.6950   28.6980 C.3       9 GLL5        0.0000 
     31 CA         17.4090   -0.4120   27.0030 C.3       6 GLP5        0.0000 
     32 CA         12.5015    1.1580   30.0580 C.3       3 GLC5        0.0000 
     33 CA         14.6905    0.6515   30.0630 C.3       3 GLC5        0.0000 
     34 CA         15.2570   -0.3920   31.4280 C.3       6 GLP5        0.0000 
     35 CA         15.9205    2.9170   28.9585 C.3       3 GLC5        0.0000 
     36 CA         17.7170    4.1390   29.2190 C.3       6 GLP5        0.0000 
     37 CA         13.5705   -0.2020   28.5195 C.3       3 GLC5        0.0000 
     38 CA         13.0170   -2.0990   28.3410 C.3       6 GLP5        0.0000 
     39 CA         15.9305    3.8140   28.0180 C.3       3 GLC5        0.0000 
     40 CA         14.1440    3.4890   26.8170 C.3       9 GLL5        0.0000 
     41 CA         14.3860    0.6530   25.0335 C.3       3 GLC5        0.0000 
     42 CA         14.5980    2.7590   25.5210 C.3       9 GLL5        0.0000 
     43 CA         14.8800    3.2335   22.7425 C.3       3 GLC5        0.0000 
     44 CA         15.0790    3.8560   24.5530 C.3       9 GLL5        0.0000 
     45 CA         14.6810    2.6110   20.9320 C.3       6 GLP5        0.0000 
     46 CA         10.6295    6.3120   25.8790 C.3       3 GLC5        0.0000 
     47 CA         12.2690    4.8280   25.4880 C.3       9 GLL5        0.0000 
     48 CA          8.9900    7.7960   26.2700 C.3       6 GLP5        0.0000 
     49 CA         11.3640    6.2845   24.0815 C.3       3 GLC5        0.0000 
     50 CA         10.4590    7.7410   22.6750 C.3       6 GLP5        0.0000 
     51 CA         11.1600    3.4280   24.4650 C.3       3 GLC5        0.0000 
     52 CA         10.0510    2.0280   23.4420 C.3       6 GLP5        0.0000 
     53 CA         11.3720    6.2930   27.8995 C.3       3 GLC5        0.0000 
     54 CA         13.5040    5.9710   27.3520 C.3       9 GLL5        0.0000 
     55 CA          9.2400    6.6150   28.4470 C.3       6 GLP5        0.0000 
     56 CA         13.1960    9.3005   27.2880 C.3       3 GLC5        0.0000 
     57 CA         13.7360    7.4660   26.9660 C.3       9 GLL5        0.0000 
     58 CA         12.6560   11.1350   27.6100 C.3       6 GLP5        0.0000 
     59 CA         13.4535    9.3865   25.4100 C.3       3 GLC5        0.0000 
     60 CA         14.6330    7.7780   25.7040 C.3       9 GLL5        0.0000 
     61 CA         12.2740   10.9950   25.1160 C.3       6 GLP5        0.0000 
     62 CA         19.5050    9.3360   27.2380 C.3       3 GLC5        0.0000 
     63 CA         17.9050    8.0610   27.6150 C.3       9 GLL5        0.0000 
     64 CA         21.1050   10.6110   26.8610 C.3       6 GLP5        0.0000 
     65 CA         19.9495    7.4520   27.2130 C.3       3 GLC5        0.0000 
     66 CA         21.9940    6.8430   26.8110 C.3       6 GLP5        0.0000 
     67 CA         11.9905    7.2125   20.1985 C.3       3 GLC5        0.0000 
     68 CA         14.0140    6.7080   20.1710 C.3       9 GLL5        0.0000 
     69 CA          9.9670    7.7170   20.2260 C.3       6 GLP5        0.0000 
     70 CA         14.3475    4.6595   20.5515 C.3       3 GLC5        0.0000 
     71 CA         15.9795    6.6680   21.0880 C.3       3 GLC5        0.0000 
     72 CA         17.9450    6.6280   22.0050 C.3       6 GLP5        0.0000 
     73 CA         16.1025    5.6430   18.1800 C.3       3 GLC5        0.0000 
     74 CA         14.6460    6.8580   18.7660 C.3       9 GLL5        0.0000 
     75 CA         17.5590    4.4280   17.5940 C.3       6 GLP5        0.0000 
     76 CA         16.6360    7.0090   19.7535 C.3       3 GLC5        0.0000 
     77 CA         18.6260    7.1600   20.7410 C.3       6 GLP5        0.0000 
     78 N          14.5425    5.5830   16.6655 N.am      2 SEC2        0.0000 
     79 N          14.0710    5.8920   17.8870 N.am      8 SEL2        0.0000 
     80 N          15.0140    5.2740   15.4440 N.am      5 SEP2        0.0000 
     81 O          12.9190    5.2230   18.1975 O.2       1 ALC1        0.0000 
     82 O          14.0710    5.8920   17.8870 O.2       7 ALL1        0.0000 
     83 O          11.7670    4.5540   18.5080 O.2       4 ALP1        0.0000 
     84 CA         16.0310    9.0250   17.5130 C.3       3 GLC5        0.0000 
     85 CA         14.9340    9.4510   19.1550 C.3       9 GLL5        0.0000 
     86 CA         17.1280    8.5990   15.8710 C.3       6 GLP5        0.0000 
     87 CA         16.4025   10.8655   19.7180 C.3       3 GLC5        0.0000 
     88 CA         17.8710   12.2800   20.2810 C.3       6 GLP5        0.0000 
     89 N          17.0160    9.9325   18.3295 N.am      2 SEC2        0.0000 
     90 N          16.3460    9.3950   19.4020 N.am      8 SEL2        0.0000 
     91 N          17.6860   10.4700   17.2570 N.am      5 SEP2        0.0000 
     92 O          16.9275   10.3760   20.3490 O.2       1 ALC1        0.0000 
     93 O          16.3460    9.3950   19.4020 O.2       7 ALL1        0.0000 
     94 O          17.5090   11.3570   21.2960 O.2       4 ALP1        0.0000 
     95 CA         13.8980   11.5850   16.9095 C.3       3 GLC5        0.0000 
     96 CA         13.5060    9.5930   16.1810 C.3       9 GLL5        0.0000 
     97 CA         14.2900   13.5770   17.6380 C.3       6 GLP5        0.0000 
     98 CA         11.8090   10.0795   16.7835 C.3       3 GLC5        0.0000 
     99 CA         10.1120   10.5660   17.3860 C.3       6 GLP5        0.0000 
    100 CA          9.6210    0.5045   29.7585 C.3       3 GLC5        0.0000 
    101 CA          8.8130   -0.0290   27.6360 C.3       9 GLL5        0.0000 
    102 CA         12.3087   -0.2363   27.8775 C.3       3 GLC5        0.0000 
    103 CA         10.6936    1.7331   25.3220 C.3       3 GLC5        0.0000 
    104 CA         13.3630    3.4803   29.9055 C.3       3 GLC5        0.0000 
    105 CA         13.2720    2.5960   27.7880 C.3       9 GLL5        0.0000 
    106 CA         13.0280    4.8150   31.5680 C.3       6 GLP5        0.0000 
    107 CA         16.6183    2.1978   24.9675 C.3       3 GLC5        0.0000 
    108 CA         18.3980    1.0880   24.8980 C.3       6 GLP5        0.0000 
    109 CA         13.5490    6.9223   28.9475 C.3       3 GLC5        0.0000 
    110 CA         13.4780    7.1260   30.7360 C.3       6 GLP5        0.0000 
    111 CA         17.5660    5.9718   28.2073 C.3       3 GLC5        0.0000 
    112 CA         16.9250    7.5480   26.7760 C.3       9 GLL5        0.0000 
    113 CA         16.3562    6.6113   23.0100 C.3       3 GLC5        0.0000 
    114 CA         14.7780    6.5300   24.7150 C.3       9 GLL5        0.0000 
    115 CA         16.2065    7.2345   21.9008 C.3       3 GLC5        0.0000 
    116 CA         14.6260    7.7750   22.4750 C.3       9 GLL5        0.0000 
    117 CA         12.4799    7.6515   22.3407 C.3       3 GLC5        0.0000 
    118 CA         14.7570    6.6590   23.3150 C.3       9 GLL5        0.0000 
    119 CA         15.8345    8.0933   17.1810 C.3       3 GLC5        0.0000 
    120 CA         14.3505   11.3133   19.4043 C.3       3 GLC5        0.0000 
    121 CA         14.1090   13.2330   18.9650 C.3       6 GLP5        0.0000 
    122 CA         12.6450    9.9153   19.2432 C.3       3 GLC5        0.0000 
    123 CA         10.6980   10.4370   18.6430 C.3       6 GLP5        0.0000 
    124 CA         12.4157    9.4145   18.1130 C.3       3 GLC5        0.0000 
    125 CA         14.4360    8.3170   18.2160 C.3       9 GLL5        0.0000 
    126 CA         15.3983    8.8145   16.2182 C.3       3 GLC5        0.0000 
    127 CA         13.8310    8.4670   16.9500 C.3       9 GLL5        0.0000 
@<TRIPOS>BOND
@<TRIPOS>SUBSTRUCTURE
     1 ALC1        4 GROUP        1 X    ALC  0     ROOT ALC X 1
     2 SEC2        1 GROUP        1 X    SEC  0     **** SEC X 2
     3 GLC5        7 GROUP        1 X    GLC  0     **** GLC X 6
     4 ALP1        6 GROUP        1 Y    ALP  0     ROOT ALP Y 8
     5 SEP2        3 GROUP        1 Y    SEP  0     **** SEP Y 9
     6 GLP5        9 GROUP        1 Y    GLP  0     **** GLP Y 13
     7 ALL1        5 GROUP        1 Z    ALL  0     ROOT ALL Z 15
     8 SEL2        2 GROUP        1 Z    SEL  0     **** SEL Z 16
     9 GLL5        8 GROUP        1 Z    GLL  0     **** GLL Z 20
@<TRIPOS>SET

