#    Name: 3vt9_YI4_1_ligand
#    Modification time : Tue Mar 25 01:34:12 2014

@<TRIPOS>MOLECULE
3vt9_YI4_1_ligand
   83    85     1     0     0
SMALL
NO_CHARGES


@<TRIPOS>ATOM
      1 O03         9.5400   -0.9530   28.4510 O.3       1 YI4500      0.0000 
      2 C25         8.8130   -0.0290   27.6360 C.3       1 YI4500      0.0000 
      3 C26         7.9130    0.8050   28.5620 C.3       1 YI4500      0.0000 
      4 C27         7.9640   -0.8210   26.6360 C.3       1 YI4500      0.0000 
      5 C24         9.8650    0.8320   26.9190 C.3       1 YI4500      0.0000 
      6 C23        10.9220    1.5850   27.7670 C.3       1 YI4500      0.0000 
      7 C22        12.2790    1.6680   27.0610 C.3       1 YI4500      0.0000 
      8 C20        13.2720    2.5960   27.7880 C.3       1 YI4500      0.0000 
      9 C21        14.1240    1.6950   28.6980 C.3       1 YI4500      0.0000 
     10 C17        14.1440    3.4890   26.8170 C.3       1 YI4500      0.0000 
     11 C16        14.5980    2.7590   25.5210 C.3       1 YI4500      0.0000 
     12 C15        15.0790    3.8560   24.5530 C.3       1 YI4500      0.0000 
     13 C14        14.9260    5.1080   25.4330 C.3       1 YI4500      0.0000 
     14 C13        13.6550    4.8760   26.2680 C.3       1 YI4500      0.0000 
     15 C18        12.2690    4.8280   25.4880 C.3       1 YI4500      0.0000 
     16 C12        13.5040    5.9710   27.3520 C.3       1 YI4500      0.0000 
     17 C11        13.7360    7.4660   26.9660 C.3       1 YI4500      0.0000 
     18 C09        14.6330    7.7780   25.7040 C.3       1 YI4500      0.0000 
     19 C28        15.9750    8.4040   26.1870 C.3       1 YI4500      0.0000 
     20 C29        16.9250    7.5480   26.7760 C.2       1 YI4500      0.0000 
     21 C30        17.9050    8.0610   27.6150 C.2       1 YI4500      0.0000 
     22 C08        14.7780    6.5300   24.7150 C.2       1 YI4500      0.0000 
     23 C07        14.7570    6.6590   23.3150 C.2       1 YI4500      0.0000 
     24 C06        14.6260    7.7750   22.4750 C.2       1 YI4500      0.0000 
     25 C05        14.3100    7.9070   21.1180 C.2       1 YI4500      0.0000 
     26 C10        14.0140    6.7080   20.1710 C.3       1 YI4500      0.0000 
     27 C01        14.6460    6.8580   18.7660 C.3       1 YI4500      0.0000 
     28 O01        14.0710    5.8920   17.8870 O.3       1 YI4500      0.0000 
     29 C04        14.2500    9.3360   20.5320 C.3       1 YI4500      0.0000 
     30 C03        14.9340    9.4510   19.1550 C.3       1 YI4500      0.0000 
     31 O02        16.3460    9.3950   19.4020 O.3       1 YI4500      0.0000 
     32 C02        14.4360    8.3170   18.2160 C.2       1 YI4500      0.0000 
     33 C32        13.8310    8.4670   16.9500 C.2       1 YI4500      0.0000 
     34 C33        13.5060    9.5930   16.1810 C.3       1 YI4500      0.0000 
     35 O04        12.6210    9.2330   15.1260 O.3       1 YI4500      0.0000 
     36 H           9.3317    1.5868   26.2832 H         1 YI4500      0.0000 
     37 H          10.4108    0.1848   26.1830 H         1 YI4500      0.0000 
     38 H          11.0404    1.0649   28.7197 H         1 YI4500      0.0000 
     39 H          10.5552    2.5938   27.9668 H         1 YI4500      0.0000 
     40 H          12.1319    2.0380   26.0411 H         1 YI4500      0.0000 
     41 H          12.7140    0.6652   26.9984 H         1 YI4500      0.0000 
     42 H          12.6935    3.2583   28.4331 H         1 YI4500      0.0000 
     43 H          15.1254    3.7138   27.3413 H         1 YI4500      0.0000 
     44 H          13.7651    2.2455   25.0988 H         1 YI4500      0.0000 
     45 H          15.4057    2.1038   25.7533 H         1 YI4500      0.0000 
     46 H          14.4298    3.9153   23.7339 H         1 YI4500      0.0000 
     47 H          16.0886    3.7057   24.3206 H         1 YI4500      0.0000 
     48 H          15.7480    5.1650   26.1314 H         1 YI4500      0.0000 
     49 H          14.1956    5.7248   28.1996 H         1 YI4500      0.0000 
     50 H          12.4778    5.8873   27.7963 H         1 YI4500      0.0000 
     51 H          14.1843    7.9897   27.8389 H         1 YI4500      0.0000 
     52 H          12.7456    7.9462   26.8055 H         1 YI4500      0.0000 
     53 H          14.0922    8.5718   25.1427 H         1 YI4500      0.0000 
     54 H          15.6876    9.2479   26.8831 H         1 YI4500      0.0000 
     55 H          16.4022    8.9450   25.2902 H         1 YI4500      0.0000 
     56 H          16.8855    6.5400   26.5786 H         1 YI4500      0.0000 
     57 H          14.8645    5.6945   22.7725 H         1 YI4500      0.0000 
     58 H          14.8100    8.7475   22.9910 H         1 YI4500      0.0000 
     59 H          12.9286    6.6065   20.0639 H         1 YI4500      0.0000 
     60 H          14.3946    5.7923   20.6364 H         1 YI4500      0.0000 
     61 H          15.7143    6.7078   18.8728 H         1 YI4500      0.0000 
     62 H          14.7362   10.0249   21.2299 H         1 YI4500      0.0000 
     63 H          13.2014    9.6345   20.4349 H         1 YI4500      0.0000 
     64 H          14.6453   10.3979   18.7336 H         1 YI4500      0.0000 
     65 H          13.5593    7.4982   16.4696 H         1 YI4500      0.0000 
     66 H          14.4245   10.0587   15.7595 H         1 YI4500      0.0000 
     67 H          13.0370   10.3786   16.8142 H         1 YI4500      0.0000 
     68 H           8.4458    1.3134   29.2385 H         1 YI4500      0.0000 
     69 H           7.3730    1.4740   28.0512 H         1 YI4500      0.0000 
     70 H           7.2678    0.2321   29.0675 H         1 YI4500      0.0000 
     71 H           8.5281   -1.3959   26.0433 H         1 YI4500      0.0000 
     72 H           7.3137   -1.4247   27.0971 H         1 YI4500      0.0000 
     73 H           7.4329   -0.2183   26.0404 H         1 YI4500      0.0000 
     74 H          14.6236    1.0048   28.1746 H         1 YI4500      0.0000 
     75 H          14.8020    2.2209   29.2117 H         1 YI4500      0.0000 
     76 H          13.5636    1.2067   29.3670 H         1 YI4500      0.0000 
     77 H          11.9956    5.7325   25.1606 H         1 YI4500      0.0000 
     78 H          12.3130    4.2281   24.6891 H         1 YI4500      0.0000 
     79 H          11.5279    4.4898   26.0680 H         1 YI4500      0.0000 
     80 H          10.3686   -1.1496   27.9267 H         1 YI4500      0.0000 
     81 H          13.2433    5.5788   18.3527 H         1 YI4500      0.0000 
     82 H          16.5252   10.1367   20.0484 H         1 YI4500      0.0000 
     83 H          13.0243    8.4138   14.7182 H         1 YI4500      0.0000 
@<TRIPOS>BOND
     1    2    1 1    
     2   80    1 1    
     3    3    2 1    
     4    4    2 1    
     5    5    2 1    
     6   68    3 1    
     7   69    3 1    
     8   70    3 1    
     9   71    4 1    
    10   72    4 1    
    11   73    4 1    
    12    6    5 1    
    13   36    5 1    
    14   37    5 1    
    15    7    6 1    
    16   38    6 1    
    17   39    6 1    
    18    8    7 1    
    19   40    7 1    
    20   41    7 1    
    21    9    8 1    
    22   10    8 1    
    23   42    8 1    
    24   74    9 1    
    25   75    9 1    
    26   76    9 1    
    27   11   10 1    
    28   14   10 1    
    29   43   10 1    
    30   12   11 1    
    31   44   11 1    
    32   45   11 1    
    33   13   12 1    
    34   46   12 1    
    35   47   12 1    
    36   14   13 1    
    37   22   13 1    
    38   48   13 1    
    39   15   14 1    
    40   16   14 1    
    41   77   15 1    
    42   78   15 1    
    43   79   15 1    
    44   17   16 1    
    45   49   16 1    
    46   50   16 1    
    47   18   17 1    
    48   51   17 1    
    49   52   17 1    
    50   19   18 1    
    51   22   18 1    
    52   53   18 1    
    53   20   19 1    
    54   54   19 1    
    55   55   19 1    
    56   21   20 2    
    57   56   20 1    
    58   23   22 2    
    59   24   23 1    
    60   57   23 1    
    61   25   24 2    
    62   58   24 1    
    63   26   25 1    
    64   29   25 1    
    65   27   26 1    
    66   59   26 1    
    67   60   26 1    
    68   28   27 1    
    69   32   27 1    
    70   61   27 1    
    71   81   28 1    
    72   30   29 1    
    73   62   29 1    
    74   63   29 1    
    75   31   30 1    
    76   32   30 1    
    77   64   30 1    
    78   82   31 1    
    79   33   32 2    
    80   34   33 1    
    81   65   33 1    
    82   35   34 1    
    83   66   34 1    
    84   67   34 1    
    85   83   35 1    
@<TRIPOS>SUBSTRUCTURE
     1 YI4500      1 GROUP   
@<TRIPOS>SET

