#    Name: 3pdc_ZYI_2_INTS_M
#    Modification time : Tue Mar 25 06:18:40 2014

@<TRIPOS>MOLECULE
3pdc_ZYI_2_INTS_M
   44     0     6     0     0
SMALL
NO_CHARGES


@<TRIPOS>ATOM
      1 N          34.5840   12.3035   40.1690 N.am      1 SEC2        0.0000 
      2 N          34.1630   12.2120   41.5640 N.am      5 SEL2        0.0000 
      3 N          35.0050   12.3950   38.7740 N.am      3 SEP2        0.0000 
      4 N          33.6465   13.5270   41.8735 N.am      1 SEC2        0.0000 
      5 N          33.1300   14.8420   42.1830 N.am      3 SEP2        0.0000 
      6 CA         29.8650   12.1200   43.6245 C.3       2 GLC5        0.0000 
      7 CA         29.5940   10.1090   43.0370 C.3       6 GLL5        0.0000 
      8 CA         30.1360   14.1310   44.2120 C.3       4 GLP5        0.0000 
      9 CA         29.0415   11.6135   41.8460 C.3       2 GLC5        0.0000 
     10 CA         28.4890   13.1180   40.6550 C.3       4 GLP5        0.0000 
     11 CA         29.5915    8.7960   44.3295 C.3       2 GLC5        0.0000 
     12 CA         29.5890    7.4830   45.6220 C.3       4 GLP5        0.0000 
     13 CA         28.4395    9.2980   42.3010 C.3       2 GLC5        0.0000 
     14 CA         27.2850    8.4870   41.5650 C.3       4 GLP5        0.0000 
     15 CA         39.4090   13.4295   40.8215 C.3       2 GLC5        0.0000 
     16 CA         38.0120   14.6080   41.3780 C.3       6 GLL5        0.0000 
     17 CA         40.8060   12.2510   40.2650 C.3       4 GLP5        0.0000 
     18 CA         36.8425   17.5280   41.2525 C.3       2 GLC5        0.0000 
     19 CA         38.1760   15.9840   40.7680 C.3       6 GLL5        0.0000 
     20 CA         35.5090   19.0720   41.7370 C.3       4 GLP5        0.0000 
     21 CA         36.6400   17.7950   39.8715 C.3       2 GLC5        0.0000 
     22 CA         37.6950   16.0790   39.3310 C.3       6 GLL5        0.0000 
     23 CA         35.5850   19.5110   40.4120 C.3       4 GLP5        0.0000 
     24 CA         38.3270   14.0375   37.2245 C.3       2 GLC5        0.0000 
     25 CA         38.8830   15.5960   38.5020 C.3       6 GLL5        0.0000 
     26 CA         37.7710   12.4790   35.9470 C.3       4 GLP5        0.0000 
     27 N          34.3685   14.8825   41.7385 N.am      1 SEC2        0.0000 
     28 N          35.6070   14.9230   41.2940 N.am      5 SEL2        0.0000 
     29 CA         35.1495   10.0272   44.9990 C.3       2 GLC5        0.0000 
     30 CA         33.9080   11.1980   43.5370 C.3       6 GLL5        0.0000 
     31 CA         36.6980    9.1970   45.9390 C.3       4 GLP5        0.0000 
     32 CA         31.8293   11.5015   46.0607 C.3       2 GLC5        0.0000 
     33 CA         33.2940   10.5170   44.5810 C.3       6 GLL5        0.0000 
     34 CA         31.0420   12.6560   47.6370 C.3       4 GLP5        0.0000 
     35 CA         30.5975    8.9162   44.7142 C.3       2 GLC5        0.0000 
     36 CA         31.9390   10.1770   44.3880 C.3       6 GLL5        0.0000 
     37 CA         32.4556    9.6408   41.2470 C.3       2 GLC5        0.0000 
     38 CA         31.2730   10.5220   43.2250 C.3       6 GLL5        0.0000 
     39 CA         32.4660    8.0690   39.9480 C.3       4 GLP5        0.0000 
     40 CA         41.4257   16.2707   41.0782 C.3       2 GLC5        0.0000 
     41 CA         40.1290   15.8380   39.3570 C.3       6 GLL5        0.0000 
     42 CA         42.9740   16.3970   42.1480 C.3       4 GLP5        0.0000 
     43 CA         40.1860   14.1675   40.0299 C.3       2 GLC5        0.0000 
     44 CA         39.6260   16.4510   40.6600 C.3       6 GLL5        0.0000 
@<TRIPOS>BOND
@<TRIPOS>SUBSTRUCTURE
     1 SEC2        1 GROUP        1 X    SEC  0     ROOT SEC X 2
     2 GLC5        6 GROUP        1 X    GLC  0     **** GLC X 6
     3 SEP2        3 GROUP        1 Y    SEP  0     ROOT SEP Y 9
     4 GLP5        8 GROUP        1 Y    GLP  0     **** GLP Y 13
     5 SEL2        2 GROUP        1 Z    SEL  0     ROOT SEL Z 16
     6 GLL5        7 GROUP        1 Z    GLL  0     **** GLL Z 20
@<TRIPOS>SET

