#    Name: 3pdc_ZYI_2_ligand
#    Modification time : Tue Mar 25 06:18:40 2014

@<TRIPOS>MOLECULE
3pdc_ZYI_2_ligand
   34    36     1     0     0
SMALL
NO_CHARGES


@<TRIPOS>ATOM
      1 N1         34.1630   12.2120   41.5640 N.2       1 ZYI2        0.0000 
      2 C2         35.2790   12.2320   42.2560 C.2       1 ZYI2        0.0000 
      3 O3         35.1760   11.6300   43.4770 O.3       1 ZYI2        0.0000 
      4 C4         33.9080   11.1980   43.5370 C.ar      1 ZYI2        0.0000 
      5 C5         33.2940   10.5170   44.5810 C.ar      1 ZYI2        0.0000 
      6 C6         31.9390   10.1770   44.3880 C.ar      1 ZYI2        0.0000 
      7 C7         31.2730   10.5220   43.2250 C.ar      1 ZYI2        0.0000 
      8 CL8        29.5940   10.1090   43.0370 Cl        1 ZYI2        0.0000 
      9 C9         31.9380   11.2120   42.2010 C.ar      1 ZYI2        0.0000 
     10 C10        33.2850   11.5580   42.3790 C.ar      1 ZYI2        0.0000 
     11 N11        36.4810   12.7930   41.8410 N.am      1 ZYI2        0.0000 
     12 C12        36.5630   14.1520   41.4910 C.2       1 ZYI2        0.0000 
     13 C13        38.0120   14.6080   41.3780 C.3       1 ZYI2        0.0000 
     14 C14        38.1760   15.9840   40.7680 C.3       1 ZYI2        0.0000 
     15 C15        37.6950   16.0790   39.3310 C.3       1 ZYI2        0.0000 
     16 C16        38.8830   15.5960   38.5020 C.3       1 ZYI2        0.0000 
     17 C17        40.1290   15.8380   39.3570 C.3       1 ZYI2        0.0000 
     18 C18        39.6260   16.4510   40.6600 C.3       1 ZYI2        0.0000 
     19 O19        35.6070   14.9230   41.2940 O.2       1 ZYI2        0.0000 
     20 H          33.7749   10.2778   45.4221 H         1 ZYI2        0.0000 
     21 H          31.4445    9.6608   45.1355 H         1 ZYI2        0.0000 
     22 H          31.4506   11.4575   41.3427 H         1 ZYI2        0.0000 
     23 H          37.3308   12.2083   41.7866 H         1 ZYI2        0.0000 
     24 H          38.5700   13.8736   40.7713 H         1 ZYI2        0.0000 
     25 H          38.4669   14.6008   42.3839 H         1 ZYI2        0.0000 
     26 H          37.6396   16.7282   41.3404 H         1 ZYI2        0.0000 
     27 H          37.4760   17.0906   39.0866 H         1 ZYI2        0.0000 
     28 H          36.8664   15.4295   39.1809 H         1 ZYI2        0.0000 
     29 H          38.9503   16.1679   37.6005 H         1 ZYI2        0.0000 
     30 H          38.7826   14.5498   38.3029 H         1 ZYI2        0.0000 
     31 H          40.7763   16.5267   38.8595 H         1 ZYI2        0.0000 
     32 H          40.6116   14.9066   39.5582 H         1 ZYI2        0.0000 
     33 H          40.1881   16.0700   41.4784 H         1 ZYI2        0.0000 
     34 H          39.6579   17.5120   40.5954 H         1 ZYI2        0.0000 
@<TRIPOS>BOND
     1    2    1 2    
     2   10    1 1    
     3    3    2 1    
     4   11    2 1    
     5    4    3 1    
     6    5    4 ar   
     7   10    4 ar   
     8    6    5 ar   
     9   20    5 1    
    10    7    6 ar   
    11   21    6 1    
    12    8    7 1    
    13    9    7 ar   
    14   10    9 ar   
    15   22    9 1    
    16   12   11 am   
    17   23   11 1    
    18   13   12 1    
    19   19   12 2    
    20   14   13 1    
    21   24   13 1    
    22   25   13 1    
    23   15   14 1    
    24   18   14 1    
    25   26   14 1    
    26   16   15 1    
    27   27   15 1    
    28   28   15 1    
    29   17   16 1    
    30   29   16 1    
    31   30   16 1    
    32   18   17 1    
    33   31   17 1    
    34   32   17 1    
    35   33   18 1    
    36   34   18 1    
@<TRIPOS>SUBSTRUCTURE
     1 ZYI2        1 GROUP   
@<TRIPOS>SET

