#    Name: 1fxs_NAP_1_INTS_M
#    Modification time : Tue Mar 25 02:13:17 2014

@<TRIPOS>MOLECULE
1fxs_NAP_1_INTS_M
   98     0    12     0     0
SMALL
NO_CHARGES


@<TRIPOS>ATOM
      1 N          31.8510   25.3660   15.9395 N.am      2 SEC2        0.0000 
      2 N          32.0850   25.1660   14.5620 N.am     10 SEL2        0.0000 
      3 N          31.6170   25.5660   17.3170 N.am      6 SEP2        0.0000 
      4 CA         26.1545   24.0990   14.0880 C.3       4 GLC5        0.0000 
      5 CA         27.8420   24.2050   13.0360 C.3      12 GLL5        0.0000 
      6 CA         24.4670   23.9930   15.1400 C.3       8 GLP5        0.0000 
      7 N          26.4190   25.6405   11.2995 N.am      2 SEC2        0.0000 
      8 N          26.7180   24.1600   12.1280 N.am     10 SEL2        0.0000 
      9 N          26.1200   27.1210   10.4710 N.am      6 SEP2        0.0000 
     10 CA         25.4630   23.3900   13.4745 C.3       4 GLC5        0.0000 
     11 CA         26.4590   22.7870   11.8090 C.3      12 GLL5        0.0000 
     12 CA         24.9265   24.3345   11.8605 C.3       4 GLC5        0.0000 
     13 CA         23.3940   25.8820   11.9120 C.3       8 GLP5        0.0000 
     14 CA         23.9055   19.3925    8.6325 C.3       4 GLC5        0.0000 
     15 CA         23.4190   21.4530    8.1940 C.3      12 GLL5        0.0000 
     16 CA         24.3920   17.3320    9.0710 C.3       8 GLP5        0.0000 
     17 CA         21.6955   22.3200    8.4785 C.3       4 GLC5        0.0000 
     18 CA         19.9720   23.1870    8.7630 C.3       8 GLP5        0.0000 
     19 O          22.2455   20.4185    6.3165 O.2       1 ALC1        0.0000 
     20 O          23.1800   21.5070    6.8910 O.2       9 ALL1        0.0000 
     21 O          21.3110   19.3300    5.7420 O.2       5 ALP1        0.0000 
     22 N          21.1070   20.8250    8.5125 N.am      2 SEC2        0.0000 
     23 N          22.5760   20.7690    9.0140 N.am     10 SEL2        0.0000 
     24 N          19.6380   20.8810    8.0110 N.am      6 SEP2        0.0000 
     25 CA         22.9905   18.9440   10.7965 C.3       4 GLC5        0.0000 
     26 CA         22.8310   20.7180   10.3300 C.3      12 GLL5        0.0000 
     27 CA         23.1500   17.1700   11.2630 C.3       8 GLP5        0.0000 
     28 CA         21.4065   21.7840   10.2930 C.3       4 GLC5        0.0000 
     29 CA         19.9820   22.8500   10.2560 C.3       8 GLP5        0.0000 
     30 CA         22.7930   22.8780   10.5505 C.3       4 GLC5        0.0000 
     31 CA         24.6960   21.9650   10.1070 C.3      12 GLL5        0.0000 
     32 CA         20.8900   23.7910   10.9940 C.3       8 GLP5        0.0000 
     33 N          30.7370   28.0985   16.9720 N.am      2 SEC2        0.0000 
     34 N          30.7910   28.0140   15.5570 N.am     10 SEL2        0.0000 
     35 N          30.6830   28.1830   18.3870 N.am      6 SEP2        0.0000 
     36 N          29.5325   27.4735   15.8570 N.am      2 SEC2        0.0000 
     37 N          28.2740   26.9330   16.1570 N.am      6 SEP2        0.0000 
     38 CA         28.2120   29.4715   11.6385 C.3       4 GLC5        0.0000 
     39 CA         29.1940   29.7970   13.6210 C.3      12 GLL5        0.0000 
     40 CA         27.2300   29.1460    9.6560 C.3       8 GLP5        0.0000 
     41 CA         30.1450   29.4605   11.8255 C.3       4 GLC5        0.0000 
     42 CA         31.0960   29.1240   10.0300 C.3       8 GLP5        0.0000 
     43 CA         28.3315   30.4615   10.8390 C.3       4 GLC5        0.0000 
     44 CA         29.4330   31.7770   12.0220 C.3      12 GLL5        0.0000 
     45 CA         30.2645   30.4505   11.0260 C.3       4 GLC5        0.0000 
     46 N          27.4745   32.2615   10.4115 N.am      2 SEC2        0.0000 
     47 N          28.6580   31.4710   10.8350 N.am     10 SEL2        0.0000 
     48 N          26.2910   33.0520    9.9880 N.am      6 SEP2        0.0000 
     49 O          29.5340   32.1940   10.0110 O.2       1 ALC1        0.0000 
     50 O          28.6580   31.4710   10.8350 O.2       9 ALL1        0.0000 
     51 O          30.4100   32.9170    9.1870 O.2       5 ALP1        0.0000 
     52 CA         30.1815   35.0880   11.2755 C.3       4 GLC5        0.0000 
     53 CA         29.5700   33.2660   12.2720 C.3      12 GLL5        0.0000 
     54 CA         30.7930   36.9100   10.2790 C.3       8 GLP5        0.0000 
     55 CA         30.2545   32.1035   15.5915 C.3       4 GLC5        0.0000 
     56 CA         29.9080   33.3150   13.7980 C.3      12 GLL5        0.0000 
     57 CA         30.6010   30.8920   17.3850 C.3       8 GLP5        0.0000 
     58 CA         29.9250   35.1155   14.8820 C.3       4 GLC5        0.0000 
     59 CA         29.9420   36.9160   15.9660 C.3       8 GLP5        0.0000 
     60 CA         31.2960   35.8265   11.9260 C.3       4 GLC5        0.0000 
     61 CA         31.7990   34.7430   13.5730 C.3      12 GLL5        0.0000 
     62 N          32.4645   36.9680   11.6015 N.am      2 SEC2        0.0000 
     63 N          32.7530   37.2600   12.8960 N.am     10 SEL2        0.0000 
     64 N          32.1760   36.6760   10.3070 N.am      6 SEP2        0.0000 
     65 N          32.4825   38.3690   12.2280 N.am      2 SEC2        0.0000 
     66 N          32.2120   39.4780   11.5600 N.am      6 SEP2        0.0000 
     67 O          34.9080   38.2500   12.7700 O.2       1 ALC1        0.0000 
     68 O          34.8630   36.6820   13.3020 O.2       9 ALL1        0.0000 
     69 O          34.9530   39.8180   12.2380 O.2       5 ALP1        0.0000 
     70 CA         34.3270   31.3245   15.6235 C.3       4 GLC5        0.0000 
     71 CA         33.6260   32.7520   14.4110 C.3      12 GLL5        0.0000 
     72 CA         35.0280   29.8970   16.8360 C.3       8 GLP5        0.0000 
     73 CA         31.4320   31.6885   15.8595 C.3       4 GLC5        0.0000 
     74 CA         32.2630   32.4850   14.3340 C.3      12 GLL5        0.0000 
     75 NZ         27.9170   19.9110    8.9320 N.4       3 LYC4        0.0000 
     76 NZ         28.2350   19.5530   10.0220 N.4      11 LYL4        0.0000 
     77 NZ         26.7290   19.2760    7.6850 N.4       7 LYP4        0.0000 
     78 N          27.4270   18.9375    9.3165 N.am      2 SEC2        0.0000 
     79 N          28.2350   19.5530   10.0220 N.am     10 SEL2        0.0000 
     80 N          26.6190   18.3220    8.6110 N.am      6 SEP2        0.0000 
     81 N          27.9170   19.9110    8.9320 N.am      2 SEC2        0.0000 
     82 N          27.5990   20.2690    7.8420 N.am      6 SEP2        0.0000 
     83 CA         26.4260   25.7780   12.5490 C.3       4 GLC5        0.0000 
     84 CA         24.5560   26.7970   12.2970 C.3       8 GLP5        0.0000 
     85 CA         29.1970   23.8882   14.6872 C.3       4 GLC5        0.0000 
     86 CA         29.9970   23.9730   16.4770 C.3       8 GLP5        0.0000 
     87 CA         23.8042   23.7285    7.7373 C.3       4 GLC5        0.0000 
     88 CA         24.5480   22.0850    8.7710 C.3      12 GLL5        0.0000 
     89 CA         23.6250   25.6880    6.9920 C.3       8 GLP5        0.0000 
     90 CA         29.8032   30.7082   15.4292 C.3       4 GLC5        0.0000 
     91 CA         28.3077   33.0617   10.5130 C.3       4 GLC5        0.0000 
     92 CA         27.1140   33.6020    8.8790 C.3       8 GLP5        0.0000 
     93 CA         31.2180   35.8955   14.7895 C.3       4 GLC5        0.0000 
     94 CA         33.8137   34.5920   15.8605 C.3       4 GLC5        0.0000 
     95 CA         33.1890   35.0070   13.6530 C.3      12 GLL5        0.0000 
     96 CA         33.9980   34.6810   17.8610 C.3       8 GLP5        0.0000 
     97 CA         32.8722   33.1868   16.1193 C.3       4 GLC5        0.0000 
     98 CA         32.8000   33.7550   17.8660 C.3       8 GLP5        0.0000 
@<TRIPOS>BOND
@<TRIPOS>SUBSTRUCTURE
     1 ALC1       19 GROUP        1 X    ALC  0     ROOT ALC X 1
     2 SEC2        1 GROUP        1 X    SEC  0     **** SEC X 2
     3 LYC4       75 GROUP        1 X    LYC  0     **** LYC X 4
     4 GLC5        4 GROUP        1 X    GLC  0     **** GLC X 6
     5 ALP1       21 GROUP        1 Y    ALP  0     ROOT ALP Y 8
     6 SEP2        3 GROUP        1 Y    SEP  0     **** SEP Y 9
     7 LYP4       77 GROUP        1 Y    LYP  0     **** LYP Y 11
     8 GLP5        6 GROUP        1 Y    GLP  0     **** GLP Y 13
     9 ALL1       20 GROUP        1 Z    ALL  0     ROOT ALL Z 15
    10 SEL2        2 GROUP        1 Z    SEL  0     **** SEL Z 16
    11 LYL4       76 GROUP        1 Z    LYL  0     **** LYL Z 18
    12 GLL5        5 GROUP        1 Z    GLL  0     **** GLL Z 20
@<TRIPOS>SET

