#    Name: 1fxs_NAP_1_ligand
#    Modification time : Tue Mar 25 02:13:17 2014

@<TRIPOS>MOLECULE
1fxs_NAP_1_ligand
   73    77     1     0     0
SMALL
NO_CHARGES


@<TRIPOS>ATOM
      1 PA         31.3150   25.6500   13.3890 P.3       1 NAP350      0.0000 
      2 O1A        31.5630   25.0160   12.0430 O.co2     1 NAP350      0.0000 
      3 O2A        32.0850   25.1660   14.5620 O.co2     1 NAP350      0.0000 
      4 O5B        29.6840   25.5580   13.6500 O.3       1 NAP350      0.0000 
      5 C5B        28.7500   25.3130   12.5660 C.3       1 NAP350      0.0000 
      6 C4B        27.8420   24.2050   13.0360 C.3       1 NAP350      0.0000 
      7 O4B        26.7180   24.1600   12.1280 O.3       1 NAP350      0.0000 
      8 C3B        28.4980   22.8480   12.9940 C.3       1 NAP350      0.0000 
      9 O3B        28.2800   22.1230   14.2310 O.3       1 NAP350      0.0000 
     10 C2B        27.8230   22.1650   11.8640 C.3       1 NAP350      0.0000 
     11 O2B        27.6980   20.7660   12.1110 O.3       1 NAP350      0.0000 
     12 C1B        26.4590   22.7870   11.8090 C.3       1 NAP350      0.0000 
     13 N9A        25.8660   22.6540   10.4390 N.pl3     1 NAP350      0.0000 
     14 C8A        26.3420   23.1650    9.2360 C.2       1 NAP350      0.0000 
     15 N7A        25.5800   22.8470    8.2230 N.2       1 NAP350      0.0000 
     16 C5A        24.5480   22.0850    8.7710 C.ar      1 NAP350      0.0000 
     17 C6A        23.4190   21.4530    8.1940 C.ar      1 NAP350      0.0000 
     18 N6A        23.1800   21.5070    6.8910 N.pl3     1 NAP350      0.0000 
     19 N1A        22.5760   20.7690    9.0140 N.ar      1 NAP350      0.0000 
     20 C2A        22.8310   20.7180   10.3300 C.ar      1 NAP350      0.0000 
     21 N3A        23.8650   21.2800   10.9540 N.ar      1 NAP350      0.0000 
     22 C4A        24.6960   21.9650   10.1070 C.ar      1 NAP350      0.0000 
     23 O3         31.4310   27.2480   13.2570 O.3       1 NAP350      0.0000 
     24 PN         31.4680   28.5040   14.2720 P.3       1 NAP350      0.0000 
     25 O1N        32.9400   28.9210   14.3810 O.co2     1 NAP350      0.0000 
     26 O2N        30.7910   28.0140   15.5570 O.co2     1 NAP350      0.0000 
     27 O5D        30.6420   29.6960   13.5690 O.3       1 NAP350      0.0000 
     28 C5D        29.1940   29.7970   13.6210 C.3       1 NAP350      0.0000 
     29 C4D        28.8170   31.2520   13.3260 C.3       1 NAP350      0.0000 
     30 O4D        29.4680   32.0580   14.3550 O.3       1 NAP350      0.0000 
     31 C3D        29.4330   31.7770   12.0220 C.3       1 NAP350      0.0000 
     32 O3D        28.6580   31.4710   10.8350 O.3       1 NAP350      0.0000 
     33 C2D        29.5700   33.2660   12.2720 C.3       1 NAP350      0.0000 
     34 O2D        28.3630   33.9160   11.9540 O.3       1 NAP350      0.0000 
     35 C1D        29.9080   33.3150   13.7980 C.3       1 NAP350      0.0000 
     36 N1N        31.3590   33.4790   13.9210 N.pl3     1 NAP350      0.0000 
     37 C2N        31.7990   34.7430   13.5730 C.ar      1 NAP350      0.0000 
     38 C3N        33.1890   35.0070   13.6530 C.ar      1 NAP350      0.0000 
     39 C7N        33.6560   36.3350   13.2820 C.2       1 NAP350      0.0000 
     40 O7N        32.7530   37.2600   12.8960 O.2       1 NAP350      0.0000 
     41 N7N        34.8630   36.6820   13.3020 N.am      1 NAP350      0.0000 
     42 C4N        34.0700   33.9990   14.0670 C.ar      1 NAP350      0.0000 
     43 C5N        33.6260   32.7520   14.4110 C.ar      1 NAP350      0.0000 
     44 C6N        32.2630   32.4850   14.3340 C.ar      1 NAP350      0.0000 
     45 P2B        28.7130   19.6740   11.4510 P.3       1 NAP350      0.0000 
     46 O1X        30.1200   20.2720   11.5380 O.co2     1 NAP350      0.0000 
     47 O2X        28.4350   18.4810   12.3380 O.co2     1 NAP350      0.0000 
     48 O3X        28.2350   19.5530   10.0220 O.co2     1 NAP350      0.0000 
     49 H          29.2639   24.9903   11.6716 H         1 NAP350      0.0000 
     50 H          28.1543   26.1901   12.3565 H         1 NAP350      0.0000 
     51 H          27.5048   24.4112   14.0278 H         1 NAP350      0.0000 
     52 H          29.5264   22.9723   12.7680 H         1 NAP350      0.0000 
     53 H          28.3326   22.3833   10.9596 H         1 NAP350      0.0000 
     54 H          25.8435   22.3329   12.5396 H         1 NAP350      0.0000 
     55 H          27.1731   23.7062    9.1984 H         1 NAP350      0.0000 
     56 H          23.5057   22.3253    6.4175 H         1 NAP350      0.0000 
     57 H          22.6956   20.7245    6.4997 H         1 NAP350      0.0000 
     58 H          22.1230   20.1633   10.9437 H         1 NAP350      0.0000 
     59 H          28.8134   29.5402   14.6034 H         1 NAP350      0.0000 
     60 H          28.7252   29.1666   12.8735 H         1 NAP350      0.0000 
     61 H          27.7916   31.3910   13.3303 H         1 NAP350      0.0000 
     62 H          30.4407   31.3712   11.9679 H         1 NAP350      0.0000 
     63 H          30.4198   33.6114   11.7470 H         1 NAP350      0.0000 
     64 H          29.3849   34.1382   14.2068 H         1 NAP350      0.0000 
     65 H          31.1622   35.4666   13.2693 H         1 NAP350      0.0000 
     66 H          35.5216   35.9697   13.5446 H         1 NAP350      0.0000 
     67 H          35.0500   37.6374   13.0734 H         1 NAP350      0.0000 
     68 H          35.0881   34.2198   14.1091 H         1 NAP350      0.0000 
     69 H          34.2739   32.0236   14.7197 H         1 NAP350      0.0000 
     70 H          31.9058   31.5503   14.5811 H         1 NAP350      0.0000 
     71 H          27.8378   21.2693   13.9560 H         1 NAP350      0.0000 
     72 H          29.1593   31.8969   10.0818 H         1 NAP350      0.0000 
     73 H          27.7848   33.2059   11.5522 H         1 NAP350      0.0000 
@<TRIPOS>BOND
     1    2    1 ar   
     2    3    1 ar   
     3    4    1 1    
     4   23    1 1    
     5    5    4 1    
     6    6    5 1    
     7   49    5 1    
     8   50    5 1    
     9    7    6 1    
    10    8    6 1    
    11   51    6 1    
    12   12    7 1    
    13    9    8 1    
    14   10    8 1    
    15   52    8 1    
    16   71    9 1    
    17   11   10 1    
    18   12   10 1    
    19   53   10 1    
    20   45   11 1    
    21   13   12 1    
    22   54   12 1    
    23   14   13 1    
    24   22   13 1    
    25   15   14 2    
    26   55   14 1    
    27   16   15 1    
    28   17   16 ar   
    29   22   16 ar   
    30   18   17 1    
    31   19   17 ar   
    32   56   18 1    
    33   57   18 1    
    34   20   19 ar   
    35   21   20 ar   
    36   58   20 1    
    37   22   21 ar   
    38   24   23 1    
    39   25   24 ar   
    40   26   24 ar   
    41   27   24 1    
    42   28   27 1    
    43   29   28 1    
    44   59   28 1    
    45   60   28 1    
    46   30   29 1    
    47   31   29 1    
    48   61   29 1    
    49   35   30 1    
    50   32   31 1    
    51   33   31 1    
    52   62   31 1    
    53   72   32 1    
    54   34   33 1    
    55   35   33 1    
    56   63   33 1    
    57   73   34 1    
    58   36   35 1    
    59   64   35 1    
    60   37   36 ar   
    61   44   36 ar   
    62   38   37 ar   
    63   65   37 1    
    64   39   38 1    
    65   42   38 ar   
    66   40   39 2    
    67   41   39 am   
    68   66   41 1    
    69   67   41 1    
    70   43   42 ar   
    71   68   42 1    
    72   44   43 ar   
    73   69   43 1    
    74   70   44 1    
    75   46   45 ar   
    76   47   45 ar   
    77   48   45 ar   
@<TRIPOS>SUBSTRUCTURE
     1 NAP350      1 GROUP   
@<TRIPOS>SET

