#    Name: 1A42_1_CAVITY_N1_ALL.mol2
#    Modification time : Mon Mar 10 12:27:22 2014

@<TRIPOS>MOLECULE
1A42_1_CAVITY_N1_ALL.mol2
   77     0     6     0     0
SMALL
NO_CHARGES


@<TRIPOS>ATOM
      1 CA         -2.1450    7.0669   15.6653 C.3       5 GLY6        0.0000 
      2 CZ         -3.2450    8.0094   15.2759 C.ar      4 PHE5        0.0000 
      3 CA         -2.0103    6.6333   14.2357 C.3       5 GLY6        0.0000 
      4 N          -0.7756    5.2573   13.1955 N.2       2 ALA2        0.0000 
      5 DU         -1.8756    6.1998   12.8060 H         6 CUB7        0.0000 
      6 N           0.4590    3.8812   12.1553 N.2       2 ALA2        0.0000 
      7 N          -0.6409    4.8238   11.7658 N.2       2 ALA2        0.0000 
      8 DU         -1.7409    5.7663   11.3764 H         6 CUB7        0.0000 
      9 CZ          0.5937    3.4477   10.7256 C.ar      4 PHE5        0.0000 
     10 CA          0.7284    3.0142    9.2959 C.3       5 GLY6        0.0000 
     11 CA         -3.1559    5.9835   15.8986 C.3       5 GLY6        0.0000 
     12 CZ         -4.2559    6.9261   15.5091 C.ar      4 PHE5        0.0000 
     13 N          -1.9213    4.6074   14.8584 N.2       2 ALA2        0.0000 
     14 CA         -3.0212    5.5500   14.4689 C.3       5 GLY6        0.0000 
     15 CZ         -4.1212    6.4926   14.0795 C.ar      4 PHE5        0.0000 
     16 CZ         -5.2211    7.4351   13.6900 C.ar      4 PHE5        0.0000 
     17 N          -1.7866    4.1739   13.4287 N.2       2 ALA2        0.0000 
     18 DU         -2.8865    5.1165   13.0393 H         6 CUB7        0.0000 
     19 DU         -3.9865    6.0591   12.6498 H         6 CUB7        0.0000 
     20 OG         -0.5519    2.7979   12.3885 O.2       1 SER1        0.0000 
     21 OG         -1.6518    3.7404   11.9991 O.2       1 SER1        0.0000 
     22 DU         -2.7518    4.6830   11.6096 H         6 CUB7        0.0000 
     23 DU         -3.8518    5.6256   11.2202 H         6 CUB7        0.0000 
     24 CZ         -0.4172    2.3644   10.9588 C.ar      4 PHE5        0.0000 
     25 DU         -1.5171    3.3069   10.5694 H         6 CUB7        0.0000 
     26 O          -2.6171    4.2495   10.1799 O.2       2 ALA2        0.0000 
     27 DU         -3.7171    5.1920    9.7905 H         6 CUB7        0.0000 
     28 O          -1.3824    2.8734    9.1397 O.2       2 ALA2        0.0000 
     29 CA         -5.2668    5.8427   15.7424 C.3       5 GLY6        0.0000 
     30 CZ         -6.3667    6.7853   15.3529 C.ar      4 PHE5        0.0000 
     31 OG         -2.9322    3.5241   15.0916 O.2       1 SER1        0.0000 
     32 CA         -4.0321    4.4667   14.7022 C.3       5 GLY6        0.0000 
     33 DU         -5.1321    5.4092   14.3127 H         6 CUB7        0.0000 
     34 CZ         -6.2320    6.3518   13.9233 C.ar      4 PHE5        0.0000 
     35 CZ         -7.3320    7.2943   13.5338 C.ar      4 PHE5        0.0000 
     36 OG         -2.7975    3.0906   13.6620 O.2       1 SER1        0.0000 
     37 DU         -3.8974    4.0331   13.2725 H         6 CUB7        0.0000 
     38 O          -4.9974    4.9757   12.8831 O.2       2 ALA2        0.0000 
     39 O          -6.0973    5.9183   12.4936 O.2       2 ALA2        0.0000 
     40 OG         -2.6628    2.6571   12.2323 O.2       1 SER1        0.0000 
     41 DU         -3.7627    3.5996   11.8429 H         6 CUB7        0.0000 
     42 O          -4.8627    4.5422   11.4534 O.2       2 ALA2        0.0000 
     43 OG         -1.4281    1.2810   11.1921 O.2       1 SER1        0.0000 
     44 O          -2.5281    2.2236   10.8026 O.2       2 ALA2        0.0000 
     45 O          -3.6280    3.1661   10.4132 O.2       2 ALA2        0.0000 
     46 N          -4.7280    4.1087   10.0237 N.2       2 ALA2        0.0000 
     47 O          -5.8279    5.0513    9.6343 O.2       2 ALA2        0.0000 
     48 CA         -1.2934    0.8475    9.7624 C.3       5 GLY6        0.0000 
     49 CA         -4.0778    2.8742   16.7545 C.3       5 GLY6        0.0000 
     50 CA         -6.2777    4.7594   15.9756 C.3       5 GLY6        0.0000 
     51 OG         -3.9431    2.4407   15.3249 O.2       1 SER1        0.0000 
     52 CA         -5.0430    3.3833   14.9354 C.3       5 GLY6        0.0000 
     53 O          -6.1430    4.3259   14.5460 O.2       2 ALA2        0.0000 
     54 CA         -7.2430    5.2684   14.1565 C.3       5 GLY6        0.0000 
     55 OG         -3.8084    2.0072   13.8952 O.2       1 SER1        0.0000 
     56 O          -4.9083    2.9498   13.5058 O.2       2 ALA2        0.0000 
     57 OG         -3.6737    1.5737   12.4655 O.2       1 SER1        0.0000 
     58 O          -4.7736    2.5163   12.0761 O.2       2 ALA2        0.0000 
     59 CA         -2.4390    0.1977   11.4253 C.3       5 GLY6        0.0000 
     60 O          -3.5390    1.1402   11.0359 O.2       2 ALA2        0.0000 
     61 O          -4.6389    2.0828   10.6464 O.2       2 ALA2        0.0000 
     62 O          -5.7389    3.0253   10.2570 O.2       2 ALA2        0.0000 
     63 CA         -5.2234    2.2244   18.4174 C.3       5 GLY6        0.0000 
     64 CA         -6.3234    3.1670   18.0280 C.3       5 GLY6        0.0000 
     65 CA         -5.0887    1.7909   16.9878 C.3       5 GLY6        0.0000 
     66 CA         -6.1887    2.7335   16.5983 C.3       5 GLY6        0.0000 
     67 CA         -7.2886    3.6760   16.2089 C.3       5 GLY6        0.0000 
     68 OD1        -4.9540    1.3574   15.5581 O.3       3 ASP3        0.0000 
     69 N          -6.0540    2.3000   15.1687 N.2       2 ALA2        0.0000 
     70 CA         -7.1539    3.2425   14.7792 C.3       5 GLY6        0.0000 
     71 N          -4.8193    0.9239   14.1285 N.2       2 ALA2        0.0000 
     72 N          -4.6846    0.4904   12.6988 N.2       2 ALA2        0.0000 
     73 O          -5.7846    1.4329   12.3093 O.2       2 ALA2        0.0000 
     74 CA         -3.4499   -0.8857   11.6586 C.3       5 GLY6        0.0000 
     75 CA         -4.5499    0.0569   11.2691 C.3       5 GLY6        0.0000 
     76 O          -5.6498    0.9994   10.8797 O.2       2 ALA2        0.0000 
     77 CA         -7.1996    1.6501   16.8316 C.3       5 GLY6        0.0000 
@<TRIPOS>BOND
@<TRIPOS>SUBSTRUCTURE
     1 SER1       20 GROUP   
     2 ALA2        4 GROUP   
     3 ASP3       68 GROUP   
     4 PHE5        2 GROUP   
     5 GLY6        1 GROUP   
     6 CUB7        5 GROUP   
@<TRIPOS>SET

