#    Name: 1a42_BZU_1_INTS_M
#    Modification time : Mon Mar 24 17:44:59 2014

@<TRIPOS>MOLECULE
1a42_BZU_1_INTS_M
   44     0    12     0     0
SMALL
NO_CHARGES


@<TRIPOS>ATOM
      1 CA         -4.8665    8.4970   14.4115 C.3       4 GLC5        0.0000 
      2 CA         -3.3490    7.4080   13.9350 C.3      12 GLL5        0.0000 
      3 CA         -6.3840    9.5860   14.8880 C.3       8 GLP5        0.0000 
      4 CA         -2.1000    6.4785   16.4590 C.3       4 GLC5        0.0000 
      5 CA         -2.0760    7.4260   14.7640 C.3      12 GLL5        0.0000 
      6 CA         -2.1240    5.5310   18.1540 C.3       8 GLP5        0.0000 
      7 CA         -0.4235    6.7825   15.2995 C.3       4 GLC5        0.0000 
      8 CA          1.2290    6.1390   15.8350 C.3       8 GLP5        0.0000 
      9 CA         -3.7690   10.1685   14.6620 C.3       4 GLC5        0.0000 
     10 CA         -1.9150    9.7690   15.0590 C.3      12 GLL5        0.0000 
     11 CA         -5.6230   10.5680   14.2650 C.3       8 GLP5        0.0000 
     12 CA         -3.1715   10.3650   16.4490 C.3       4 GLC5        0.0000 
     13 CA         -4.4280   10.9610   17.8390 C.3       8 GLP5        0.0000 
     14 CA         -1.7565   11.7995   16.4525 C.3       4 GLC5        0.0000 
     15 CA         -0.8780   10.9030   15.1780 C.3      12 GLL5        0.0000 
     16 CA         -2.6350   12.6960   17.7270 C.3       8 GLP5        0.0000 
     17 N          -4.1560    0.5410   18.8015 N.am      2 SEC2        0.0000 
     18 N          -5.4250    0.9940   18.2870 N.am     10 SEL2        0.0000 
     19 N          -2.8870    0.0880   19.3160 N.am      6 SEP2        0.0000 
     20 O          -4.6520   -1.2795   17.2455 O.2       1 ALC1        0.0000 
     21 O          -5.4860   -0.5450   16.4610 O.2       9 ALL1        0.0000 
     22 O          -3.8180   -2.0140   18.0300 O.2       5 ALP1        0.0000 
     23 Zn         -6.1575   -1.0835   15.9740 Zn        3 ZIC7        0.0000 
     24 Zn         -5.4860   -0.5450   16.4610 Zn       11 ZIL7        0.0000 
     25 Zn         -6.8290   -1.6220   15.4870 Zn        7 ZIP7        0.0000 
     26 CA         -3.0450    0.6215   14.8985 C.3       4 GLC5        0.0000 
     27 CA         -4.3210    2.1520   15.2920 C.3      12 GLL5        0.0000 
     28 CA         -1.7690   -0.9090   14.5050 C.3       8 GLP5        0.0000 
     29 CA         -8.1005    3.4275   15.6030 C.3       4 GLC5        0.0000 
     30 CA         -6.3790    3.5010   15.9790 C.3      12 GLL5        0.0000 
     31 CA         -9.8220    3.3540   15.2270 C.3       8 GLP5        0.0000 
     32 N          -6.9560    5.0125   12.3150 N.am      2 SEC2        0.0000 
     33 N          -6.1600    5.8730   13.2440 N.am     10 SEL2        0.0000 
     34 N          -7.7520    4.1520   11.3860 N.am      6 SEP2        0.0000 
     35 CA         -1.1040    1.5290   13.3245 C.3       4 GLC5        0.0000 
     36 CA         -1.5640    3.0110   11.8410 C.3      12 GLL5        0.0000 
     37 CA         -0.6440    0.0470   14.8080 C.3       8 GLP5        0.0000 
     38 CA         -0.2950    1.1400    9.5860 C.3       4 GLC5        0.0000 
     39 CA         -1.4630    1.9270   10.7540 C.3      12 GLL5        0.0000 
     40 CA          0.8730    0.3530    8.4180 C.3       8 GLP5        0.0000 
     41 CA          0.2408    1.4875   11.5322 C.3       4 GLC5        0.0000 
     42 CA          1.9950    0.5060   11.7670 C.3       8 GLP5        0.0000 
     43 CA         -5.0034    3.9895   17.0689 C.3       4 GLC5        0.0000 
     44 CA         -4.4240    4.7580   18.5340 C.3       8 GLP5        0.0000 
@<TRIPOS>BOND
@<TRIPOS>SUBSTRUCTURE
     1 ALC1       20 GROUP        1 X    ALC  0     ROOT ALC X 1
     2 SEC2       17 GROUP        1 X    SEC  0     **** SEC X 2
     3 ZIC7       23 GROUP        1 X    ZIC  0     **** ZIC X 5
     4 GLC5        1 GROUP        1 X    GLC  0     **** GLC X 6
     5 ALP1       22 GROUP        1 Y    ALP  0     ROOT ALP Y 8
     6 SEP2       19 GROUP        1 Y    SEP  0     **** SEP Y 9
     7 ZIP7       25 GROUP        1 Y    ZIP  0     **** ZIP Y 12
     8 GLP5        3 GROUP        1 Y    GLP  0     **** GLP Y 13
     9 ALL1       21 GROUP        1 Z    ALL  0     ROOT ALL Z 15
    10 SEL2       18 GROUP        1 Z    SEL  0     **** SEL Z 16
    11 ZIL7       24 GROUP        1 Z    ZIL  0     **** ZIL Z 19
    12 GLL5        2 GROUP        1 Z    GLL  0     **** GLL Z 20
@<TRIPOS>SET

