#    Name: 1a42_BZU_1_ligand
#    Modification time : Mon Mar 24 17:44:59 2014

@<TRIPOS>MOLECULE
1a42_BZU_1_ligand
   42    43     1     0     0
SMALL
NO_CHARGES


@<TRIPOS>ATOM
      1 C3         -5.4450    2.0670   16.0490 C.2       1 BZU555      0.0000 
      2 C9         -3.3940    5.2050   13.0190 C.3       1 BZU555      0.0000 
      3 C10        -3.0550    3.8670   13.7100 C.3       1 BZU555      0.0000 
      4 C11        -3.3490    7.4080   13.9350 C.3       1 BZU555      0.0000 
      5 C12        -2.0760    7.4260   14.7640 C.3       1 BZU555      0.0000 
      6 C14        -1.9150    9.7690   15.0590 C.3       1 BZU555      0.0000 
      7 C15        -0.8780   10.9030   15.1780 C.3       1 BZU555      0.0000 
      8 O1A        -5.4250    0.9940   18.2870 O.2       1 BZU555      0.0000 
      9 O2A        -7.3980    0.8170   16.9950 O.2       1 BZU555      0.0000 
     10 N21        -5.4860   -0.5450   16.4610 N.pl3     1 BZU555      0.0000 
     11 S1         -5.9660    0.7500   16.9970 S.o2      1 BZU555      0.0000 
     12 C4         -4.3210    2.1520   15.2920 C.2       1 BZU555      0.0000 
     13 C5         -4.1650    3.3450   14.6420 C.2       1 BZU555      0.0000 
     14 C6         -5.2160    4.2000   14.9310 C.2       1 BZU555      0.0000 
     15 S2         -6.3790    3.5010   15.9790 S.3       1 BZU555      0.0000 
     16 S7         -5.2950    5.8270   14.3680 S.o2      1 BZU555      0.0000 
     17 O3B        -6.1600    5.8730   13.2440 O.2       1 BZU555      0.0000 
     18 O4B        -5.8580    6.6800   15.3730 O.2       1 BZU555      0.0000 
     19 N8         -3.8480    6.0650   14.0900 N.pl3     1 BZU555      0.0000 
     20 N16        -2.7760    2.8950   12.6490 N.4       1 BZU555      0.0000 
     21 O13        -1.3070    8.5960   14.5330 O.3       1 BZU555      0.0000 
     22 C17        -1.5640    3.0110   11.8410 C.3       1 BZU555      0.0000 
     23 C18        -1.4630    1.9270   10.7540 C.3       1 BZU555      0.0000 
     24 H          -4.1642    5.0208   12.2967 H         1 BZU555      0.0000 
     25 H          -2.5014    5.5759   12.5558 H         1 BZU555      0.0000 
     26 H          -2.1523    4.0197   14.2966 H         1 BZU555      0.0000 
     27 H          -3.0976    7.6257   12.9152 H         1 BZU555      0.0000 
     28 H          -4.0288    8.1355   14.3341 H         1 BZU555      0.0000 
     29 H          -1.5051    6.5087   14.5200 H         1 BZU555      0.0000 
     30 H          -2.3688    7.3347   15.8283 H         1 BZU555      0.0000 
     31 H          -2.7272   10.1358   14.4173 H         1 BZU555      0.0000 
     32 H          -2.3332    9.6031   16.0608 H         1 BZU555      0.0000 
     33 H          -4.9014   -1.0831   17.0683 H         1 BZU555      0.0000 
     34 H          -3.6589    1.4066   15.2131 H         1 BZU555      0.0000 
     35 H          -0.6624    2.9366   12.4743 H         1 BZU555      0.0000 
     36 H          -1.5198    3.9941   11.3401 H         1 BZU555      0.0000 
     37 H          -0.1212   10.6524   15.7817 H         1 BZU555      0.0000 
     38 H          -0.4801   11.1370   14.2909 H         1 BZU555      0.0000 
     39 H          -1.2830   11.7394   15.5474 H         1 BZU555      0.0000 
     40 H          -0.6304    2.0243   10.2087 H         1 BZU555      0.0000 
     41 H          -1.4505    1.0074   11.1466 H         1 BZU555      0.0000 
     42 H          -2.2350    1.9643   10.1194 H         1 BZU555      0.0000 
@<TRIPOS>BOND
     1   11    1 1    
     2   12    1 2    
     3   15    1 1    
     4    3    2 1    
     5   19    2 1    
     6   24    2 1    
     7   25    2 1    
     8   13    3 1    
     9   20    3 1    
    10   26    3 1    
    11    5    4 1    
    12   19    4 1    
    13   27    4 1    
    14   28    4 1    
    15   21    5 1    
    16   29    5 1    
    17   30    5 1    
    18    7    6 1    
    19   21    6 1    
    20   31    6 1    
    21   32    6 1    
    22   37    7 1    
    23   38    7 1    
    24   39    7 1    
    25   11    8 2    
    26   11    9 2    
    27   11   10 1    
    28   33   10 1    
    29   13   12 1    
    30   34   12 1    
    31   14   13 2    
    32   15   14 1    
    33   16   14 1    
    34   17   16 2    
    35   18   16 2    
    36   19   16 1    
    37   22   20 1    
    38   23   22 1    
    39   35   22 1    
    40   36   22 1    
    41   40   23 1    
    42   41   23 1    
    43   42   23 1    
@<TRIPOS>SUBSTRUCTURE
     1 BZU555      1 GROUP   
@<TRIPOS>SET

