#    Name: 3rib_SAH_2_INTS_M
#    Modification time : Tue Mar 25 11:29:50 2014

@<TRIPOS>MOLECULE
3rib_SAH_2_INTS_M
   66     0    12     0     0
SMALL
NO_CHARGES


@<TRIPOS>ATOM
      1 O          -4.1505  -55.6625   37.3035 O.2       1 ALC1        0.0000 
      2 O          -3.9410  -54.5010   36.3790 O.2       9 ALL1        0.0000 
      3 O          -4.3600  -56.8240   38.2280 O.2       5 ALP1        0.0000 
      4 CA         -3.0455  -53.7460   33.3700 C.3       4 GLC5        0.0000 
      5 CA         -2.9180  -54.8120   35.3370 C.3      12 GLL5        0.0000 
      6 CA         -3.1730  -52.6800   31.4030 C.3       8 GLP5        0.0000 
      7 NZ         -4.3580  -56.9915   32.8790 N.4       3 LYC4        0.0000 
      8 NZ         -4.5080  -56.3750   34.5080 N.4      11 LYL4        0.0000 
      9 NZ         -5.0410  -58.5130   31.7440 N.4       7 LYP4        0.0000 
     10 N          -5.5620  -56.4030   35.6560 N.am      2 SEC2        0.0000 
     11 N          -4.5080  -56.3750   34.5080 N.am     10 SEL2        0.0000 
     12 N          -6.6160  -56.4310   36.8040 N.am      6 SEP2        0.0000 
     13 N          -5.0290  -57.3610   33.7350 N.am      2 SEC2        0.0000 
     14 N          -5.5500  -58.3470   32.9620 N.am      6 SEP2        0.0000 
     15 N          -4.3580  -56.9915   32.8790 N.am      2 SEC2        0.0000 
     16 N          -4.2080  -57.6080   31.2500 N.am      6 SEP2        0.0000 
     17 NZ         -3.0360  -55.7340   33.1420 N.4      11 LYL4        0.0000 
     18 N          -3.6220  -56.6710   32.1960 N.am      2 SEC2        0.0000 
     19 N          -3.0360  -55.7340   33.1420 N.am     10 SEL2        0.0000 
     20 CA          0.8335  -51.2625   37.8995 C.3       4 GLC5        0.0000 
     21 CA         -0.4700  -51.8510   36.6730 C.3      12 GLL5        0.0000 
     22 CA          2.1370  -50.6740   39.1260 C.3       8 GLP5        0.0000 
     23 CA         -2.5790  -48.8910   34.3930 C.3       4 GLC5        0.0000 
     24 CA         -2.0250  -49.8650   36.3360 C.3      12 GLL5        0.0000 
     25 CA         -3.1330  -47.9170   32.4500 C.3       8 GLP5        0.0000 
     26 CA         -0.8405  -49.9090   34.4500 C.3       4 GLC5        0.0000 
     27 CA          0.3440  -49.9530   32.5640 C.3       8 GLP5        0.0000 
     28 CA         -0.7005  -48.2470   36.5905 C.3       4 GLC5        0.0000 
     29 CA          0.6240  -46.6290   36.8450 C.3       8 GLP5        0.0000 
     30 N          -2.9930  -48.8380   34.2180 N.am      2 SEC2        0.0000 
     31 N          -1.9880  -49.2990   35.0220 N.am     10 SEL2        0.0000 
     32 N          -3.9980  -48.3770   33.4140 N.am      6 SEP2        0.0000 
     33 O          -2.0175  -47.8445   35.3630 O.2       1 ALC1        0.0000 
     34 O          -1.9880  -49.2990   35.0220 O.2       9 ALL1        0.0000 
     35 O          -2.0470  -46.3900   35.7040 O.2       5 ALP1        0.0000 
     36 N          -4.2015  -48.9140   34.7205 N.am      2 SEC2        0.0000 
     37 N          -4.4050  -49.4510   36.0270 N.am     10 SEL2        0.0000 
     38 O          -4.8610  -50.3905   34.7765 O.2       1 ALC1        0.0000 
     39 O          -4.4050  -49.4510   36.0270 O.2       9 ALL1        0.0000 
     40 O          -5.3170  -51.3300   33.5260 O.2       5 ALP1        0.0000 
     41 N          -1.0460  -51.3660   41.9560 N.am      2 SEC2        0.0000 
     42 N          -2.1030  -50.6080   41.1150 N.am     10 SEL2        0.0000 
     43 N           0.0110  -52.1240   42.7970 N.am      6 SEP2        0.0000 
     44 CA         -2.7040  -52.0975   41.6990 C.3       4 GLC5        0.0000 
     45 CA         -3.3320  -50.1380   41.4000 C.3      12 GLL5        0.0000 
     46 CA         -2.0760  -54.0570   41.9980 C.3       8 GLP5        0.0000 
     47 CA         -5.2430  -51.2310   43.1250 C.3       4 GLC5        0.0000 
     48 CA         -4.0340  -49.6250   42.6050 C.3      12 GLL5        0.0000 
     49 CA         -6.4520  -52.8370   43.6450 C.3       8 GLP5        0.0000 
     50 O          -2.2250  -50.2520   44.4800 O.2       1 ALC1        0.0000 
     51 O          -3.3960  -49.5500   43.7980 O.2       9 ALL1        0.0000 
     52 O          -1.0540  -50.9540   45.1620 O.2       5 ALP1        0.0000 
     53 CA         -6.6005  -50.8015   41.8705 C.3       4 GLC5        0.0000 
     54 CA         -5.9710  -49.2940   41.2870 C.3      12 GLL5        0.0000 
     55 CA         -7.2300  -52.3090   42.4540 C.3       8 GLP5        0.0000 
     56 CA         -5.2235  -47.5705   40.1825 C.3       4 GLC5        0.0000 
     57 CA         -4.4760  -45.8470   39.0780 C.3       8 GLP5        0.0000 
     58 CA         -5.8800  -51.3755   40.0400 C.3       4 GLC5        0.0000 
     59 CA         -4.1060  -50.1800   40.1470 C.3      12 GLL5        0.0000 
     60 CA         -7.6540  -52.5710   39.9330 C.3       8 GLP5        0.0000 
     61 CA         -4.2910  -48.0135   39.6125 C.3       4 GLC5        0.0000 
     62 CA         -0.2963  -56.8615   36.8585 C.3       4 GLC5        0.0000 
     63 CA         -0.9060  -54.5540   36.8460 C.3      12 GLL5        0.0000 
     64 CA          0.7190  -58.6920   37.3080 C.3       8 GLP5        0.0000 
     65 CA         -2.4357  -48.3040   37.9380 C.3       4 GLC5        0.0000 
     66 CA         -2.1750  -46.8640   39.2080 C.3       8 GLP5        0.0000 
@<TRIPOS>BOND
@<TRIPOS>SUBSTRUCTURE
     1 ALC1        1 GROUP        1 X    ALC  0     ROOT ALC X 1
     2 SEC2       10 GROUP        1 X    SEC  0     **** SEC X 2
     3 LYC4        7 GROUP        1 X    LYC  0     **** LYC X 4
     4 GLC5        4 GROUP        1 X    GLC  0     **** GLC X 6
     5 ALP1        3 GROUP        1 Y    ALP  0     ROOT ALP Y 8
     6 SEP2       12 GROUP        1 Y    SEP  0     **** SEP Y 9
     7 LYP4        9 GROUP        1 Y    LYP  0     **** LYP Y 11
     8 GLP5        6 GROUP        1 Y    GLP  0     **** GLP Y 13
     9 ALL1        2 GROUP        1 Z    ALL  0     ROOT ALL Z 15
    10 SEL2       11 GROUP        1 Z    SEL  0     **** SEL Z 16
    11 LYL4        8 GROUP        1 Z    LYL  0     **** LYL Z 18
    12 GLL5        5 GROUP        1 Z    GLL  0     **** GLL Z 20
@<TRIPOS>SET

