#    Name: 3rib_SAH_2_ligand
#    Modification time : Tue Mar 25 11:29:50 2014

@<TRIPOS>MOLECULE
3rib_SAH_2_ligand
   46    48     1     0     0
SMALL
NO_CHARGES


@<TRIPOS>ATOM
      1 N          -3.9410  -54.5010   36.3790 N.4       1 SAH445      0.0000 
      2 CA         -2.9180  -54.8120   35.3370 C.3       1 SAH445      0.0000 
      3 CB         -1.7170  -55.5080   35.9720 C.3       1 SAH445      0.0000 
      4 CG         -0.9060  -54.5540   36.8460 C.3       1 SAH445      0.0000 
      5 SD         -0.0610  -53.3640   35.8510 S.3       1 SAH445      0.0000 
      6 C          -3.5180  -55.6850   34.2750 C.2       1 SAH445      0.0000 
      7 O          -4.5080  -56.3750   34.5080 O.co2     1 SAH445      0.0000 
      8 OXT        -3.0360  -55.7340   33.1420 O.co2     1 SAH445      0.0000 
      9 C5'        -0.4700  -51.8510   36.6730 C.3       1 SAH445      0.0000 
     10 C4'        -1.8740  -51.3810   36.2960 C.3       1 SAH445      0.0000 
     11 O4'        -2.8240  -51.9210   37.2230 O.3       1 SAH445      0.0000 
     12 C3'        -2.0250  -49.8650   36.3360 C.3       1 SAH445      0.0000 
     13 O3'        -1.9880  -49.2990   35.0220 O.3       1 SAH445      0.0000 
     14 C2'        -3.3680  -49.6230   37.0000 C.3       1 SAH445      0.0000 
     15 O2'        -4.4050  -49.4510   36.0270 O.3       1 SAH445      0.0000 
     16 C1'        -3.6380  -50.8930   37.7910 C.3       1 SAH445      0.0000 
     17 N9         -3.2820  -50.6730   39.2190 N.pl3     1 SAH445      0.0000 
     18 C8         -2.0900  -50.9260   39.7980 C.2       1 SAH445      0.0000 
     19 N7         -2.1030  -50.6080   41.1150 N.2       1 SAH445      0.0000 
     20 C5         -3.3320  -50.1380   41.4000 C.ar      1 SAH445      0.0000 
     21 C6         -4.0340  -49.6250   42.6050 C.ar      1 SAH445      0.0000 
     22 N6         -3.3960  -49.5500   43.7980 N.pl3     1 SAH445      0.0000 
     23 N1         -5.3250  -49.2290   42.4700 N.ar      1 SAH445      0.0000 
     24 C2         -5.9710  -49.2940   41.2870 C.ar      1 SAH445      0.0000 
     25 N3         -5.3980  -49.7530   40.1580 N.ar      1 SAH445      0.0000 
     26 C4         -4.1060  -50.1800   40.1470 C.ar      1 SAH445      0.0000 
     27 H          -2.5766  -53.8910   34.8858 H         1 SAH445      0.0000 
     28 H          -1.0739  -55.9060   35.1828 H         1 SAH445      0.0000 
     29 H          -2.0678  -56.3437   36.5830 H         1 SAH445      0.0000 
     30 H          -0.1182  -55.0415   37.3754 H         1 SAH445      0.0000 
     31 H          -1.5148  -53.9565   37.4870 H         1 SAH445      0.0000 
     32 H           0.2957  -51.1784   36.3512 H         1 SAH445      0.0000 
     33 H          -0.3765  -52.0977   37.7087 H         1 SAH445      0.0000 
     34 H          -2.0972  -51.7175   35.2947 H         1 SAH445      0.0000 
     35 H          -1.2621  -49.4745   36.9783 H         1 SAH445      0.0000 
     36 H          -3.2838  -48.8173   37.6746 H         1 SAH445      0.0000 
     37 H          -4.6780  -51.1252   37.7028 H         1 SAH445      0.0000 
     38 H          -1.3089  -51.2944   39.3268 H         1 SAH445      0.0000 
     39 H          -2.6626  -50.2132   43.9472 H         1 SAH445      0.0000 
     40 H          -3.7150  -48.8381   44.4236 H         1 SAH445      0.0000 
     41 H          -6.9828  -48.9662   41.2453 H         1 SAH445      0.0000 
     42 H          -3.7928  -53.6006   36.7879 H         1 SAH445      0.0000 
     43 H          -4.8673  -54.5029   36.0022 H         1 SAH445      0.0000 
     44 H          -3.9264  -55.1675   37.1244 H         1 SAH445      0.0000 
     45 H          -1.9813  -48.3095   35.1666 H         1 SAH445      0.0000 
     46 H          -4.3691  -50.2754   35.4622 H         1 SAH445      0.0000 
@<TRIPOS>BOND
     1    2    1 1    
     2   42    1 1    
     3   43    1 1    
     4   44    1 1    
     5    3    2 1    
     6    6    2 1    
     7   27    2 1    
     8    4    3 1    
     9   28    3 1    
    10   29    3 1    
    11    5    4 1    
    12   30    4 1    
    13   31    4 1    
    14    9    5 1    
    15    7    6 ar   
    16    8    6 ar   
    17   10    9 1    
    18   32    9 1    
    19   33    9 1    
    20   11   10 1    
    21   12   10 1    
    22   34   10 1    
    23   16   11 1    
    24   13   12 1    
    25   14   12 1    
    26   35   12 1    
    27   45   13 1    
    28   15   14 1    
    29   16   14 1    
    30   36   14 1    
    31   46   15 1    
    32   17   16 1    
    33   37   16 1    
    34   18   17 1    
    35   26   17 1    
    36   19   18 2    
    37   38   18 1    
    38   20   19 1    
    39   21   20 ar   
    40   26   20 ar   
    41   22   21 1    
    42   23   21 ar   
    43   39   22 1    
    44   40   22 1    
    45   24   23 ar   
    46   25   24 ar   
    47   41   24 1    
    48   26   25 ar   
@<TRIPOS>SUBSTRUCTURE
     1 SAH445      1 GROUP   
@<TRIPOS>SET

