#    Name: 3d5q_T30_1_INTS_M
#    Modification time : Mon Mar 24 22:44:26 2014

@<TRIPOS>MOLECULE
3d5q_T30_1_INTS_M
   69     0     6     0     0
SMALL
NO_CHARGES


@<TRIPOS>ATOM
      1 CA          3.9085   -4.5690   13.1685 C.3       2 GLC5        0.0000 
      2 CA          6.0180   -4.4320   13.0270 C.3       6 GLL5        0.0000 
      3 CA          1.7990   -4.7060   13.3100 C.3       4 GLP5        0.0000 
      4 CA          6.3400   -3.5515   18.1845 C.3       2 GLC5        0.0000 
      5 CA          7.2960   -2.2600   16.7610 C.3       6 GLL5        0.0000 
      6 CA          5.3840   -4.8430   19.6080 C.3       4 GLP5        0.0000 
      7 CA          5.1685   -2.0470   16.4855 C.3       2 GLC5        0.0000 
      8 CA          3.0410   -1.8340   16.2100 C.3       4 GLP5        0.0000 
      9 CA         10.5005   -1.2760   16.8205 C.3       2 GLC5        0.0000 
     10 CA          8.6600   -1.7640   16.2880 C.3       6 GLL5        0.0000 
     11 CA         12.3410   -0.7880   17.3530 C.3       4 GLP5        0.0000 
     12 CA          7.9115   -2.3820   10.5705 C.3       2 GLC5        0.0000 
     13 CA          7.5320   -0.9140   11.6920 C.3       6 GLL5        0.0000 
     14 CA          8.2910   -3.8500    9.4490 C.3       4 GLP5        0.0000 
     15 CA          6.1120   -1.8305   10.8070 C.3       2 GLC5        0.0000 
     16 CA          4.6920   -2.7470    9.9220 C.3       4 GLP5        0.0000 
     17 N           4.1945    1.8560   15.0880 N.am      1 SEC2        0.0000 
     18 N           5.4230    1.1050   15.0570 N.am      5 SEL2        0.0000 
     19 N           2.9660    2.6070   15.1190 N.am      3 SEP2        0.0000 
     20 CA          4.5055    5.1240   13.4550 C.3       2 GLC5        0.0000 
     21 CA          5.9570    3.6560   13.4440 C.3       6 GLL5        0.0000 
     22 CA          3.0540    6.5920   13.4660 C.3       4 GLP5        0.0000 
     23 CA          4.2550    2.6205    9.1620 C.3       2 GLC5        0.0000 
     24 CA          5.7250    3.0510   10.7140 C.3       6 GLL5        0.0000 
     25 CA          2.7850    2.1900    7.6100 C.3       4 GLP5        0.0000 
     26 CA          5.4120    7.1085    8.6510 C.3       2 GLC5        0.0000 
     27 CA          4.1540    5.7650    9.7650 C.3       6 GLL5        0.0000 
     28 CA          6.6700    8.4520    7.5370 C.3       4 GLP5        0.0000 
     29 CA          2.1070    3.9085   11.1340 C.3       2 GLC5        0.0000 
     30 CA          3.2670    4.8010    9.9390 C.3       6 GLL5        0.0000 
     31 CA          0.9470    3.0160   12.3290 C.3       4 GLP5        0.0000 
     32 CA          3.0260    3.4955    8.7745 C.3       2 GLC5        0.0000 
     33 CA          5.2465    6.9100    7.3775 C.3       2 GLC5        0.0000 
     34 CA          4.1840    6.0990    8.4900 C.3       6 GLL5        0.0000 
     35 CA          6.3090    7.7210    6.2650 C.3       4 GLP5        0.0000 
     36 CA          4.7965    8.1035    9.2770 C.3       2 GLC5        0.0000 
     37 CA          3.7890    6.8240   10.4420 C.3       6 GLL5        0.0000 
     38 CA          5.8040    9.3830    8.1120 C.3       4 GLP5        0.0000 
     39 CA          7.8582   -7.2705   11.7323 C.3       2 GLC5        0.0000 
     40 CA          7.1550   -5.0670   12.5380 C.3       6 GLL5        0.0000 
     41 CA          8.6200   -8.9630   11.3670 C.3       4 GLP5        0.0000 
     42 CA          5.8943   -4.1625   11.0098 C.3       2 GLC5        0.0000 
     43 CA          7.0380   -6.0890   11.6570 C.3       6 GLL5        0.0000 
     44 CA          5.8095   -5.5500   14.2498 C.3       2 GLC5        0.0000 
     45 CA          5.5430   -7.1900   15.0210 C.3       4 GLP5        0.0000 
     46 CA          7.4241   -4.4275   11.0056 C.3       2 GLC5        0.0000 
     47 CA          5.3840   -3.3285   11.7003 C.3       2 GLC5        0.0000 
     48 CA          6.6489   -6.1495   13.7734 C.3       2 GLC5        0.0000 
     49 CA          8.3805   -3.9815   11.4258 C.3       2 GLC5        0.0000 
     50 CA          8.4130   -4.6400   12.9540 C.3       6 GLL5        0.0000 
     51 CA         10.3115   -4.5585   13.4153 C.3       2 GLC5        0.0000 
     52 CA         12.1530   -5.0040   13.4280 C.3       4 GLP5        0.0000 
     53 CA          7.9095   -0.3570   17.5817 C.3       2 GLC5        0.0000 
     54 CA          7.8410    1.2980   18.6390 C.3       4 GLP5        0.0000 
     55 CA          9.8425   -0.4516   11.7643 C.3       2 GLC5        0.0000 
     56 CA          8.0880   -0.0630   12.8220 C.3       6 GLL5        0.0000 
     57 CA         11.7370   -0.7430   11.4110 C.3       4 GLP5        0.0000 
     58 CA          6.5557    5.4898   14.5652 C.3       2 GLC5        0.0000 
     59 CA          7.2450    6.8200   16.1570 C.3       4 GLP5        0.0000 
     60 CA          5.4312    6.1822   12.4965 C.3       2 GLC5        0.0000 
     61 CA          5.7760    4.6630   12.5030 C.3       6 GLL5        0.0000 
     62 CA          5.1480    7.8500   13.1680 C.3       4 GLP5        0.0000 
     63 CA          3.8626    2.2261   11.8161 C.3       2 GLC5        0.0000 
     64 CA          1.8780    1.8280   12.1140 C.3       4 GLP5        0.0000 
     65 CA          4.4785    4.7015    7.9953 C.3       2 GLC5        0.0000 
     66 CA          4.7880    3.4710    6.8630 C.3       4 GLP5        0.0000 
     67 CA          3.4019    6.3228   11.8065 C.3       2 GLC5        0.0000 
     68 CA          2.1321    6.5962    9.5592 C.3       2 GLC5        0.0000 
     69 CA          0.3960    6.9350    9.3120 C.3       4 GLP5        0.0000 
@<TRIPOS>BOND
@<TRIPOS>SUBSTRUCTURE
     1 SEC2       17 GROUP        1 X    SEC  0     ROOT SEC X 2
     2 GLC5        1 GROUP        1 X    GLC  0     **** GLC X 6
     3 SEP2       19 GROUP        1 Y    SEP  0     ROOT SEP Y 9
     4 GLP5        3 GROUP        1 Y    GLP  0     **** GLP Y 13
     5 SEL2       18 GROUP        1 Z    SEL  0     ROOT SEL Z 16
     6 GLL5        2 GROUP        1 Z    GLL  0     **** GLL Z 20
@<TRIPOS>SET

