#    Name: 3d5q_T30_1_ligand
#    Modification time : Mon Mar 24 22:44:26 2014

@<TRIPOS>MOLECULE
3d5q_T30_1_ligand
   48    51     1     0     0
SMALL
NO_CHARGES


@<TRIPOS>ATOM
      1 F21         7.0380   -6.0890   11.6570 F         1 T30293      0.0000 
      2 C18         7.1550   -5.0670   12.5380 C.ar      1 T30293      0.0000 
      3 C14         6.0180   -4.4320   13.0270 C.ar      1 T30293      0.0000 
      4 C9          6.1340   -3.3880   13.9300 C.ar      1 T30293      0.0000 
      5 C13         8.4130   -4.6400   12.9540 C.ar      1 T30293      0.0000 
      6 C8          8.5270   -3.5860   13.8510 C.ar      1 T30293      0.0000 
      7 C3          7.3880   -2.9610   14.3430 C.ar      1 T30293      0.0000 
      8 C1          7.4950   -1.8210   15.3120 C.3       1 T30293      0.0000 
      9 C4          7.2960   -2.2600   16.7610 C.3       1 T30293      0.0000 
     10 C5          8.6600   -1.7640   16.2880 C.3       1 T30293      0.0000 
     11 C2          6.7920   -0.5380   14.9670 C.2       1 T30293      0.0000 
     12 N6          7.0590    0.1900   13.8730 N.pl3     1 T30293      0.0000 
     13 C11         8.0880   -0.0630   12.8220 C.3       1 T30293      0.0000 
     14 C16         8.6400    1.2500   12.2640 C.3       1 T30293      0.0000 
     15 C17         7.5320   -0.9140   11.6920 C.3       1 T30293      0.0000 
     16 N7          5.7970   -0.0640   15.7380 N.2       1 T30293      0.0000 
     17 N12         5.4230    1.1050   15.0570 N.2       1 T30293      0.0000 
     18 C10         6.2010    1.2300   13.9540 C.2       1 T30293      0.0000 
     19 C15         6.0320    2.3490   12.9970 C.ar      1 T30293      0.0000 
     20 C19         5.9570    3.6560   13.4440 C.ar      1 T30293      0.0000 
     21 C22         5.7760    4.6630   12.5030 C.ar      1 T30293      0.0000 
     22 C20         5.9070    2.0460   11.6480 C.ar      1 T30293      0.0000 
     23 C23         5.7250    3.0510   10.7140 C.ar      1 T30293      0.0000 
     24 C24         5.6530    4.3660   11.1470 C.ar      1 T30293      0.0000 
     25 O25         5.4620    5.3700   10.2220 O.3       1 T30293      0.0000 
     26 C26         4.1540    5.7650    9.7650 C.3       1 T30293      0.0000 
     27 F29         3.2670    4.8010    9.9390 F         1 T30293      0.0000 
     28 F27         4.1840    6.0990    8.4900 F         1 T30293      0.0000 
     29 F28         3.7890    6.8240   10.4420 F         1 T30293      0.0000 
     30 H           5.0854   -4.7419   12.7142 H         1 T30293      0.0000 
     31 H           5.2883   -2.9270   14.2963 H         1 T30293      0.0000 
     32 H           9.2570   -5.1060   12.5962 H         1 T30293      0.0000 
     33 H           9.4587   -3.2665   14.1526 H         1 T30293      0.0000 
     34 H           7.3268   -3.2042   16.7790 H         1 T30293      0.0000 
     35 H           6.8771   -1.5477   17.2191 H         1 T30293      0.0000 
     36 H           8.7529   -0.8672   16.5749 H         1 T30293      0.0000 
     37 H           9.2026   -2.5237   16.1348 H         1 T30293      0.0000 
     38 H           8.9263   -0.6068   13.2689 H         1 T30293      0.0000 
     39 H           6.0319    3.8775   14.4339 H         1 T30293      0.0000 
     40 H           5.7317    5.6498   12.8129 H         1 T30293      0.0000 
     41 H           5.9505    1.0599   11.3401 H         1 T30293      0.0000 
     42 H           5.6447    2.8279    9.7187 H         1 T30293      0.0000 
     43 H           9.0709    1.8042   12.9762 H         1 T30293      0.0000 
     44 H           9.3300    1.0924   11.5576 H         1 T30293      0.0000 
     45 H           7.9211    1.8098   11.8519 H         1 T30293      0.0000 
     46 H           8.2189   -1.0897   10.9868 H         1 T30293      0.0000 
     47 H           7.2136   -1.8037   12.0191 H         1 T30293      0.0000 
     48 H           6.7559   -0.4724   11.2418 H         1 T30293      0.0000 
@<TRIPOS>BOND
     1    2    1 1    
     2    3    2 ar   
     3    5    2 ar   
     4    4    3 ar   
     5   30    3 1    
     6    7    4 ar   
     7   31    4 1    
     8    6    5 ar   
     9   32    5 1    
    10    7    6 ar   
    11   33    6 1    
    12    8    7 1    
    13    9    8 1    
    14   10    8 1    
    15   11    8 1    
    16   10    9 1    
    17   34    9 1    
    18   35    9 1    
    19   36   10 1    
    20   37   10 1    
    21   12   11 1    
    22   16   11 2    
    23   13   12 1    
    24   18   12 1    
    25   14   13 1    
    26   15   13 1    
    27   38   13 1    
    28   43   14 1    
    29   44   14 1    
    30   45   14 1    
    31   46   15 1    
    32   47   15 1    
    33   48   15 1    
    34   17   16 1    
    35   18   17 2    
    36   19   18 1    
    37   20   19 ar   
    38   22   19 ar   
    39   21   20 ar   
    40   39   20 1    
    41   24   21 ar   
    42   40   21 1    
    43   23   22 ar   
    44   41   22 1    
    45   24   23 ar   
    46   42   23 1    
    47   25   24 1    
    48   26   25 1    
    49   27   26 1    
    50   28   26 1    
    51   29   26 1    
@<TRIPOS>SUBSTRUCTURE
     1 T30293      1 GROUP   
@<TRIPOS>SET

