#    Name: 3zs1_PVW_1_INTS_M
#    Modification time : Tue Mar 25 03:53:30 2014

@<TRIPOS>MOLECULE
3zs1_PVW_1_INTS_M
    8     0     3     0     0
SMALL
NO_CHARGES


@<TRIPOS>ATOM
      1 CA         -5.2365   19.5545   13.2785 C.3       1 GLC5        0.0000 
      2 CA         -3.2070   19.6670   12.7380 C.3       3 GLL5        0.0000 
      3 CA         -7.2660   19.4420   13.8190 C.3       2 GLP5        0.0000 
      4 CA         -4.6535   19.8155   19.7860 C.3       1 GLC5        0.0000 
      5 CA         -4.1910   19.7860   17.8590 C.3       3 GLL5        0.0000 
      6 CA         -5.1160   19.8450   21.7130 C.3       2 GLP5        0.0000 
      7 CA         -5.9815   18.3148   14.6635 C.3       1 GLC5        0.0000 
      8 CA         -4.8400   16.5790   14.9580 C.3       3 GLL5        0.0000 
@<TRIPOS>BOND
@<TRIPOS>SUBSTRUCTURE
     1 GLC5        1 GROUP        1 X    GLC  0     ROOT GLC X 6
     2 GLP5        3 GROUP        1 Y    GLP  0     ROOT GLP Y 13
     3 GLL5        2 GROUP        1 Z    GLL  0     ROOT GLL Z 20
@<TRIPOS>SET

