#    Name: 3zs1_PVW_1_ligand
#    Modification time : Tue Mar 25 03:53:30 2014

@<TRIPOS>MOLECULE
3zs1_PVW_1_ligand
   25    26     1     0     0
SMALL
NO_CHARGES


@<TRIPOS>ATOM
      1 C1         -3.2070   19.6670   12.7380 C.3       1 PVW606      0.0000 
      2 O2         -2.8070   18.3850   13.1970 O.3       1 PVW606      0.0000 
      3 C3         -1.8480   18.5990   14.2230 C.3       1 PVW606      0.0000 
      4 C4         -2.1780   17.7560   15.4420 C.3       1 PVW606      0.0000 
      5 N5         -3.2740   18.2970   16.2260 N.am      1 PVW606      0.0000 
      6 C6         -3.1200   19.3110   17.1520 C.2       1 PVW606      0.0000 
      7 C7         -4.1910   19.7860   17.8590 C.2       1 PVW606      0.0000 
      8 C8         -5.5250   19.3220   17.7440 C.2       1 PVW606      0.0000 
      9 O9         -6.4670   19.7600   18.3890 O.2       1 PVW606      0.0000 
     10 N10        -5.6060   18.3120   16.8080 N.am      1 PVW606      0.0000 
     11 C11        -4.5540   17.7960   16.0580 C.2       1 PVW606      0.0000 
     12 S12        -4.8400   16.5790   14.9580 S.2       1 PVW606      0.0000 
     13 N13        -3.6830   20.7640   18.6590 N.pl3     1 PVW606      0.0000 
     14 C14        -2.3410   20.8320   18.4010 C.2       1 PVW606      0.0000 
     15 N15        -1.9590   19.9610   17.4870 N.2       1 PVW606      0.0000 
     16 H          -1.8193   19.6528   14.5406 H         1 PVW606      0.0000 
     17 H          -0.8322   18.3309   13.8937 H         1 PVW606      0.0000 
     18 H          -1.2614   17.6711   16.0583 H         1 PVW606      0.0000 
     19 H          -2.4142   16.7306   15.0958 H         1 PVW606      0.0000 
     20 H          -6.5750   17.8781   16.6382 H         1 PVW606      0.0000 
     21 H          -4.1648   21.2988   19.2788 H         1 PVW606      0.0000 
     22 H          -1.7424   21.4758   18.8651 H         1 PVW606      0.0000 
     23 H          -2.4351   20.1891   12.3753 H         1 PVW606      0.0000 
     24 H          -3.8875   19.6044   12.0079 H         1 PVW606      0.0000 
     25 H          -3.6124   20.2139   13.4705 H         1 PVW606      0.0000 
@<TRIPOS>BOND
     1    2    1 1    
     2   23    1 1    
     3   24    1 1    
     4   25    1 1    
     5    3    2 1    
     6    4    3 1    
     7   16    3 1    
     8   17    3 1    
     9    5    4 1    
    10   18    4 1    
    11   19    4 1    
    12    6    5 1    
    13   11    5 1    
    14    7    6 2    
    15   15    6 1    
    16    8    7 1    
    17   13    7 1    
    18    9    8 2    
    19   10    8 1    
    20   11   10 1    
    21   20   10 1    
    22   12   11 2    
    23   14   13 1    
    24   21   13 1    
    25   15   14 2    
    26   22   14 1    
@<TRIPOS>SUBSTRUCTURE
     1 PVW606      1 GROUP   
@<TRIPOS>SET

