#    Name: 3kc3_MK2_2_INTS_M
#    Modification time : Mon Mar 24 19:12:03 2014

@<TRIPOS>MOLECULE
3kc3_MK2_2_INTS_M
   65     0     6     0     0
SMALL
NO_CHARGES


@<TRIPOS>ATOM
      1 CA         33.2880   21.4805   -6.5180 C.3       2 GLC5        0.0000 
      2 CA         32.8420   19.8070   -7.5170 C.3       6 GLL5        0.0000 
      3 CA         33.7340   23.1540   -5.5190 C.3       4 GLP5        0.0000 
      4 CA         30.0615   16.3805   -5.8730 C.3       2 GLC5        0.0000 
      5 CA         31.2020   17.4970   -7.2010 C.3       6 GLL5        0.0000 
      6 CA         28.9210   15.2640   -4.5450 C.3       4 GLP5        0.0000 
      7 CA         21.2185   19.8625  -14.0330 C.3       2 GLC5        0.0000 
      8 CA         21.9270   19.0700  -12.5550 C.3       6 GLL5        0.0000 
      9 CA         20.5100   20.6550  -15.5110 C.3       4 GLP5        0.0000 
     10 CA         25.2470   23.3630  -11.6610 C.3       2 GLC5        0.0000 
     11 CA         25.7790   21.8560  -10.3000 C.3       6 GLL5        0.0000 
     12 CA         24.7150   24.8700  -13.0220 C.3       4 GLP5        0.0000 
     13 CA         27.6150   18.6065  -11.2100 C.3       2 GLC5        0.0000 
     14 CA         27.1400   19.9210   -9.7460 C.3       6 GLL5        0.0000 
     15 CA         28.0900   17.2920  -12.6740 C.3       4 GLP5        0.0000 
     16 CA         28.9900   18.7480   -6.4885 C.3       2 GLC5        0.0000 
     17 CA         30.7440   18.6560   -7.7710 C.3       6 GLL5        0.0000 
     18 CA         27.2360   18.8400   -5.2060 C.3       4 GLP5        0.0000 
     19 CA         23.1700   20.0475   -9.2980 C.3       2 GLC5        0.0000 
     20 CA         23.7130   19.8610  -11.2470 C.3       6 GLL5        0.0000 
     21 CA         22.6270   20.2340   -7.3490 C.3       4 GLP5        0.0000 
     22 CA         25.7390   20.6170  -12.2645 C.3       2 GLC5        0.0000 
     23 CA         25.9760   20.4890  -10.2380 C.3       6 GLL5        0.0000 
     24 CA         25.5020   20.7450  -14.2910 C.3       4 GLP5        0.0000 
     25 CA         24.3015   20.3615   -8.7935 C.3       2 GLC5        0.0000 
     26 CA         27.6490   24.0850  -11.1980 C.3       2 GLC5        0.0000 
     27 CA         26.8640   22.5420   -9.8260 C.3       6 GLL5        0.0000 
     28 CA         28.4340   25.6280  -12.5700 C.3       4 GLP5        0.0000 
     29 CA         29.6505   22.3605  -10.6990 C.3       2 GLC5        0.0000 
     30 CA         28.0630   22.0180   -9.3160 C.3       6 GLL5        0.0000 
     31 CA         31.2380   22.7030  -12.0820 C.3       4 GLP5        0.0000 
     32 CA         23.7085   20.9750  -13.0245 C.3       2 GLC5        0.0000 
     33 CA         21.9150   21.2050  -11.7580 C.3       6 GLL5        0.0000 
     34 CA         21.2125   20.9300  -13.6345 C.3       2 GLC5        0.0000 
     35 CA         22.7150   23.2415  -11.7555 C.3       2 GLC5        0.0000 
     36 CA         23.5150   25.2780  -11.7530 C.3       4 GLP5        0.0000 
     37 CA         20.5245   20.8635  -10.8320 C.3       2 GLC5        0.0000 
     38 CA         19.1340   20.5220   -9.9060 C.3       4 GLP5        0.0000 
     39 N          20.2900   20.3045  -13.5585 N.am      1 SEC2        0.0000 
     40 N          21.3050   20.2410  -12.4750 N.am      5 SEL2        0.0000 
     41 N          19.2750   20.3680  -14.6420 N.am      3 SEP2        0.0000 
     42 N          29.2475   24.8040   -8.2595 N.am      1 SEC2        0.0000 
     43 N          28.1760   24.1630   -9.2340 N.am      5 SEL2        0.0000 
     44 N          30.3190   25.4450   -7.2850 N.am      3 SEP2        0.0000 
     45 N          22.7375   21.6875   -9.8740 N.am      1 SEC2        0.0000 
     46 N          23.0930   21.0450  -11.1420 N.am      5 SEL2        0.0000 
     47 N          22.3820   22.3300   -8.6060 N.am      3 SEP2        0.0000 
     48 CA         32.0890   17.9809   -5.1371 C.3       2 GLC5        0.0000 
     49 CA         32.5200   17.5450   -6.7890 C.3       6 GLL5        0.0000 
     50 CA         32.1170   18.1640   -3.2430 C.3       4 GLP5        0.0000 
     51 CA         31.1668   20.2937  -10.1580 C.3       2 GLC5        0.0000 
     52 CA         30.6680   20.7350   -8.5580 C.3       6 GLL5        0.0000 
     53 CA         31.2390   20.3270  -12.0670 C.3       4 GLP5        0.0000 
     54 CA         26.9428   22.1465  -12.0285 C.3       2 GLC5        0.0000 
     55 CA         27.5640   22.0940  -13.9940 C.3       4 GLP5        0.0000 
     56 CA         26.1373   21.0572   -8.2980 C.3       2 GLC5        0.0000 
     57 CA         26.3970   20.9420   -6.3270 C.3       4 GLP5        0.0000 
     58 CA         24.3122   20.0755  -13.0210 C.3       2 GLC5        0.0000 
     59 CA         21.3233   19.2370  -10.8040 C.3       2 GLC5        0.0000 
     60 CA         19.5240   19.0680   -9.8570 C.3       4 GLP5        0.0000 
     61 CA         26.9302   21.6110   -7.9490 C.3       2 GLC5        0.0000 
     62 CA         30.0370   20.3582  -10.5332 C.3       2 GLC5        0.0000 
     63 CA         28.2220   20.6460   -9.2690 C.3       6 GLL5        0.0000 
     64 CA         27.4808   20.5751   -7.7229 C.3       2 GLC5        0.0000 
     65 CA         29.4480   20.1330   -8.7300 C.3       6 GLL5        0.0000 
@<TRIPOS>BOND
@<TRIPOS>SUBSTRUCTURE
     1 SEC2       39 GROUP        1 X    SEC  0     ROOT SEC X 2
     2 GLC5        1 GROUP        1 X    GLC  0     **** GLC X 6
     3 SEP2       41 GROUP        1 Y    SEP  0     ROOT SEP Y 9
     4 GLP5        3 GROUP        1 Y    GLP  0     **** GLP Y 13
     5 SEL2       40 GROUP        1 Z    SEL  0     ROOT SEL Z 16
     6 GLL5        2 GROUP        1 Z    GLL  0     **** GLL Z 20
@<TRIPOS>SET

