#    Name: 3kc3_MK2_2_ligand
#    Modification time : Mon Mar 24 19:12:03 2014

@<TRIPOS>MOLECULE
3kc3_MK2_2_ligand
   40    44     1     0     0
SMALL
NO_CHARGES


@<TRIPOS>ATOM
      1 C1         33.3200   18.6520   -6.9340 C.ar      1 MK2500      0.0000 
      2 C2         32.5200   17.5450   -6.7890 C.ar      1 MK2500      0.0000 
      3 C3         32.8420   19.8070   -7.5170 C.ar      1 MK2500      0.0000 
      4 C4         31.2020   17.4970   -7.2010 C.ar      1 MK2500      0.0000 
      5 C5         23.1370   18.8320  -11.9550 C.ar      1 MK2500      0.0000 
      6 C6         21.9270   19.0700  -12.5550 C.ar      1 MK2500      0.0000 
      7 C7         30.6680   20.7350   -8.5580 C.2       1 MK2500      0.0000 
      8 C8         25.7790   21.8560  -10.3000 C.ar      1 MK2500      0.0000 
      9 C9         27.1400   19.9210   -9.7460 C.ar      1 MK2500      0.0000 
     10 C10        26.9420   23.9140   -9.7730 C.2       1 MK2500      0.0000 
     11 C11        31.5210   19.7860   -7.9400 C.ar      1 MK2500      0.0000 
     12 C12        30.7440   18.6560   -7.7710 C.ar      1 MK2500      0.0000 
     13 C13        23.7130   19.8610  -11.2470 C.ar      1 MK2500      0.0000 
     14 C14        25.9760   20.4890  -10.2380 C.ar      1 MK2500      0.0000 
     15 C15        26.8640   22.5420   -9.8260 C.ar      1 MK2500      0.0000 
     16 C16        28.2220   20.6460   -9.2690 C.ar      1 MK2500      0.0000 
     17 C17        29.4480   20.1330   -8.7300 C.2       1 MK2500      0.0000 
     18 C18        28.0630   22.0180   -9.3160 C.ar      1 MK2500      0.0000 
     19 C19        21.9150   21.2050  -11.7580 C.ar      1 MK2500      0.0000 
     20 N20        21.3040   22.4660  -11.6360 N.pl3     1 MK2500      0.0000 
     21 N21        28.8650   23.0340   -8.9490 N.pl3     1 MK2500      0.0000 
     22 N22        21.3050   20.2410  -12.4750 N.ar      1 MK2500      0.0000 
     23 N23        28.1760   24.1630   -9.2340 N.2       1 MK2500      0.0000 
     24 N24        23.0930   21.0450  -11.1420 N.ar      1 MK2500      0.0000 
     25 N25        24.9720   19.5900  -10.6530 N.pl3     1 MK2500      0.0000 
     26 O26        29.4840   18.8600   -8.2550 O.3       1 MK2500      0.0000 
     27 H          34.3052   18.6213   -6.5987 H         1 MK2500      0.0000 
     28 H          32.9315   16.6817   -6.3384 H         1 MK2500      0.0000 
     29 H          33.4183   20.6243   -7.6313 H         1 MK2500      0.0000 
     30 H          30.6371   16.6854   -7.0904 H         1 MK2500      0.0000 
     31 H          23.5947   17.9256  -12.0299 H         1 MK2500      0.0000 
     32 H          21.4850   18.2756  -13.1006 H         1 MK2500      0.0000 
     33 H          30.9188   21.6098   -8.7955 H         1 MK2500      0.0000 
     34 H          24.9647   22.2724  -10.6407 H         1 MK2500      0.0000 
     35 H          27.2088   18.8634   -9.7330 H         1 MK2500      0.0000 
     36 H          26.2994   24.5306  -10.0433 H         1 MK2500      0.0000 
     37 H          21.7935   23.1405  -11.0833 H         1 MK2500      0.0000 
     38 H          20.4322   22.5805  -12.1124 H         1 MK2500      0.0000 
     39 H          29.7320   22.9759   -8.5697 H         1 MK2500      0.0000 
     40 H          25.1923   18.5359  -10.4961 H         1 MK2500      0.0000 
@<TRIPOS>BOND
     1    2    1 ar   
     2    3    1 ar   
     3   27    1 1    
     4    4    2 ar   
     5   28    2 1    
     6   11    3 ar   
     7   29    3 1    
     8   12    4 ar   
     9   30    4 1    
    10    6    5 ar   
    11   13    5 ar   
    12   31    5 1    
    13   22    6 ar   
    14   32    6 1    
    15   11    7 1    
    16   17    7 2    
    17   33    7 1    
    18   14    8 ar   
    19   15    8 ar   
    20   34    8 1    
    21   14    9 ar   
    22   16    9 ar   
    23   35    9 1    
    24   15   10 1    
    25   23   10 2    
    26   36   10 1    
    27   12   11 ar   
    28   26   12 1    
    29   24   13 ar   
    30   25   13 1    
    31   25   14 1    
    32   18   15 ar   
    33   17   16 1    
    34   18   16 ar   
    35   26   17 1    
    36   21   18 1    
    37   20   19 1    
    38   22   19 ar   
    39   24   19 ar   
    40   37   20 1    
    41   38   20 1    
    42   23   21 1    
    43   39   21 1    
    44   40   25 1    
@<TRIPOS>SUBSTRUCTURE
     1 MK2500      1 GROUP   
@<TRIPOS>SET

