#    Name: 2wf0_ZY0_1_INTS_M
#    Modification time : Tue Mar 25 04:15:42 2014

@<TRIPOS>MOLECULE
2wf0_ZY0_1_INTS_M
   91     0     9     0     0
SMALL
NO_CHARGES


@<TRIPOS>ATOM
      1 CA         32.1800    1.9670   36.2455 C.3       3 GLC5        0.0000 
      2 CA         31.0700    0.2280   36.3080 C.3       9 GLL5        0.0000 
      3 CA         33.2900    3.7060   36.1830 C.3       6 GLP5        0.0000 
      4 CA         29.2080   -3.1065   37.7690 C.3       3 GLC5        0.0000 
      5 CA         30.8240   -2.2210   36.5710 C.3       9 GLL5        0.0000 
      6 CA         27.5920   -3.9920   38.9670 C.3       6 GLP5        0.0000 
      7 O          27.9785    0.6820   33.9595 O.2       1 ALC1        0.0000 
      8 O          29.0530    1.5770   33.6940 O.2       7 ALL1        0.0000 
      9 O          26.9040   -0.2130   34.2250 O.2       4 ALP1        0.0000 
     10 N          32.7105    1.9870   34.0875 N.am      2 SEC2        0.0000 
     11 N          31.1760    2.2470   34.1250 N.am      8 SEL2        0.0000 
     12 N          34.2450    1.7270   34.0500 N.am      5 SEP2        0.0000 
     13 CA         26.4335    1.1825   32.6085 C.3       3 GLC5        0.0000 
     14 CA         28.1350    1.6880   31.4250 C.3       9 GLL5        0.0000 
     15 CA         24.7320    0.6770   33.7920 C.3       6 GLP5        0.0000 
     16 O          26.7350    4.2030   31.1910 O.2       1 ALC1        0.0000 
     17 O          27.8120    4.5820   31.9050 O.2       7 ALL1        0.0000 
     18 O          25.6580    3.8240   30.4770 O.2       4 ALP1        0.0000 
     19 CA         28.0335    8.6785   34.8115 C.3       3 GLC5        0.0000 
     20 CA         28.7060    6.8530   35.0270 C.3       9 GLL5        0.0000 
     21 CA         27.3610   10.5040   34.5960 C.3       6 GLP5        0.0000 
     22 CA         27.3820    7.5330   36.4665 C.3       3 GLC5        0.0000 
     23 CA         26.0580    8.2130   37.9060 C.3       6 GLP5        0.0000 
     24 CA         31.3670    2.0700   31.0695 C.3       3 GLC5        0.0000 
     25 CA         30.3050    0.3740   30.9010 C.3       9 GLL5        0.0000 
     26 CA         32.4290    3.7660   31.2380 C.3       6 GLP5        0.0000 
     27 CA         30.6645   -1.2375   41.8215 C.3       3 GLC5        0.0000 
     28 CA         32.2300   -0.9430   40.6150 C.3       9 GLL5        0.0000 
     29 CA         29.0990   -1.5320   43.0280 C.3       6 GLP5        0.0000 
     30 CA         31.5085    0.8745   40.8965 C.3       3 GLC5        0.0000 
     31 CA         30.7870    2.6920   41.1780 C.3       6 GLP5        0.0000 
     32 CA         33.6715    1.3465   37.9410 C.3       3 GLC5        0.0000 
     33 CA         33.2980   -0.6110   38.4300 C.3       9 GLL5        0.0000 
     34 CA         34.0450    3.3040   37.4520 C.3       6 GLP5        0.0000 
     35 CA         33.6625   -0.6625   36.2920 C.3       3 GLC5        0.0000 
     36 CA         34.0270   -0.7140   34.1540 C.3       6 GLP5        0.0000 
     37 N          28.5710   -1.5020   38.9690 N.am      2 SEC2        0.0000 
     38 N          30.0350   -1.3360   39.6720 N.am      8 SEL2        0.0000 
     39 N          27.1070   -1.6680   38.2660 N.am      5 SEP2        0.0000 
     40 N          28.8025   -1.5850   40.3990 N.am      2 SEC2        0.0000 
     41 N          27.5700   -1.8340   41.1260 N.am      5 SEP2        0.0000 
     42 CA         27.1430   -5.8395   33.5615 C.3       3 GLC5        0.0000 
     43 CA         27.5200   -3.8140   33.5570 C.3       9 GLL5        0.0000 
     44 CA         26.7660   -7.8650   33.5660 C.3       6 GLP5        0.0000 
     45 CA         25.7615   -4.6160   33.1285 C.3       3 GLC5        0.0000 
     46 CA         24.0030   -5.4180   32.7000 C.3       6 GLP5        0.0000 
     47 CA         26.4190   -3.5020   31.7320 C.3       3 GLC5        0.0000 
     48 CA         25.3180   -3.1900   29.9070 C.3       6 GLP5        0.0000 
     49 CA         29.7395   -5.2580   32.3600 C.3       3 GLC5        0.0000 
     50 CA         29.0470   -3.8060   33.4480 C.3       9 GLL5        0.0000 
     51 CA         30.4320   -6.7100   31.2720 C.3       6 GLP5        0.0000 
     52 CA         30.1785    6.8620   30.2760 C.3       3 GLC5        0.0000 
     53 CA         29.9070    9.0390   30.5870 C.3       9 GLL5        0.0000 
     54 CA         30.4500    4.6850   29.9650 C.3       6 GLP5        0.0000 
     55 CA         27.2810   10.7960   31.2025 C.3       3 GLC5        0.0000 
     56 CA         29.0560   10.0150   30.8270 C.3       9 GLL5        0.0000 
     57 CA         25.5060   11.5770   31.5780 C.3       6 GLP5        0.0000 
     58 CA         28.2085   10.2595   32.7115 C.3       3 GLC5        0.0000 
     59 CA         30.5205    7.5035   28.3890 C.3       3 GLC5        0.0000 
     60 CA         29.3120    8.0770   29.9110 C.3       9 GLL5        0.0000 
     61 CA         31.7290    6.9300   26.8670 C.3       6 GLP5        0.0000 
     62 CA         29.4715    6.4085   29.3770 C.3       3 GLC5        0.0000 
     63 CA         29.6310    4.7400   28.8430 C.3       6 GLP5        0.0000 
     64 CA         31.3315    8.2075   28.3760 C.3       3 GLC5        0.0000 
     65 CA         30.9340    9.4850   29.8850 C.3       9 GLL5        0.0000 
     66 CA         32.0545   -1.2050   34.5235 C.3       3 GLC5        0.0000 
     67 CA         30.1720   -2.3020   35.2710 C.3       9 GLL5        0.0000 
     68 CA         28.5160   -0.0430   35.8705 C.3       3 GLC5        0.0000 
     69 CA         29.9920   -1.0900   34.5150 C.3       9 GLL5        0.0000 
     70 CA         26.8160    0.3760   36.9670 C.3       6 GLP5        0.0000 
     71 CA         32.3910   -0.2585   34.9123 C.3       3 GLC5        0.0000 
     72 CA         30.4400    0.1660   35.0330 C.3       9 GLL5        0.0000 
     73 CA         29.6105    0.4413   37.8480 C.3       3 GLC5        0.0000 
     74 CA         28.0560    1.2440   39.0060 C.3       6 GLP5        0.0000 
     75 CA         32.5345   -1.1500   35.4877 C.3       3 GLC5        0.0000 
     76 CA         31.2600   -0.9510   37.0720 C.3       9 GLL5        0.0000 
     77 CA         29.4690    3.3850   30.9760 C.3       3 GLC5        0.0000 
     78 CA         28.8410    2.4820   32.5490 C.3       9 GLL5        0.0000 
     79 CA         29.4145    4.4045   31.7527 C.3       3 GLC5        0.0000 
     80 CA         28.0300    3.7220   32.9920 C.3       9 GLL5        0.0000 
     81 CA         26.8915   -2.2652   30.2050 C.3       3 GLC5        0.0000 
     82 CA         28.1380   -0.7430   30.6980 C.3       9 GLL5        0.0000 
     83 CA         27.4582    0.9313   29.5038 C.3       3 GLC5        0.0000 
     84 CA         26.5940    1.7050   28.0530 C.3       6 GLP5        0.0000 
     85 CA         28.9375   -4.3312   37.5917 C.3       3 GLC5        0.0000 
     86 CA         29.9640   -4.7430   35.5920 C.3       9 GLL5        0.0000 
     87 CA         32.4665    6.3454   32.5735 C.3       3 GLC5        0.0000 
     88 CA         32.1140    7.8830   33.5630 C.3       9 GLL5        0.0000 
     89 CA         33.4050    4.9260   31.4570 C.3       6 GLP5        0.0000 
     90 CA         27.8899    7.8265   29.9440 C.3       3 GLC5        0.0000 
     91 CA         26.3830    6.8510   29.5790 C.3       6 GLP5        0.0000 
@<TRIPOS>BOND
@<TRIPOS>SUBSTRUCTURE
     1 ALC1        7 GROUP        1 X    ALC  0     ROOT ALC X 1
     2 SEC2       10 GROUP        1 X    SEC  0     **** SEC X 2
     3 GLC5        1 GROUP        1 X    GLC  0     **** GLC X 6
     4 ALP1        9 GROUP        1 Y    ALP  0     ROOT ALP Y 8
     5 SEP2       12 GROUP        1 Y    SEP  0     **** SEP Y 9
     6 GLP5        3 GROUP        1 Y    GLP  0     **** GLP Y 13
     7 ALL1        8 GROUP        1 Z    ALL  0     ROOT ALL Z 15
     8 SEL2       11 GROUP        1 Z    SEL  0     **** SEL Z 16
     9 GLL5        2 GROUP        1 Z    GLL  0     **** GLL Z 20
@<TRIPOS>SET

