#    Name: 2wf0_ZY0_1_ligand
#    Modification time : Tue Mar 25 04:15:42 2014

@<TRIPOS>MOLECULE
2wf0_ZY0_1_ligand
   76    80     1     0     0
SMALL
NO_CHARGES


@<TRIPOS>ATOM
      1 C1         30.1720   -2.3020   35.2710 C.ar      1 ZY02000     0.0000 
      2 C2         29.9920   -1.0900   34.5150 C.ar      1 ZY02000     0.0000 
      3 C3         30.4400    0.1660   35.0330 C.ar      1 ZY02000     0.0000 
      4 C4         31.0700    0.2280   36.3080 C.ar      1 ZY02000     0.0000 
      5 C5         31.2600   -0.9510   37.0720 C.ar      1 ZY02000     0.0000 
      6 C6         30.8240   -2.2210   36.5710 C.ar      1 ZY02000     0.0000 
      7 C7         30.2780    1.4090   34.2740 C.2       1 ZY02000     0.0000 
      8 N8         29.0530    1.5770   33.6940 N.am      1 ZY02000     0.0000 
      9 O9         31.1760    2.2470   34.1250 O.2       1 ZY02000     0.0000 
     10 C10        28.8410    2.4820   32.5490 C.3       1 ZY02000     0.0000 
     11 C11        28.1350    1.6880   31.4250 C.3       1 ZY02000     0.0000 
     12 C12        28.0300    3.7220   32.9920 C.3       1 ZY02000     0.0000 
     13 O13        27.8120    4.5820   31.9050 O.3       1 ZY02000     0.0000 
     14 C14        28.8790    0.4280   30.9970 C.ar      1 ZY02000     0.0000 
     15 C15        28.7280    4.5260   34.0890 C.3       1 ZY02000     0.0000 
     16 N16        27.9440    5.7060   34.4820 N.4       1 ZY02000     0.0000 
     17 C17        28.7060    6.8530   35.0270 C.3       1 ZY02000     0.0000 
     18 C18        28.1380   -0.7430   30.6980 C.ar      1 ZY02000     0.0000 
     19 C19        28.7920   -1.9380   30.3080 C.ar      1 ZY02000     0.0000 
     20 C20        30.2040   -1.9810   30.2210 C.ar      1 ZY02000     0.0000 
     21 C21        30.9610   -0.8170   30.5160 C.ar      1 ZY02000     0.0000 
     22 C22        30.3050    0.3740   30.9010 C.ar      1 ZY02000     0.0000 
     23 C9         29.7360   -3.6010   34.7830 C.ar      1 ZY02000     0.0000 
     24 C24        33.5660   -0.6280   39.9310 C.2       1 ZY02000     0.0000 
     25 C25        32.2300   -0.9430   40.6150 C.3       1 ZY02000     0.0000 
     26 C26        31.2260   -1.0820   39.4830 C.2       1 ZY02000     0.0000 
     27 N27        31.8740   -0.8910   38.2970 N.am      1 ZY02000     0.0000 
     28 C28        33.2980   -0.6110   38.4300 C.2       1 ZY02000     0.0000 
     29 O1         30.0350   -1.3360   39.6720 O.2       1 ZY02000     0.0000 
     30 C30        30.6020   -4.5980   36.8410 C.ar      1 ZY02000     0.0000 
     31 N1         31.0080   -3.3920   37.3060 N.ar      1 ZY02000     0.0000 
     32 C32        27.5200   -3.8140   33.5570 C.3       1 ZY02000     0.0000 
     33 C33        29.0470   -3.8060   33.4480 C.3       1 ZY02000     0.0000 
     34 C34        30.3620    8.4640   31.9240 C.ar      1 ZY02000     0.0000 
     35 C35        31.7360    8.4260   32.3130 C.ar      1 ZY02000     0.0000 
     36 C36        32.1140    7.8830   33.5630 C.ar      1 ZY02000     0.0000 
     37 C37        31.1310    7.3750   34.4420 C.ar      1 ZY02000     0.0000 
     38 C38        29.7560    7.4020   34.0800 C.ar      1 ZY02000     0.0000 
     39 C39        29.3850    7.9470   32.8270 C.ar      1 ZY02000     0.0000 
     40 C8         29.9070    9.0390   30.5870 C.3       1 ZY02000     0.0000 
     41 F3         29.0560   10.0150   30.8270 F         1 ZY02000     0.0000 
     42 F1         29.3120    8.0770   29.9110 F         1 ZY02000     0.0000 
     43 F2         30.9340    9.4850   29.8850 F         1 ZY02000     0.0000 
     44 C13        29.9640   -4.7430   35.5920 C.ar      1 ZY02000     0.0000 
     45 H          29.5410   -1.1314   33.6032 H         1 ZY02000     0.0000 
     46 H          31.3860    1.1280   36.6722 H         1 ZY02000     0.0000 
     47 H          28.2157    1.0723   34.0364 H         1 ZY02000     0.0000 
     48 H          29.7975    2.8164   32.1701 H         1 ZY02000     0.0000 
     49 H          28.0119    2.3509   30.5552 H         1 ZY02000     0.0000 
     50 H          27.1270    1.4150   31.7722 H         1 ZY02000     0.0000 
     51 H          27.0823    3.3677   33.3996 H         1 ZY02000     0.0000 
     52 H          29.7179    4.8267   33.7176 H         1 ZY02000     0.0000 
     53 H          28.8873    3.8638   34.9517 H         1 ZY02000     0.0000 
     54 H          29.2065    6.5573   35.9713 H         1 ZY02000     0.0000 
     55 H          28.0102    7.6746   35.2926 H         1 ZY02000     0.0000 
     56 H          27.1146   -0.7247   30.7650 H         1 ZY02000     0.0000 
     57 H          28.2423   -2.7703   30.0892 H         1 ZY02000     0.0000 
     58 H          30.6752   -2.8398   29.9489 H         1 ZY02000     0.0000 
     59 H          31.9782   -0.8431   30.4493 H         1 ZY02000     0.0000 
     60 H          30.8512    1.2133   31.1156 H         1 ZY02000     0.0000 
     61 H          34.3394   -0.4847   40.3336 H         1 ZY02000     0.0000 
     62 H          31.9555   -0.1310   41.2488 H         1 ZY02000     0.0000 
     63 H          32.3114   -1.8638   41.1459 H         1 ZY02000     0.0000 
     64 H          33.9072   -0.4589   37.8028 H         1 ZY02000     0.0000 
     65 H          30.7559   -5.4628   37.4087 H         1 ZY02000     0.0000 
     66 H          29.3754   -4.7598   33.0114 H         1 ZY02000     0.0000 
     67 H          29.3480   -3.0065   32.7563 H         1 ZY02000     0.0000 
     68 H          32.4467    8.7956   31.6787 H         1 ZY02000     0.0000 
     69 H          33.0995    7.8582   33.8305 H         1 ZY02000     0.0000 
     70 H          31.4065    6.9842   35.3461 H         1 ZY02000     0.0000 
     71 H          28.3937    7.9731   32.5578 H         1 ZY02000     0.0000 
     72 H          29.6670   -5.6620   35.2693 H         1 ZY02000     0.0000 
     73 H          27.1943   -4.5455   34.1560 H         1 ZY02000     0.0000 
     74 H          27.1696   -2.9538   33.9275 H         1 ZY02000     0.0000 
     75 H          27.0848   -3.9486   32.6668 H         1 ZY02000     0.0000 
     76 H          26.9910    4.2289   31.4564 H         1 ZY02000     0.0000 
@<TRIPOS>BOND
     1    2    1 ar   
     2    6    1 ar   
     3   23    1 ar   
     4    3    2 ar   
     5   45    2 1    
     6    4    3 ar   
     7    7    3 1    
     8    5    4 ar   
     9   46    4 1    
    10    6    5 ar   
    11   27    5 1    
    12   31    6 ar   
    13    8    7 am   
    14    9    7 2    
    15   10    8 1    
    16   47    8 1    
    17   11   10 1    
    18   12   10 1    
    19   48   10 1    
    20   14   11 1    
    21   49   11 1    
    22   50   11 1    
    23   13   12 1    
    24   15   12 1    
    25   51   12 1    
    26   76   13 1    
    27   18   14 ar   
    28   22   14 ar   
    29   16   15 1    
    30   52   15 1    
    31   53   15 1    
    32   17   16 1    
    33   38   17 1    
    34   54   17 1    
    35   55   17 1    
    36   19   18 ar   
    37   56   18 1    
    38   20   19 ar   
    39   57   19 1    
    40   21   20 ar   
    41   58   20 1    
    42   22   21 ar   
    43   59   21 1    
    44   60   22 1    
    45   33   23 1    
    46   44   23 ar   
    47   25   24 1    
    48   28   24 2    
    49   61   24 1    
    50   26   25 1    
    51   62   25 1    
    52   63   25 1    
    53   27   26 am   
    54   29   26 2    
    55   28   27 1    
    56   64   28 1    
    57   31   30 ar   
    58   44   30 ar   
    59   65   30 1    
    60   33   32 1    
    61   73   32 1    
    62   74   32 1    
    63   75   32 1    
    64   66   33 1    
    65   67   33 1    
    66   35   34 ar   
    67   39   34 ar   
    68   40   34 1    
    69   36   35 ar   
    70   68   35 1    
    71   37   36 ar   
    72   69   36 1    
    73   38   37 ar   
    74   70   37 1    
    75   39   38 ar   
    76   71   39 1    
    77   41   40 1    
    78   42   40 1    
    79   43   40 1    
    80   72   44 1    
@<TRIPOS>SUBSTRUCTURE
     1 ZY02000     1 GROUP   
@<TRIPOS>SET

