#    Name: 2vkd_UPG_1_INTS_M
#    Modification time : Tue Mar 25 02:02:30 2014

@<TRIPOS>MOLECULE
2vkd_UPG_1_INTS_M
   86     0    12     0     0
SMALL
NO_CHARGES


@<TRIPOS>ATOM
      1 O          23.6560   29.7330   37.4455 O.2       1 ALC1        0.0000 
      2 O          22.7280   29.0220   36.6000 O.2       9 ALL1        0.0000 
      3 O          24.5840   30.4440   38.2910 O.2       5 ALP1        0.0000 
      4 CA         20.1575   28.5665   36.4420 C.3       4 GLC5        0.0000 
      5 CA         21.0720   29.0710   34.9010 C.3      12 GLL5        0.0000 
      6 CA         19.2430   28.0620   37.9830 C.3       8 GLP5        0.0000 
      7 CA         19.1150   29.2455   33.8920 C.3       4 GLC5        0.0000 
      8 CA         17.1580   29.4200   32.8830 C.3       8 GLP5        0.0000 
      9 CA         20.6380   27.3030   36.1300 C.3       4 GLC5        0.0000 
     10 CA         21.5090   27.8330   34.4330 C.3      12 GLL5        0.0000 
     11 CA         19.7670   26.7730   37.8270 C.3       8 GLP5        0.0000 
     12 N          24.7215   27.6490   38.0650 N.am      2 SEC2        0.0000 
     13 N          24.1090   27.2620   36.7240 N.am     10 SEL2        0.0000 
     14 N          25.3340   28.0360   39.4060 N.am      6 SEP2        0.0000 
     15 N          21.4380   32.0615   37.2320 N.am      2 SEC2        0.0000 
     16 N          21.2980   30.7810   36.4070 N.am     10 SEL2        0.0000 
     17 N          21.5780   33.3420   38.0570 N.am      6 SEP2        0.0000 
     18 CA         23.6745   26.8370   32.6635 C.3       4 GLC5        0.0000 
     19 CA         22.9760   25.8950   34.5020 C.3      12 GLL5        0.0000 
     20 CA         24.3730   27.7790   30.8250 C.3       8 GLP5        0.0000 
     21 CA         21.7015   25.5110   37.0230 C.3       4 GLC5        0.0000 
     22 CA         22.6220   24.7160   35.3920 C.3      12 GLL5        0.0000 
     23 CA         20.7810   26.3060   38.6540 C.3       8 GLP5        0.0000 
     24 N          25.1135   24.0170   34.8395 N.am      2 SEC2        0.0000 
     25 N          23.8350   23.9760   35.5780 N.am     10 SEL2        0.0000 
     26 N          26.3920   24.0580   34.1010 N.am      6 SEP2        0.0000 
     27 O          23.9115   23.8880   36.8905 O.2       1 ALC1        0.0000 
     28 O          23.8350   23.9760   35.5780 O.2       9 ALL1        0.0000 
     29 O          23.9880   23.8000   38.2030 O.2       5 ALP1        0.0000 
     30 N          20.8425   21.3340   35.7975 N.am      2 SEC2        0.0000 
     31 N          21.6760   22.4890   34.8230 N.am     10 SEL2        0.0000 
     32 N          20.0090   20.1790   36.7720 N.am      6 SEP2        0.0000 
     33 O          23.1750   21.6540   34.5200 O.2       1 ALC1        0.0000 
     34 O          21.6760   22.4890   34.8230 O.2       9 ALL1        0.0000 
     35 O          24.6740   20.8190   34.2170 O.2       5 ALP1        0.0000 
     36 O          22.0410   21.6170   33.8535 O.2       1 ALC1        0.0000 
     37 O          22.4060   20.7450   32.8840 O.2       5 ALP1        0.0000 
     38 Zn         17.4850   22.6820   31.2420 Zn        3 ZIC7        0.0000 
     39 Zn         18.0010   23.3420   31.6230 Zn       11 ZIL7        0.0000 
     40 Zn         16.9690   22.0220   30.8610 Zn        7 ZIP7        0.0000 
     41 Zn         17.3615   22.5150   29.9920 Zn        3 ZIC7        0.0000 
     42 Zn         17.7540   23.0080   29.1230 Zn       11 ZIL7        0.0000 
     43 N          16.9230   26.3525   27.8375 N.am      2 SEC2        0.0000 
     44 N          17.4450   25.1440   27.8910 N.am     10 SEL2        0.0000 
     45 N          16.4010   27.5610   27.7840 N.am      6 SEP2        0.0000 
     46 N          18.6915   25.9735   27.3810 N.am      2 SEC2        0.0000 
     47 N          19.9380   26.8030   26.8710 N.am      6 SEP2        0.0000 
     48 N          19.8900   25.4895   27.5075 N.am      2 SEC2        0.0000 
     49 N          19.8420   24.1760   28.1440 N.am     10 SEL2        0.0000 
     50 CA         20.1015   25.4040   27.5710 C.3       4 GLC5        0.0000 
     51 CA         20.2330   23.2500   27.1250 C.3      12 GLL5        0.0000 
     52 CA         19.9700   27.5580   28.0170 C.3       8 GLP5        0.0000 
     53 CA         20.3025   20.1400   26.4435 C.3       4 GLC5        0.0000 
     54 CA         20.6700   21.9200   27.7250 C.3      12 GLL5        0.0000 
     55 CA         19.9350   18.3600   25.1620 C.3       8 GLP5        0.0000 
     56 CA         20.4605   19.9235   28.7030 C.3       4 GLC5        0.0000 
     57 CA         20.2510   17.9270   29.6810 C.3       8 GLP5        0.0000 
     58 CA         21.5110   25.7690   26.4815 C.3       4 GLC5        0.0000 
     59 CA         22.5880   23.9880   27.1300 C.3      12 GLL5        0.0000 
     60 CA         20.4340   27.5500   25.8330 C.3       8 GLP5        0.0000 
     61 CA         25.2730   23.2475   25.0615 C.3       4 GLC5        0.0000 
     62 CA         23.7180   23.9440   26.1100 C.3      12 GLL5        0.0000 
     63 CA         26.8280   22.5510   24.0130 C.3       8 GLP5        0.0000 
     64 CA         24.0140   22.6335   24.6535 C.3       4 GLC5        0.0000 
     65 CA         24.3100   21.3230   23.1970 C.3       8 GLP5        0.0000 
     66 N          23.6420   20.7335   29.7510 N.am      2 SEC2        0.0000 
     67 N          22.3020   20.8880   29.1910 N.am     10 SEL2        0.0000 
     68 N          24.9820   20.5790   30.3110 N.am      6 SEP2        0.0000 
     69 O          21.4980   20.7320   30.3415 O.2       1 ALC1        0.0000 
     70 O          22.3020   20.8880   29.1910 O.2       9 ALL1        0.0000 
     71 O          20.6940   20.5760   31.4920 O.2       5 ALP1        0.0000 
     72 N          24.4330   23.0350   30.3380 N.am      2 SEC2        0.0000 
     73 N          23.6790   23.4870   29.2490 N.am     10 SEL2        0.0000 
     74 N          25.1870   22.5830   31.4270 N.am      6 SEP2        0.0000 
     75 O          24.9780   23.3615   28.7155 O.2       1 ALC1        0.0000 
     76 O          23.6790   23.4870   29.2490 O.2       9 ALL1        0.0000 
     77 O          26.2770   23.2360   28.1820 O.2       5 ALP1        0.0000 
     78 N          20.6460   25.2935   26.6400 N.am      2 SEC2        0.0000 
     79 N          21.3540   23.7840   26.4090 N.am     10 SEL2        0.0000 
     80 O          25.4525   25.1755   26.5310 O.2       1 ALC1        0.0000 
     81 O          24.3030   25.2330   25.9660 O.2       9 ALL1        0.0000 
     82 O          26.6020   25.1180   27.0960 O.2       5 ALP1        0.0000 
     83 CA         22.8798   29.6290   34.4995 C.3       4 GLC5        0.0000 
     84 CA         24.4690   30.8060   34.3320 C.3       8 GLP5        0.0000 
     85 CA         24.6975   25.2933   34.1885 C.3       4 GLC5        0.0000 
     86 CA         26.5960   25.2810   33.4300 C.3       8 GLP5        0.0000 
@<TRIPOS>BOND
@<TRIPOS>SUBSTRUCTURE
     1 ALC1        1 GROUP        1 X    ALC  0     ROOT ALC X 1
     2 SEC2       12 GROUP        1 X    SEC  0     **** SEC X 2
     3 ZIC7       38 GROUP        1 X    ZIC  0     **** ZIC X 5
     4 GLC5        4 GROUP        1 X    GLC  0     **** GLC X 6
     5 ALP1        3 GROUP        1 Y    ALP  0     ROOT ALP Y 8
     6 SEP2       14 GROUP        1 Y    SEP  0     **** SEP Y 9
     7 ZIP7       40 GROUP        1 Y    ZIP  0     **** ZIP Y 12
     8 GLP5        6 GROUP        1 Y    GLP  0     **** GLP Y 13
     9 ALL1        2 GROUP        1 Z    ALL  0     ROOT ALL Z 15
    10 SEL2       13 GROUP        1 Z    SEL  0     **** SEL Z 16
    11 ZIL7       39 GROUP        1 Z    ZIL  0     **** ZIL Z 19
    12 GLL5        5 GROUP        1 Z    GLL  0     **** GLL Z 20
@<TRIPOS>SET

