#    Name: 2vkd_UPG_1_ligand
#    Modification time : Tue Mar 25 02:02:30 2014

@<TRIPOS>MOLECULE
2vkd_UPG_1_ligand
   58    60     1     0     0
SMALL
NO_CHARGES


@<TRIPOS>ATOM
      1 N1         22.5270   27.1980   35.0310 N.am      1 UPG1544     0.0000 
      2 C2         23.1540   27.8230   36.1460 C.2       1 UPG1544     0.0000 
      3 N3         22.7280   29.0220   36.6000 N.am      1 UPG1544     0.0000 
      4 C4         21.7000   29.6570   36.0010 C.2       1 UPG1544     0.0000 
      5 C5         21.0720   29.0710   34.9010 C.2       1 UPG1544     0.0000 
      6 C6         21.5090   27.8330   34.4330 C.2       1 UPG1544     0.0000 
      7 O2         24.1090   27.2620   36.7240 O.2       1 UPG1544     0.0000 
      8 O4         21.2980   30.7810   36.4070 O.2       1 UPG1544     0.0000 
      9 C1C        22.9760   25.8950   34.5020 C.3       1 UPG1544     0.0000 
     10 C2C        22.6220   24.7160   35.3920 C.3       1 UPG1544     0.0000 
     11 O2C        23.8350   23.9760   35.5780 O.3       1 UPG1544     0.0000 
     12 C3C        21.6480   23.9000   34.5640 C.3       1 UPG1544     0.0000 
     13 C4C        22.0740   24.2220   33.1380 C.3       1 UPG1544     0.0000 
     14 O4C        22.4150   25.6080   33.2050 O.3       1 UPG1544     0.0000 
     15 O3C        21.6760   22.4890   34.8230 O.3       1 UPG1544     0.0000 
     16 C5C        20.9740   23.9530   32.1240 C.3       1 UPG1544     0.0000 
     17 O5C        19.9670   24.9600   32.2210 O.3       1 UPG1544     0.0000 
     18 PA         18.5140   24.7590   31.5620 P.3       1 UPG1544     0.0000 
     19 O1A        18.0010   23.3420   31.6230 O.co2     1 UPG1544     0.0000 
     20 O2A        17.5630   25.7390   32.2060 O.co2     1 UPG1544     0.0000 
     21 O3A        18.7110   25.2490   30.0480 O.3       1 UPG1544     0.0000 
     22 PB         18.3670   24.3360   28.7710 P.3       1 UPG1544     0.0000 
     23 O1B        17.7540   23.0080   29.1230 O.co2     1 UPG1544     0.0000 
     24 O2B        17.4450   25.1440   27.8910 O.co2     1 UPG1544     0.0000 
     25 O3B        19.8420   24.1760   28.1440 O.3       1 UPG1544     0.0000 
     26 C1'        20.2330   23.2500   27.1250 C.3       1 UPG1544     0.0000 
     27 C2'        20.6700   21.9200   27.7250 C.3       1 UPG1544     0.0000 
     28 C3'        21.7670   22.1430   28.7610 C.3       1 UPG1544     0.0000 
     29 C4'        22.9340   22.9180   28.1720 C.3       1 UPG1544     0.0000 
     30 C5'        22.5880   23.9880   27.1300 C.3       1 UPG1544     0.0000 
     31 C6'        23.7180   23.9440   26.1100 C.3       1 UPG1544     0.0000 
     32 O2'        19.5400   21.2900   28.3180 O.3       1 UPG1544     0.0000 
     33 O3'        22.3020   20.8880   29.1910 O.3       1 UPG1544     0.0000 
     34 O4'        23.6790   23.4870   29.2490 O.3       1 UPG1544     0.0000 
     35 O5'        21.3540   23.7840   26.4090 O.3       1 UPG1544     0.0000 
     36 O6'        24.3030   25.2330   25.9660 O.3       1 UPG1544     0.0000 
     37 H          23.2004   29.4609   37.4235 H         1 UPG1544     0.0000 
     38 H          20.2920   29.5502   34.4393 H         1 UPG1544     0.0000 
     39 H          21.0254   27.4177   33.6107 H         1 UPG1544     0.0000 
     40 H          24.0756   25.8982   34.4110 H         1 UPG1544     0.0000 
     41 H          22.1823   25.0485   36.2597 H         1 UPG1544     0.0000 
     42 H          20.6658   24.3325   34.6980 H         1 UPG1544     0.0000 
     43 H          22.9394   23.6310   32.9130 H         1 UPG1544     0.0000 
     44 H          20.5675   22.9532   32.3240 H         1 UPG1544     0.0000 
     45 H          21.4317   23.9328   31.1266 H         1 UPG1544     0.0000 
     46 H          19.4207   23.0522   26.4451 H         1 UPG1544     0.0000 
     47 H          21.0783   21.3148   26.9255 H         1 UPG1544     0.0000 
     48 H          21.3720   22.6967   29.5854 H         1 UPG1544     0.0000 
     49 H          23.5898   22.1696   27.6623 H         1 UPG1544     0.0000 
     50 H          22.6297   24.9533   27.5997 H         1 UPG1544     0.0000 
     51 H          23.2990   23.5783   25.1615 H         1 UPG1544     0.0000 
     52 H          24.4508   23.1999   26.4539 H         1 UPG1544     0.0000 
     53 H          23.6915   23.4507   36.4167 H         1 UPG1544     0.0000 
     54 H          22.3896   22.1297   34.2215 H         1 UPG1544     0.0000 
     55 H          18.7717   21.8994   28.1221 H         1 UPG1544     0.0000 
     56 H          21.7826   20.6533   30.0127 H         1 UPG1544     0.0000 
     57 H          24.6312   23.4667   28.9441 H         1 UPG1544     0.0000 
     58 H          25.2887   25.0675   25.9332 H         1 UPG1544     0.0000 
@<TRIPOS>BOND
     1    2    1 1    
     2    6    1 1    
     3    9    1 1    
     4    3    2 1    
     5    7    2 2    
     6    4    3 1    
     7   37    3 1    
     8    5    4 1    
     9    8    4 2    
    10    6    5 2    
    11   38    5 1    
    12   39    6 1    
    13   10    9 1    
    14   14    9 1    
    15   40    9 1    
    16   11   10 1    
    17   12   10 1    
    18   41   10 1    
    19   53   11 1    
    20   13   12 1    
    21   15   12 1    
    22   42   12 1    
    23   14   13 1    
    24   16   13 1    
    25   43   13 1    
    26   54   15 1    
    27   17   16 1    
    28   44   16 1    
    29   45   16 1    
    30   18   17 1    
    31   19   18 ar   
    32   20   18 ar   
    33   21   18 1    
    34   22   21 1    
    35   23   22 ar   
    36   24   22 ar   
    37   25   22 1    
    38   26   25 1    
    39   27   26 1    
    40   35   26 1    
    41   46   26 1    
    42   28   27 1    
    43   32   27 1    
    44   47   27 1    
    45   29   28 1    
    46   33   28 1    
    47   48   28 1    
    48   30   29 1    
    49   34   29 1    
    50   49   29 1    
    51   31   30 1    
    52   35   30 1    
    53   50   30 1    
    54   36   31 1    
    55   51   31 1    
    56   52   31 1    
    57   55   32 1    
    58   56   33 1    
    59   57   34 1    
    60   58   36 1    
@<TRIPOS>SUBSTRUCTURE
     1 UPG1544     1 GROUP   
@<TRIPOS>SET

