#    Name: 1dqa_NAP_6_INTS_M
#    Modification time : Mon Mar 24 22:19:43 2014

@<TRIPOS>MOLECULE
1dqa_NAP_6_INTS_M
  104     0    12     0     0
SMALL
NO_CHARGES


@<TRIPOS>ATOM
      1 NZ         11.9120  -28.0850   24.2410 N.4       3 LYC4        0.0000 
      2 NZ         11.8350  -27.7940   25.6740 N.4      11 LYL4        0.0000 
      3 NZ         12.8990  -29.2460   22.3760 N.4       7 LYP4        0.0000 
      4 N          12.6000  -26.6245   26.2225 N.am      2 SEC2        0.0000 
      5 N          11.8350  -27.7940   25.6740 N.am     10 SEL2        0.0000 
      6 N          13.3650  -25.4550   26.7710 N.am      6 SEP2        0.0000 
      7 N          11.9120  -28.0850   24.2410 N.am      2 SEC2        0.0000 
      8 N          11.9890  -28.3760   22.8080 N.am      6 SEP2        0.0000 
      9 CA          7.3380  -29.7440   25.8250 C.3       4 GLC5        0.0000 
     10 CA          9.1760  -30.6260   25.1950 C.3      12 GLL5        0.0000 
     11 CA          5.5000  -28.8620   26.4550 C.3       8 GLP5        0.0000 
     12 CA          7.9640  -29.5240   24.2495 C.3       4 GLC5        0.0000 
     13 CA          6.7520  -28.4220   23.3040 C.3       8 GLP5        0.0000 
     14 CA         11.8285  -30.7525   24.6000 C.3       4 GLC5        0.0000 
     15 CA          9.8650  -31.8350   24.5610 C.3      12 GLL5        0.0000 
     16 CA         13.7920  -29.6700   24.6390 C.3       8 GLP5        0.0000 
     17 CA          9.0750  -29.7035   22.8640 C.3       4 GLC5        0.0000 
     18 CA          9.8830  -31.7750   23.0350 C.3      12 GLL5        0.0000 
     19 CA          8.2670  -27.6320   22.6930 C.3       8 GLP5        0.0000 
     20 CA          6.8205  -32.9930   21.6900 C.3       4 GLC5        0.0000 
     21 CA          8.6240  -32.5620   22.6670 C.3      12 GLL5        0.0000 
     22 CA          5.0170  -33.4240   20.7130 C.3       8 GLP5        0.0000 
     23 N           8.9125  -34.4885   21.1735 N.am      2 SEC2        0.0000 
     24 N           8.6300  -33.0730   21.3200 N.am     10 SEL2        0.0000 
     25 N           9.1950  -35.9040   21.0270 N.am      6 SEP2        0.0000 
     26 CA          2.5300  -33.2620   26.3315 C.3       4 GLC5        0.0000 
     27 CA          3.7400  -34.0340   24.7360 C.3      12 GLL5        0.0000 
     28 CA          1.3200  -32.4900   27.9270 C.3       8 GLP5        0.0000 
     29 CA          4.2955  -34.1155   26.8410 C.3       4 GLC5        0.0000 
     30 CA          4.8510  -34.1970   28.9460 C.3       8 GLP5        0.0000 
     31 O           1.3940  -34.5290   25.9175 O.2       1 ALC1        0.0000 
     32 O           2.6790  -34.8140   24.9640 O.2       9 ALL1        0.0000 
     33 O           0.1090  -34.2440   26.8710 O.2       5 ALP1        0.0000 
     34 N           2.4145  -31.9620   25.3195 N.am      2 SEC2        0.0000 
     35 N           3.4920  -32.7190   24.7940 N.am     10 SEL2        0.0000 
     36 N           1.3370  -31.2050   25.8450 N.am      6 SEP2        0.0000 
     37 CA          3.9915  -31.6415   22.5175 C.3       4 GLC5        0.0000 
     38 CA          4.4620  -31.8630   24.5810 C.3      12 GLL5        0.0000 
     39 CA          3.5210  -31.4200   20.4540 C.3       8 GLP5        0.0000 
     40 CA          2.6300  -31.2505   24.0680 C.3       4 GLC5        0.0000 
     41 CA          0.7980  -30.6380   23.5550 C.3       8 GLP5        0.0000 
     42 CA          2.8785  -31.4800   25.9365 C.3       4 GLC5        0.0000 
     43 CA          1.2950  -31.0970   27.2920 C.3       8 GLP5        0.0000 
     44 CA          4.9810  -30.3625   25.5180 C.3       4 GLC5        0.0000 
     45 CA          5.6070  -30.1425   23.9425 C.3       4 GLC5        0.0000 
     46 N           6.7205  -25.8230   27.1925 N.am      2 SEC2        0.0000 
     47 N           7.7930  -26.4740   27.5950 N.am     10 SEL2        0.0000 
     48 N           5.6480  -25.1720   26.7900 N.am      6 SEP2        0.0000 
     49 N           9.4825  -25.5950   24.0875 N.am      2 SEC2        0.0000 
     50 N           9.1530  -26.1310   25.4230 N.am     10 SEL2        0.0000 
     51 N           9.8120  -25.0590   22.7520 N.am      6 SEP2        0.0000 
     52 N          13.8485  -25.5585   31.3810 N.am      2 SEC2        0.0000 
     53 N          12.5060  -25.1790   31.9870 N.am     10 SEL2        0.0000 
     54 N          15.1910  -25.9380   30.7750 N.am      6 SEP2        0.0000 
     55 CA          9.9455  -22.4145   32.9445 C.3       4 GLC5        0.0000 
     56 CA         11.2860  -23.1170   31.3310 C.3      12 GLL5        0.0000 
     57 CA          8.6050  -21.7120   34.5580 C.3       8 GLP5        0.0000 
     58 O          11.1420  -21.6230   32.9610 O.2       1 ALC1        0.0000 
     59 O          11.8930  -22.6050   32.5340 O.2       9 ALL1        0.0000 
     60 O          10.3910  -20.6410   33.3880 O.2       5 ALP1        0.0000 
     61 O          15.7230  -20.0225   27.0625 O.2       1 ALC1        0.0000 
     62 O          14.2350  -19.8370   26.2580 O.2       9 ALL1        0.0000 
     63 O          17.2110  -20.2080   27.8670 O.2       5 ALP1        0.0000 
     64 CA          9.8625  -18.6890   27.4090 C.3       4 GLC5        0.0000 
     65 CA         11.3150  -19.0150   28.2440 C.3      12 GLL5        0.0000 
     66 CA          8.4100  -18.3630   26.5740 C.3       8 GLP5        0.0000 
     67 CA          9.3145  -19.6440   28.3775 C.3       4 GLC5        0.0000 
     68 CA         10.6420  -19.3110   29.4530 C.3      12 GLL5        0.0000 
     69 CA          7.9870  -19.9770   27.3020 C.3       8 GLP5        0.0000 
     70 CA          9.9305  -20.8345   28.4635 C.3       4 GLC5        0.0000 
     71 CA         10.9030  -20.5620   30.0500 C.3      12 GLL5        0.0000 
     72 CA          8.9580  -21.1070   26.8770 C.3       8 GLP5        0.0000 
     73 N           7.6815  -30.3225   19.2750 N.am      2 SEC2        0.0000 
     74 N           8.5430  -30.7470   20.0940 N.am     10 SEL2        0.0000 
     75 N           6.8200  -29.8980   18.4560 N.am      6 SEP2        0.0000 
     76 NZ          8.4060  -34.3725   18.8375 N.4       3 LYC4        0.0000 
     77 NZ          8.5790  -32.9920   18.7390 N.4      11 LYL4        0.0000 
     78 NZ          8.6630  -36.4890   19.9560 N.4       7 LYP4        0.0000 
     79 N           7.6180  -32.6265   17.7845 N.am      2 SEC2        0.0000 
     80 N           8.5790  -32.9920   18.7390 N.am     10 SEL2        0.0000 
     81 N           6.6570  -32.2610   16.8300 N.am      6 SEP2        0.0000 
     82 N           8.4060  -34.3725   18.8375 N.am      2 SEC2        0.0000 
     83 N           8.2330  -35.7530   18.9360 N.am      6 SEP2        0.0000 
     84 CA          6.3398  -33.7370   26.2223 C.3       4 GLC5        0.0000 
     85 CA          6.0960  -33.5300   24.2270 C.3      12 GLL5        0.0000 
     86 CA          7.0970  -33.4490   28.1080 C.3       8 GLP5        0.0000 
     87 CA          3.6753  -35.8125   25.8520 C.3       4 GLC5        0.0000 
     88 CA          5.0690  -34.5200   24.4460 C.3      12 GLL5        0.0000 
     89 CA          2.9460  -37.3480   27.1130 C.3       8 GLP5        0.0000 
     90 CA          9.2453  -23.9593   29.8962 C.3       4 GLC5        0.0000 
     91 CA         10.1800  -25.6840   29.2420 C.3      12 GLL5        0.0000 
     92 CA          7.6950  -22.5810   30.2750 C.3       8 GLP5        0.0000 
     93 CA         11.2841  -26.6636   31.3844 C.3       4 GLC5        0.0000 
     94 CA         11.3690  -24.6510   31.3020 C.3      12 GLL5        0.0000 
     95 CA         11.4860  -28.3330   32.3590 C.3       8 GLP5        0.0000 
     96 CA         13.3827  -22.3210   31.6915 C.3       4 GLC5        0.0000 
     97 CA         15.1010  -21.6950   32.6800 C.3       8 GLP5        0.0000 
     98 CA          9.6901  -22.9558   30.4854 C.3       4 GLC5        0.0000 
     99 CA         12.0430  -22.7770   30.0750 C.3      12 GLL5        0.0000 
    100 CA         10.6283  -20.8287   27.4452 C.3       4 GLC5        0.0000 
    101 CA         12.3830  -21.1440   28.3540 C.3      12 GLL5        0.0000 
    102 CA          9.2338  -21.2587   30.0132 C.3       4 GLC5        0.0000 
    103 CA         10.4123  -18.6968   31.2638 C.3       4 GLC5        0.0000 
    104 CA         10.0520  -17.4570   32.7760 C.3       8 GLP5        0.0000 
@<TRIPOS>BOND
@<TRIPOS>SUBSTRUCTURE
     1 ALC1       31 GROUP        1 X    ALC  0     ROOT ALC X 1
     2 SEC2        4 GROUP        1 X    SEC  0     **** SEC X 2
     3 LYC4        1 GROUP        1 X    LYC  0     **** LYC X 4
     4 GLC5        9 GROUP        1 X    GLC  0     **** GLC X 6
     5 ALP1       33 GROUP        1 Y    ALP  0     ROOT ALP Y 8
     6 SEP2        6 GROUP        1 Y    SEP  0     **** SEP Y 9
     7 LYP4        3 GROUP        1 Y    LYP  0     **** LYP Y 11
     8 GLP5       11 GROUP        1 Y    GLP  0     **** GLP Y 13
     9 ALL1       32 GROUP        1 Z    ALL  0     ROOT ALL Z 15
    10 SEL2        5 GROUP        1 Z    SEL  0     **** SEL Z 16
    11 LYL4        2 GROUP        1 Z    LYL  0     **** LYL Z 18
    12 GLL5       10 GROUP        1 Z    GLL  0     **** GLL Z 20
@<TRIPOS>SET

