#    Name: 1dqa_NAP_6_ligand
#    Modification time : Mon Mar 24 22:19:43 2014

@<TRIPOS>MOLECULE
1dqa_NAP_6_ligand
   73    77     1     0     0
SMALL
NO_CHARGES


@<TRIPOS>ATOM
      1 PA         10.7450  -28.7710   26.2440 P.3       1 NAP3        0.0000 
      2 O1A        11.4120  -29.8750   27.1210 O.co2     1 NAP3        0.0000 
      3 O2A        11.8350  -27.7940   25.6740 O.co2     1 NAP3        0.0000 
      4 O5B         9.9910  -29.4700   25.0260 O.3       1 NAP3        0.0000 
      5 C5B         9.1760  -30.6260   25.1950 C.3       1 NAP3        0.0000 
      6 C4B         9.8650  -31.8350   24.5610 C.3       1 NAP3        0.0000 
      7 O4B         9.0900  -33.0010   24.9110 O.3       1 NAP3        0.0000 
      8 C3B         9.8830  -31.7750   23.0350 C.3       1 NAP3        0.0000 
      9 O3B        11.1050  -32.3740   22.5330 O.3       1 NAP3        0.0000 
     10 C2B         8.6240  -32.5620   22.6670 C.3       1 NAP3        0.0000 
     11 O2B         8.6300  -33.0730   21.3200 O.3       1 NAP3        0.0000 
     12 C1B         8.6250  -33.6490   23.7210 C.3       1 NAP3        0.0000 
     13 N9A         7.2840  -34.1980   23.9810 N.pl3     1 NAP3        0.0000 
     14 C8A         6.8560  -35.5160   24.0710 C.2       1 NAP3        0.0000 
     15 N7A         5.6020  -35.8580   24.3320 N.2       1 NAP3        0.0000 
     16 C5A         5.0690  -34.5200   24.4460 C.ar      1 NAP3        0.0000 
     17 C6A         3.7400  -34.0340   24.7360 C.ar      1 NAP3        0.0000 
     18 N6A         2.6790  -34.8140   24.9640 N.pl3     1 NAP3        0.0000 
     19 N1A         3.4920  -32.7190   24.7940 N.ar      1 NAP3        0.0000 
     20 C2A         4.4620  -31.8630   24.5810 C.ar      1 NAP3        0.0000 
     21 N3A         5.7240  -32.1070   24.3060 N.ar      1 NAP3        0.0000 
     22 C4A         6.0960  -33.5300   24.2270 C.ar      1 NAP3        0.0000 
     23 O3          9.6780  -28.0740   27.1680 O.3       1 NAP3        0.0000 
     24 PN          9.2210  -26.5810   26.9540 P.3       1 NAP3        0.0000 
     25 O1N         7.7930  -26.4740   27.5950 O.co2     1 NAP3        0.0000 
     26 O2N         9.1530  -26.1310   25.4230 O.co2     1 NAP3        0.0000 
     27 O5D        10.1830  -25.6370   27.7960 O.3       1 NAP3        0.0000 
     28 C5D        10.1800  -25.6840   29.2420 C.3       1 NAP3        0.0000 
     29 C4D        11.4110  -24.9910   29.7930 C.3       1 NAP3        0.0000 
     30 O4D        11.5700  -23.7390   29.1290 O.3       1 NAP3        0.0000 
     31 C3D        11.3690  -24.6510   31.3020 C.3       1 NAP3        0.0000 
     32 O3D        12.5060  -25.1790   31.9870 O.3       1 NAP3        0.0000 
     33 C2D        11.2860  -23.1170   31.3310 C.3       1 NAP3        0.0000 
     34 O2D        11.8930  -22.6050   32.5340 O.3       1 NAP3        0.0000 
     35 C1D        12.0430  -22.7770   30.0750 C.3       1 NAP3        0.0000 
     36 N1N        11.7640  -21.4350   29.4830 N.pl3     1 NAP3        0.0000 
     37 C2N        12.3830  -21.1440   28.3540 C.ar      1 NAP3        0.0000 
     38 C3N        12.2140  -19.9570   27.6730 C.ar      1 NAP3        0.0000 
     39 C7N        12.9310  -19.6500   26.3850 C.2       1 NAP3        0.0000 
     40 O7N        12.3920  -19.2400   25.3870 O.2       1 NAP3        0.0000 
     41 N7N        14.2350  -19.8370   26.2580 N.am      1 NAP3        0.0000 
     42 C4N        11.3150  -19.0150   28.2440 C.ar      1 NAP3        0.0000 
     43 C5N        10.6420  -19.3110   29.4530 C.ar      1 NAP3        0.0000 
     44 C6N        10.9030  -20.5620   30.0500 C.ar      1 NAP3        0.0000 
     45 P2B         9.1340  -32.2400   20.0440 P.3       1 NAP3        0.0000 
     46 O1X         8.5430  -30.7470   20.0940 O.co2     1 NAP3        0.0000 
     47 O2X        10.7240  -32.1880   20.0570 O.co2     1 NAP3        0.0000 
     48 O3X         8.5790  -32.9920   18.7390 O.co2     1 NAP3        0.0000 
     49 H           8.1980  -30.5105   24.7147 H         1 NAP3        0.0000 
     50 H           9.0071  -30.8560   26.2528 H         1 NAP3        0.0000 
     51 H          10.8561  -31.9174   24.9264 H         1 NAP3        0.0000 
     52 H           9.7510  -30.7675   22.7474 H         1 NAP3        0.0000 
     53 H           7.7821  -31.9191   22.8729 H         1 NAP3        0.0000 
     54 H           9.3061  -34.4138   23.4262 H         1 NAP3        0.0000 
     55 H           7.5901  -36.2690   23.9189 H         1 NAP3        0.0000 
     56 H           2.6923  -35.7136   24.5276 H         1 NAP3        0.0000 
     57 H           1.9670  -34.4280   25.5505 H         1 NAP3        0.0000 
     58 H           4.1814  -30.7888   24.6406 H         1 NAP3        0.0000 
     59 H          10.1776  -26.7200   29.6032 H         1 NAP3        0.0000 
     60 H           9.2923  -25.1857   29.6512 H         1 NAP3        0.0000 
     61 H          12.2830  -25.6072   29.6192 H         1 NAP3        0.0000 
     62 H          10.4328  -25.0319   31.6758 H         1 NAP3        0.0000 
     63 H          10.2716  -22.8545   31.2070 H         1 NAP3        0.0000 
     64 H          13.0862  -22.9148   30.2339 H         1 NAP3        0.0000 
     65 H          13.0573  -21.8514   27.9243 H         1 NAP3        0.0000 
     66 H          14.6257  -19.6193   25.3636 H         1 NAP3        0.0000 
     67 H          14.7114  -20.1791   27.0680 H         1 NAP3        0.0000 
     68 H          11.1562  -18.1207   27.7767 H         1 NAP3        0.0000 
     69 H          10.0059  -18.6567   29.8668 H         1 NAP3        0.0000 
     70 H          10.4139  -20.7904   30.9367 H         1 NAP3        0.0000 
     71 H          11.2919  -31.8986   21.6733 H         1 NAP3        0.0000 
     72 H          12.1513  -25.5066   32.8627 H         1 NAP3        0.0000 
     73 H          11.6328  -21.6399   32.5645 H         1 NAP3        0.0000 
@<TRIPOS>BOND
     1    2    1 ar   
     2    3    1 ar   
     3    4    1 1    
     4   23    1 1    
     5    5    4 1    
     6    6    5 1    
     7   49    5 1    
     8   50    5 1    
     9    7    6 1    
    10    8    6 1    
    11   51    6 1    
    12   12    7 1    
    13    9    8 1    
    14   10    8 1    
    15   52    8 1    
    16   71    9 1    
    17   11   10 1    
    18   12   10 1    
    19   53   10 1    
    20   45   11 1    
    21   13   12 1    
    22   54   12 1    
    23   14   13 1    
    24   22   13 1    
    25   15   14 2    
    26   55   14 1    
    27   16   15 1    
    28   17   16 ar   
    29   22   16 ar   
    30   18   17 1    
    31   19   17 ar   
    32   56   18 1    
    33   57   18 1    
    34   20   19 ar   
    35   21   20 ar   
    36   58   20 1    
    37   22   21 ar   
    38   24   23 1    
    39   25   24 ar   
    40   26   24 ar   
    41   27   24 1    
    42   28   27 1    
    43   29   28 1    
    44   59   28 1    
    45   60   28 1    
    46   30   29 1    
    47   31   29 1    
    48   61   29 1    
    49   35   30 1    
    50   32   31 1    
    51   33   31 1    
    52   62   31 1    
    53   72   32 1    
    54   34   33 1    
    55   35   33 1    
    56   63   33 1    
    57   73   34 1    
    58   36   35 1    
    59   64   35 1    
    60   37   36 ar   
    61   44   36 ar   
    62   38   37 ar   
    63   65   37 1    
    64   39   38 1    
    65   42   38 ar   
    66   40   39 2    
    67   41   39 am   
    68   66   41 1    
    69   67   41 1    
    70   43   42 ar   
    71   68   42 1    
    72   44   43 ar   
    73   69   43 1    
    74   70   44 1    
    75   46   45 ar   
    76   47   45 ar   
    77   48   45 ar   
@<TRIPOS>SUBSTRUCTURE
     1 NAP3        1 GROUP   
@<TRIPOS>SET

