#    Name: 4i7f_NVE_1_INTS_M
#    Modification time : Tue Mar 25 02:32:15 2014

@<TRIPOS>MOLECULE
4i7f_NVE_1_INTS_M
   92     0     6     0     0
SMALL
NO_CHARGES


@<TRIPOS>ATOM
      1 CA         11.2900   10.7940   14.9535 C.3       2 GLC5        0.0000 
      2 CA         12.5980   12.0990   15.1900 C.3       6 GLL5        0.0000 
      3 CA          9.9820    9.4890   14.7170 C.3       4 GLP5        0.0000 
      4 CA         14.0980   10.6210   15.5660 C.3       2 GLC5        0.0000 
      5 CA         15.5980    9.1430   15.9420 C.3       4 GLP5        0.0000 
      6 CA         12.9835   10.6910   14.0470 C.3       2 GLC5        0.0000 
      7 CA         13.3690    9.2830   12.9040 C.3       4 GLP5        0.0000 
      8 CA         13.7920   14.3005   17.4570 C.3       2 GLC5        0.0000 
      9 CA         12.5710   13.3150   16.1420 C.3       6 GLL5        0.0000 
     10 CA         15.0130   15.2860   18.7720 C.3       4 GLP5        0.0000 
     11 CA         10.3045   16.3150   16.7915 C.3       2 GLC5        0.0000 
     12 CA         11.1920   14.8250   17.6520 C.3       6 GLL5        0.0000 
     13 CA          9.4170   17.8050   15.9310 C.3       4 GLP5        0.0000 
     14 CA         13.1025   15.0555   18.2120 C.3       2 GLC5        0.0000 
     15 CA         10.7225   11.7605   20.8100 C.3       2 GLC5        0.0000 
     16 CA          9.7630   13.1390   20.7370 C.3       6 GLL5        0.0000 
     17 CA         11.6820   10.3820   20.8830 C.3       4 GLP5        0.0000 
     18 CA          9.3460   14.5320   22.1990 C.3       2 GLC5        0.0000 
     19 CA          8.9290   15.9250   23.6610 C.3       4 GLP5        0.0000 
     20 CA          8.0105   13.4855   20.7385 C.3       2 GLC5        0.0000 
     21 CA          6.2580   13.8320   20.7400 C.3       4 GLP5        0.0000 
     22 CA          9.4525   12.4835   12.4675 C.3       2 GLC5        0.0000 
     23 CA          8.5450   13.2210   14.1460 C.3       6 GLL5        0.0000 
     24 CA         10.3600   11.7460   10.7890 C.3       4 GLP5        0.0000 
     25 CA         12.4240   18.6035   16.9595 C.3       2 GLC5        0.0000 
     26 CA         11.8800   17.1010   18.2630 C.3       6 GLL5        0.0000 
     27 CA         12.9680   20.1060   15.6560 C.3       4 GLP5        0.0000 
     28 CA          8.2225    3.5265   11.6670 C.3       2 GLC5        0.0000 
     29 CA          6.2420    2.5690   11.6860 C.3       6 GLL5        0.0000 
     30 CA         10.2030    4.4840   11.6480 C.3       4 GLP5        0.0000 
     31 CA          7.4715    0.9680   11.2860 C.3       2 GLC5        0.0000 
     32 CA          8.7010   -0.6330   10.8860 C.3       4 GLP5        0.0000 
     33 CA          7.7840    4.6005   12.4525 C.3       2 GLC5        0.0000 
     34 CA          6.0890    3.3960   12.9980 C.3       6 GLL5        0.0000 
     35 CA          9.4790    5.8050   11.9070 C.3       4 GLP5        0.0000 
     36 CA          5.9015    4.5245   17.1305 C.3       2 GLC5        0.0000 
     37 CA          6.6950    4.9040   15.6710 C.3       6 GLL5        0.0000 
     38 CA          5.1080    4.1450   18.5900 C.3       4 GLP5        0.0000 
     39 CA          4.5440    5.4615   15.4340 C.3       2 GLC5        0.0000 
     40 CA          2.3930    6.0190   15.1970 C.3       4 GLP5        0.0000 
     41 N           8.6645    6.2135   14.4690 N.am      1 SEC2        0.0000 
     42 N           7.2870    5.8700   14.8150 N.am      5 SEL2        0.0000 
     43 N          10.0420    6.5570   14.1230 N.am      3 SEP2        0.0000 
     44 CA          7.8500    9.9115   12.2330 C.3       2 GLC5        0.0000 
     45 CA          6.3200    9.2420   13.6360 C.3       6 GLL5        0.0000 
     46 CA          9.3800   10.5810   10.8300 C.3       4 GLP5        0.0000 
     47 CA          4.0250    9.7855   14.6420 C.3       2 GLC5        0.0000 
     48 CA          5.2960   11.3350   14.8730 C.3       6 GLL5        0.0000 
     49 CA          2.7540    8.2360   14.4110 C.3       4 GLP5        0.0000 
     50 N           9.4870    5.0075   14.3815 N.am      1 SEC2        0.0000 
     51 N           8.9320    3.4580   14.6400 N.am      5 SEL2        0.0000 
     52 CA          9.8280    3.3270   12.8515 C.3       2 GLC5        0.0000 
     53 CA          9.4530    2.1700   14.0550 C.3       6 GLL5        0.0000 
     54 CA          9.0770    0.7685   12.4705 C.3       2 GLC5        0.0000 
     55 CA         13.6938   13.6790   14.3650 C.3       2 GLC5        0.0000 
     56 CA         14.8030   14.6510   13.0640 C.3       4 GLP5        0.0000 
     57 CA         13.0362   12.1005   17.5795 C.3       2 GLC5        0.0000 
     58 CA         13.4880   11.4940   19.4930 C.3       4 GLP5        0.0000 
     59 CA         12.1580   13.1247   18.8865 C.3       2 GLC5        0.0000 
     60 CA          9.0228   15.7668   18.0337 C.3       2 GLC5        0.0000 
     61 CA         10.4640   14.6860   18.9080 C.3       6 GLL5        0.0000 
     62 CA          7.5750   16.2800   16.7050 C.3       4 GLP5        0.0000 
     63 CA          7.7970   14.6182   15.6200 C.3       2 GLC5        0.0000 
     64 CA          7.4930   12.6920   14.9240 C.3       6 GLL5        0.0000 
     65 CA          9.0005   11.2228   14.6260 C.3       2 GLC5        0.0000 
     66 CA          8.3560   14.6550   16.5550 C.3       2 GLC5        0.0000 
     67 CA          9.9690   13.3900   16.1360 C.3       6 GLL5        0.0000 
     68 CA          9.5595   11.2595   15.5610 C.3       2 GLC5        0.0000 
     69 CA          8.9230   12.8420   16.9860 C.3       6 GLL5        0.0000 
     70 CA         11.7293   18.6938   19.5463 C.3       2 GLC5        0.0000 
     71 CA         11.9330   20.3270   20.2060 C.3       4 GLP5        0.0000 
     72 CA         10.4713   17.4327   17.4088 C.3       2 GLC5        0.0000 
     73 CA         11.1710   17.0200   19.5100 C.3       6 GLL5        0.0000 
     74 CA         13.2692   16.1732   18.8292 C.3       2 GLC5        0.0000 
     75 CA          8.1408    6.6690   13.0985 C.3       2 GLC5        0.0000 
     76 CA          6.7980    7.9060   13.6720 C.3       6 GLL5        0.0000 
     77 CA          4.7782    7.8845   14.3505 C.3       2 GLC5        0.0000 
     78 CA          6.8070    7.1600   14.9080 C.3       6 GLL5        0.0000 
     79 CA          4.4127    8.8995   14.3317 C.3       2 GLC5        0.0000 
     80 CA          8.0865    9.3590   14.4893 C.3       2 GLC5        0.0000 
     81 CA          5.8230    9.8840   14.8690 C.3       6 GLL5        0.0000 
     82 CA          8.1494    8.3580   15.8056 C.3       2 GLC5        0.0000 
     83 CA         10.1070    8.4060   15.7790 C.3       4 GLP5        0.0000 
     84 CA          4.4110    8.3513   15.2788 C.3       2 GLC5        0.0000 
     85 CA          6.3120    7.7860   16.1650 C.3       6 GLL5        0.0000 
     86 CA          4.4075   12.8563   14.9485 C.3       2 GLC5        0.0000 
     87 CA          3.0870   13.8590   15.4150 C.3       4 GLP5        0.0000 
     88 CA         11.1465    2.2388   15.7308 C.3       2 GLC5        0.0000 
     89 CA         12.4910    2.7790   16.9040 C.3       4 GLP5        0.0000 
     90 CA         11.5055    2.1858   13.5162 C.3       2 GLC5        0.0000 
     91 CA         10.1510    1.2270   15.0600 C.3       6 GLL5        0.0000 
     92 CA         13.2090    2.6730   12.4750 C.3       4 GLP5        0.0000 
@<TRIPOS>BOND
@<TRIPOS>SUBSTRUCTURE
     1 SEC2       41 GROUP        1 X    SEC  0     ROOT SEC X 2
     2 GLC5        1 GROUP        1 X    GLC  0     **** GLC X 6
     3 SEP2       43 GROUP        1 Y    SEP  0     ROOT SEP Y 9
     4 GLP5        3 GROUP        1 Y    GLP  0     **** GLP Y 13
     5 SEL2       42 GROUP        1 Z    SEL  0     ROOT SEL Z 16
     6 GLL5        2 GROUP        1 Z    GLL  0     **** GLL Z 20
@<TRIPOS>SET

