#    Name: 4i7f_NVE_1_ligand
#    Modification time : Tue Mar 25 02:32:15 2014

@<TRIPOS>MOLECULE
4i7f_NVE_1_ligand
   70    73     1     0     0
SMALL
NO_CHARGES


@<TRIPOS>ATOM
      1 C1         12.5980   12.0990   15.1900 C.3       1 NVE601      0.0000 
      2 C2         12.5710   13.3150   16.1420 C.3       1 NVE601      0.0000 
      3 N3         11.2480   13.8000   16.6510 N.pl3     1 NVE601      0.0000 
      4 C4         11.1920   14.8250   17.6520 C.ar      1 NVE601      0.0000 
      5 C5         10.4640   14.6860   18.9080 C.ar      1 NVE601      0.0000 
      6 N6          9.7490   13.4950   19.2660 N.am      1 NVE601      0.0000 
      7 C7          9.7630   13.1390   20.7370 C.3       1 NVE601      0.0000 
      8 C8          9.0540   12.6430   18.4350 C.2       1 NVE601      0.0000 
      9 O9          8.4840   11.6380   18.9060 O.2       1 NVE601      0.0000 
     10 C10         8.9230   12.8420   16.9860 C.ar      1 NVE601      0.0000 
     11 C11         7.6870   12.4980   16.3620 C.ar      1 NVE601      0.0000 
     12 C12         7.4930   12.6920   14.9240 C.ar      1 NVE601      0.0000 
     13 C13         8.5450   13.2210   14.1460 C.ar      1 NVE601      0.0000 
     14 N14         9.7130   13.5440   14.7590 N.ar      1 NVE601      0.0000 
     15 C15         9.9690   13.3900   16.1360 C.ar      1 NVE601      0.0000 
     16 C16        10.4770   15.8210   19.8170 C.ar      1 NVE601      0.0000 
     17 C17        11.1710   17.0200   19.5100 C.ar      1 NVE601      0.0000 
     18 C18        11.8800   17.1010   18.2630 C.ar      1 NVE601      0.0000 
     19 N19        11.8660   16.0190   17.3850 N.ar      1 NVE601      0.0000 
     20 C20         6.2420    2.5690   11.6860 C.3       1 NVE601      0.0000 
     21 C21         6.0890    3.3960   12.9980 C.3       1 NVE601      0.0000 
     22 O22         6.4130    2.5900   14.2150 O.3       1 NVE601      0.0000 
     23 P23         7.4430    3.3090   15.3020 P.3       1 NVE601      0.0000 
     24 C24         6.6950    4.9040   15.6710 C.3       1 NVE601      0.0000 
     25 O25         7.2870    5.8700   14.8150 O.3       1 NVE601      0.0000 
     26 C26         6.8070    7.1600   14.9080 C.ar      1 NVE601      0.0000 
     27 C27         6.7980    7.9060   13.6720 C.ar      1 NVE601      0.0000 
     28 C28         6.3200    9.2420   13.6360 C.ar      1 NVE601      0.0000 
     29 C29         5.8230    9.8840   14.8690 C.ar      1 NVE601      0.0000 
     30 C30         5.8240    9.1470   16.1280 C.ar      1 NVE601      0.0000 
     31 C31         6.3120    7.7860   16.1650 C.ar      1 NVE601      0.0000 
     32 C32         5.2960   11.3350   14.8730 C.3       1 NVE601      0.0000 
     33 C33         6.1600   12.3720   14.0910 C.3       1 NVE601      0.0000 
     34 O34         8.9320    3.4580   14.6400 O.3       1 NVE601      0.0000 
     35 C35         9.4530    2.1700   14.0550 C.3       1 NVE601      0.0000 
     36 C36        10.1510    1.2270   15.0600 C.3       1 NVE601      0.0000 
     37 O37         7.5040    2.5850   16.6190 O.2       1 NVE601      0.0000 
     38 H          13.1010   14.1613   15.6230 H         1 NVE601      0.0000 
     39 H          13.2382   13.0741   17.0156 H         1 NVE601      0.0000 
     40 H           6.9219   12.1124   16.9086 H         1 NVE601      0.0000 
     41 H           8.4062   13.3493   13.1416 H         1 NVE601      0.0000 
     42 H           9.9646   15.7377   20.7031 H         1 NVE601      0.0000 
     43 H          11.1715   17.7991   20.1447 H         1 NVE601      0.0000 
     44 H          12.3865   17.9567   18.0387 H         1 NVE601      0.0000 
     45 H           5.0579    3.7619   13.0463 H         1 NVE601      0.0000 
     46 H           6.7531    4.2640   12.9275 H         1 NVE601      0.0000 
     47 H           6.9140    4.9988   16.7142 H         1 NVE601      0.0000 
     48 H           5.6602    4.6916   15.5003 H         1 NVE601      0.0000 
     49 H           7.1407    7.4592   12.8220 H         1 NVE601      0.0000 
     50 H           6.3096    9.7753   12.7780 H         1 NVE601      0.0000 
     51 H           5.4847    9.5895   16.9659 H         1 NVE601      0.0000 
     52 H           6.3246    7.2588   17.0100 H         1 NVE601      0.0000 
     53 H           5.2058   11.6794   15.9194 H         1 NVE601      0.0000 
     54 H           4.2754   11.3455   14.4487 H         1 NVE601      0.0000 
     55 H           6.4502   11.9628   13.1446 H         1 NVE601      0.0000 
     56 H           5.6137   13.2860   13.9750 H         1 NVE601      0.0000 
     57 H          10.1706    2.3965   13.2414 H         1 NVE601      0.0000 
     58 H           8.6186    1.6131   13.5842 H         1 NVE601      0.0000 
     59 H          13.5298   11.8655   14.9121 H         1 NVE601      0.0000 
     60 H          12.2067   11.2840   15.6174 H         1 NVE601      0.0000 
     61 H          12.0770   12.2703   14.3538 H         1 NVE601      0.0000 
     62 H          10.6925   12.9898   21.0742 H         1 NVE601      0.0000 
     63 H           9.3603   13.8622   21.2980 H         1 NVE601      0.0000 
     64 H           9.2465   12.3029   20.9217 H         1 NVE601      0.0000 
     65 H           7.1739    2.2253   11.5702 H         1 NVE601      0.0000 
     66 H           5.6334    1.7756   11.6740 H         1 NVE601      0.0000 
     67 H           6.0281    3.1148   10.8759 H         1 NVE601      0.0000 
     68 H          10.4752    0.3896   14.6200 H         1 NVE601      0.0000 
     69 H          10.9450    1.6605   15.4862 H         1 NVE601      0.0000 
     70 H           9.5362    0.9508   15.7987 H         1 NVE601      0.0000 
@<TRIPOS>BOND
     1    2    1 1    
     2   59    1 1    
     3   60    1 1    
     4   61    1 1    
     5    3    2 1    
     6   38    2 1    
     7   39    2 1    
     8    4    3 1    
     9   15    3 1    
    10    5    4 ar   
    11   19    4 ar   
    12    6    5 1    
    13   16    5 ar   
    14    7    6 1    
    15    8    6 am   
    16   62    7 1    
    17   63    7 1    
    18   64    7 1    
    19    9    8 2    
    20   10    8 1    
    21   11   10 ar   
    22   15   10 ar   
    23   12   11 ar   
    24   40   11 1    
    25   13   12 ar   
    26   33   12 1    
    27   14   13 ar   
    28   41   13 1    
    29   15   14 ar   
    30   17   16 ar   
    31   42   16 1    
    32   18   17 ar   
    33   43   17 1    
    34   19   18 ar   
    35   44   18 1    
    36   21   20 1    
    37   65   20 1    
    38   66   20 1    
    39   67   20 1    
    40   22   21 1    
    41   45   21 1    
    42   46   21 1    
    43   23   22 1    
    44   24   23 1    
    45   34   23 1    
    46   37   23 2    
    47   25   24 1    
    48   47   24 1    
    49   48   24 1    
    50   26   25 1    
    51   27   26 ar   
    52   31   26 ar   
    53   28   27 ar   
    54   49   27 1    
    55   29   28 ar   
    56   50   28 1    
    57   30   29 ar   
    58   32   29 1    
    59   31   30 ar   
    60   51   30 1    
    61   52   31 1    
    62   33   32 1    
    63   53   32 1    
    64   54   32 1    
    65   55   33 1    
    66   56   33 1    
    67   35   34 1    
    68   36   35 1    
    69   57   35 1    
    70   58   35 1    
    71   68   36 1    
    72   69   36 1    
    73   70   36 1    
@<TRIPOS>SUBSTRUCTURE
     1 NVE601      1 GROUP   
@<TRIPOS>SET

