#    Name: 1w83_L11_1_INTS_M
#    Modification time : Tue Mar 25 08:46:29 2014

@<TRIPOS>MOLECULE
1w83_L11_1_INTS_M
   94     0     9     0     0
SMALL
NO_CHARGES


@<TRIPOS>ATOM
      1 CA          4.7665    8.4640   29.8590 C.3       3 GLC5        0.0000 
      2 CA          5.9360    9.7580   30.3880 C.3       9 GLL5        0.0000 
      3 CA          3.5970    7.1700   29.3300 C.3       6 GLP5        0.0000 
      4 CA          6.5350    8.9205   28.4755 C.3       3 GLC5        0.0000 
      5 CA          7.1340    8.0830   26.5630 C.3       6 GLP5        0.0000 
      6 CA          5.5195   12.9910   30.8145 C.3       3 GLC5        0.0000 
      7 CA          4.8800   11.4350   32.3020 C.3       9 GLL5        0.0000 
      8 CA          6.1590   14.5470   29.3270 C.3       6 GLP5        0.0000 
      9 CA          2.5485   10.9210   33.7335 C.3       3 GLC5        0.0000 
     10 CA          3.5100   11.0280   31.8380 C.3       9 GLL5        0.0000 
     11 CA          1.5870   10.8140   35.6290 C.3       6 GLP5        0.0000 
     12 CA          1.8030   10.0650   33.5860 C.3       3 GLC5        0.0000 
     13 CA          2.0190    9.3160   31.5430 C.3       9 GLL5        0.0000 
     14 CA          1.6180    5.9680   31.7025 C.3       3 GLC5        0.0000 
     15 CA          1.3990    8.1140   31.9190 C.3       9 GLL5        0.0000 
     16 CA          1.8370    3.8220   31.4860 C.3       6 GLP5        0.0000 
     17 CA          0.8705    7.4590   33.5050 C.3       3 GLC5        0.0000 
     18 CA          0.3420    6.8040   35.0910 C.3       6 GLP5        0.0000 
     19 N           0.2565    6.3440   32.0315 N.am      2 SEC2        0.0000 
     20 N           0.3170    7.6850   31.2590 N.am      8 SEL2        0.0000 
     21 N           0.1960    5.0030   32.8040 N.am      5 SEP2        0.0000 
     22 CA          0.1095    6.5435   29.4355 C.3       3 GLC5        0.0000 
     23 CA         -0.2180    8.3740   30.2380 C.3       9 GLL5        0.0000 
     24 CA          0.4370    4.7130   28.6330 C.3       6 GLP5        0.0000 
     25 CA          3.2815   11.6000   34.4685 C.3       3 GLC5        0.0000 
     26 CA          4.9760   12.3860   33.3080 C.3       9 GLL5        0.0000 
     27 O           7.2790   14.8325   34.0370 O.2       1 ALC1        0.0000 
     28 O           6.3540   13.8060   34.7580 O.2       7 ALL1        0.0000 
     29 O           8.2040   15.8590   33.3160 O.2       4 ALP1        0.0000 
     30 N           3.8275   13.6480   37.0280 N.am      2 SEC2        0.0000 
     31 N           4.9370   13.0360   36.3450 N.am      8 SEL2        0.0000 
     32 N           2.7180   14.2600   37.7110 N.am      5 SEP2        0.0000 
     33 CA          6.0065   12.5940   38.6455 C.3       3 GLC5        0.0000 
     34 CA          5.8630   14.6520   38.3310 C.3       9 GLL5        0.0000 
     35 CA          6.1500   10.5360   38.9600 C.3       6 GLP5        0.0000 
     36 CA          4.1850   13.4725   38.7170 C.3       3 GLC5        0.0000 
     37 CA          2.5070   12.2930   39.1030 C.3       6 GLP5        0.0000 
     38 CA          6.0015   12.3000   40.0590 C.3       3 GLC5        0.0000 
     39 CA          5.8530   14.0640   41.1580 C.3       9 GLL5        0.0000 
     40 CA          4.1800   13.1785   40.1305 C.3       3 GLC5        0.0000 
     41 CA          4.9425   13.6445   44.3740 C.3       3 GLC5        0.0000 
     42 CA          5.1010   14.0950   42.4990 C.3       9 GLL5        0.0000 
     43 CA          4.7840   13.1940   46.2490 C.3       6 GLP5        0.0000 
     44 CA          3.4485   13.5360   42.9350 C.3       3 GLC5        0.0000 
     45 CA          1.7960   12.9770   43.3710 C.3       6 GLP5        0.0000 
     46 CA          6.3250   15.9725   44.7535 C.3       3 GLC5        0.0000 
     47 CA          5.7780   16.3550   42.8800 C.3       9 GLL5        0.0000 
     48 CA          6.8720   15.5900   46.6270 C.3       6 GLP5        0.0000 
     49 CA          6.8956   11.6961   29.9026 C.3       3 GLC5        0.0000 
     50 CA          6.0270   10.9370   31.6870 C.3       9 GLL5        0.0000 
     51 CA          7.1680   12.5220   28.2260 C.3       6 GLP5        0.0000 
     52 CA          9.0787   11.6575   31.5605 C.3       3 GLC5        0.0000 
     53 CA          7.2650   11.3930   32.1210 C.3       9 GLL5        0.0000 
     54 CA         10.8450   11.4500   30.4960 C.3       6 GLP5        0.0000 
     55 CA          6.0471    9.1576   32.2486 C.3       3 GLC5        0.0000 
     56 CA          5.4710    7.4450   32.9180 C.3       6 GLP5        0.0000 
     57 CA          6.9962   13.8105   31.8543 C.3       3 GLC5        0.0000 
     58 CA          7.3600   12.3370   33.1290 C.3       9 GLL5        0.0000 
     59 CA          7.2030   15.0340   30.2700 C.3       6 GLP5        0.0000 
     60 CA          8.5273   12.8445   34.2658 C.3       3 GLC5        0.0000 
     61 CA         10.2650   13.1020   35.0930 C.3       6 GLP5        0.0000 
     62 CA          4.8330    9.3383   32.4940 C.3       3 GLC5        0.0000 
     63 CA          3.5900    8.0800   32.3245 C.3       3 GLC5        0.0000 
     64 CA         -0.8575    9.2508   28.2870 C.3       3 GLC5        0.0000 
     65 CA         -1.7780    9.5260   26.5440 C.3       6 GLP5        0.0000 
     66 CA          1.8548   10.0463   28.6537 C.3       3 GLC5        0.0000 
     67 CA          0.3440    9.5770   29.8220 C.3       9 GLL5        0.0000 
     68 CA          2.7970   10.2740   27.1600 C.3       6 GLP5        0.0000 
     69 CA          5.5042   10.9239   34.7143 C.3       3 GLC5        0.0000 
     70 CA          5.4350    9.4740   36.1520 C.3       6 GLP5        0.0000 
     71 CA          4.9008   15.9987   37.0968 C.3       3 GLC5        0.0000 
     72 CA          6.2420   14.7940   36.9970 C.3       9 GLL5        0.0000 
     73 CA          3.1590   16.6690   37.3940 C.3       6 GLP5        0.0000 
     74 CA          8.2164   14.5014   37.3026 C.3       3 GLC5        0.0000 
     75 CA          7.4410   16.7810   37.5590 C.3       9 GLL5        0.0000 
     76 CA          9.3910   12.9480   37.4260 C.3       6 GLP5        0.0000 
     77 CA          5.2045   16.6947   37.8100 C.3       3 GLC5        0.0000 
     78 CA          8.8592   16.8657   35.8861 C.3       3 GLC5        0.0000 
     79 CA          7.0430   15.8630   36.6020 C.3       9 GLL5        0.0000 
     80 CA          9.9940   16.6680   34.6450 C.3       6 GLP5        0.0000 
     81 CA          7.7298   14.0305   38.1198 C.3       3 GLC5        0.0000 
     82 CA          4.6137   15.8910   38.1037 C.3       3 GLC5        0.0000 
     83 CA          9.1062   17.6722   39.0619 C.3       3 GLC5        0.0000 
     84 CA          7.0590   16.6600   38.8930 C.3       9 GLL5        0.0000 
     85 CA         10.7710   18.3680   39.9940 C.3       6 GLP5        0.0000 
     86 CA          6.0190   12.2867   42.6303 C.3       3 GLC5        0.0000 
     87 CA          6.5610   10.4940   43.4320 C.3       6 GLP5        0.0000 
     88 CA          3.9220   15.1917   42.2253 C.3       3 GLC5        0.0000 
     89 CA          2.3670   16.3040   42.6220 C.3       6 GLP5        0.0000 
     90 CA          7.6752   17.1317   43.4243 C.3       3 GLC5        0.0000 
     91 CA          9.2000   17.9090   44.6290 C.3       6 GLP5        0.0000 
     92 CA          4.2588   16.3293   42.4207 C.3       3 GLC5        0.0000 
     93 CA          2.2130    8.1758   29.9480 C.3       3 GLC5        0.0000 
     94 CA          1.4810   10.0600   30.4730 C.3       9 GLL5        0.0000 
@<TRIPOS>BOND
@<TRIPOS>SUBSTRUCTURE
     1 ALC1       27 GROUP        1 X    ALC  0     ROOT ALC X 1
     2 SEC2       19 GROUP        1 X    SEC  0     **** SEC X 2
     3 GLC5        1 GROUP        1 X    GLC  0     **** GLC X 6
     4 ALP1       29 GROUP        1 Y    ALP  0     ROOT ALP Y 8
     5 SEP2       21 GROUP        1 Y    SEP  0     **** SEP Y 9
     6 GLP5        3 GROUP        1 Y    GLP  0     **** GLP Y 13
     7 ALL1       28 GROUP        1 Z    ALL  0     ROOT ALL Z 15
     8 SEL2       20 GROUP        1 Z    SEL  0     **** SEL Z 16
     9 GLL5        2 GROUP        1 Z    GLL  0     **** GLL Z 20
@<TRIPOS>SET

