#    Name: 1w83_L11_1_ligand
#    Modification time : Tue Mar 25 08:46:29 2014

@<TRIPOS>MOLECULE
1w83_L11_1_ligand
   57    60     1     0     0
SMALL
NO_CHARGES


@<TRIPOS>ATOM
      1 CL15        5.9360    9.7580   30.3880 Cl        1 L111355     0.0000 
      2 C14         6.0270   10.9370   31.6870 C.ar      1 L111355     0.0000 
      3 C13         7.2650   11.3930   32.1210 C.ar      1 L111355     0.0000 
      4 C12         7.3600   12.3370   33.1290 C.ar      1 L111355     0.0000 
      5 C16         4.8800   11.4350   32.3020 C.ar      1 L111355     0.0000 
      6 C17         3.5100   11.0280   31.8380 C.3       1 L111355     0.0000 
      7 O18         3.1410    9.7200   32.2250 O.3       1 L111355     0.0000 
      8 C19         2.0190    9.3160   31.5430 C.ar      1 L111355     0.0000 
      9 C24         1.3990    8.1140   31.9190 C.ar      1 L111355     0.0000 
     10 N23         0.3170    7.6850   31.2590 N.ar      1 L111355     0.0000 
     11 C22        -0.2180    8.3740   30.2380 C.ar      1 L111355     0.0000 
     12 C21         0.3440    9.5770   29.8220 C.ar      1 L111355     0.0000 
     13 C20         1.4810   10.0600   30.4730 C.ar      1 L111355     0.0000 
     14 C25         4.9760   12.3860   33.3080 C.ar      1 L111355     0.0000 
     15 C11         6.2190   12.8370   33.7480 C.ar      1 L111355     0.0000 
     16 N10         6.3540   13.8060   34.7580 N.am      1 L111355     0.0000 
     17 C8          5.8060   13.8050   36.0020 C.2       1 L111355     0.0000 
     18 O9          4.9370   13.0360   36.3450 O.2       1 L111355     0.0000 
     19 C6          6.2420   14.7940   36.9970 C.2       1 L111355     0.0000 
     20 C7          7.0430   15.8630   36.6020 C.2       1 L111355     0.0000 
     21 C2          7.4410   16.7810   37.5590 C.3       1 L111355     0.0000 
     22 F1          8.2070   17.8050   37.1740 F         1 L111355     0.0000 
     23 C5          5.8630   14.6520   38.3310 C.3       1 L111355     0.0000 
     24 C4          6.2740   15.5740   39.2960 C.3       1 L111355     0.0000 
     25 C3          7.0590   16.6600   38.8930 C.3       1 L111355     0.0000 
     26 N26         5.8450   15.4370   40.6340 N.4       1 L111355     0.0000 
     27 C31         5.8530   14.0640   41.1580 C.3       1 L111355     0.0000 
     28 C30         5.1010   14.0950   42.4990 C.3       1 L111355     0.0000 
     29 O29         5.6780   15.0350   43.4180 O.3       1 L111355     0.0000 
     30 C28         5.7780   16.3550   42.8800 C.3       1 L111355     0.0000 
     31 C27         6.5230   16.3540   41.5590 C.3       1 L111355     0.0000 
     32 H           8.1267   11.0209   31.6837 H         1 L111355     0.0000 
     33 H           8.2908   12.6772   33.4282 H         1 L111355     0.0000 
     34 H           3.4805   11.1440   30.7266 H         1 L111355     0.0000 
     35 H           2.7830   11.7839   32.2246 H         1 L111355     0.0000 
     36 H           1.8011    7.5814   32.7102 H         1 L111355     0.0000 
     37 H          -1.0613    8.0228   29.7390 H         1 L111355     0.0000 
     38 H          -0.0689   10.1027   29.0491 H         1 L111355     0.0000 
     39 H           1.9172   10.9311   30.1855 H         1 L111355     0.0000 
     40 H           4.1160   12.7663   33.7382 H         1 L111355     0.0000 
     41 H           6.9795   14.6576   34.4938 H         1 L111355     0.0000 
     42 H           7.3278   15.9638   35.6289 H         1 L111355     0.0000 
     43 H           8.6217   15.9905   37.8231 H         1 L111355     0.0000 
     44 H           6.1562   13.5859   38.6894 H         1 L111355     0.0000 
     45 H           4.7057   14.5557   38.3805 H         1 L111355     0.0000 
     46 H           7.4448   14.7984   39.5655 H         1 L111355     0.0000 
     47 H           6.5370   17.6380   39.2244 H         1 L111355     0.0000 
     48 H           8.0039   16.7021   39.5595 H         1 L111355     0.0000 
     49 H           4.7348   15.7609   40.6689 H         1 L111355     0.0000 
     50 H           6.8590   13.7214   41.3389 H         1 L111355     0.0000 
     51 H           5.3374   13.3898   40.4934 H         1 L111355     0.0000 
     52 H           5.1134   13.0700   42.9083 H         1 L111355     0.0000 
     53 H           4.0468   14.3383   42.2808 H         1 L111355     0.0000 
     54 H           6.3114   17.0313   43.5693 H         1 L111355     0.0000 
     55 H           4.7816   16.7956   42.7067 H         1 L111355     0.0000 
     56 H           6.5310   17.3668   41.1606 H         1 L111355     0.0000 
     57 H           7.5484   16.0347   41.7354 H         1 L111355     0.0000 
@<TRIPOS>BOND
     1    2    1 1    
     2    3    2 ar   
     3    5    2 ar   
     4    4    3 ar   
     5   32    3 1    
     6   15    4 ar   
     7   33    4 1    
     8    6    5 1    
     9   14    5 ar   
    10    7    6 1    
    11   34    6 1    
    12   35    6 1    
    13    8    7 1    
    14    9    8 ar   
    15   13    8 ar   
    16   10    9 ar   
    17   36    9 1    
    18   11   10 ar   
    19   12   11 ar   
    20   37   11 1    
    21   13   12 ar   
    22   38   12 1    
    23   39   13 1    
    24   15   14 ar   
    25   40   14 1    
    26   16   15 1    
    27   17   16 am   
    28   41   16 1    
    29   18   17 2    
    30   19   17 1    
    31   20   19 2    
    32   23   19 1    
    33   21   20 1    
    34   42   20 1    
    35   22   21 1    
    36   25   21 1    
    37   43   21 1    
    38   24   23 1    
    39   44   23 1    
    40   45   23 1    
    41   25   24 1    
    42   26   24 1    
    43   46   24 1    
    44   47   25 1    
    45   48   25 1    
    46   27   26 1    
    47   31   26 1    
    48   49   26 1    
    49   28   27 1    
    50   50   27 1    
    51   51   27 1    
    52   29   28 1    
    53   52   28 1    
    54   53   28 1    
    55   30   29 1    
    56   31   30 1    
    57   54   30 1    
    58   55   30 1    
    59   56   31 1    
    60   57   31 1    
@<TRIPOS>SUBSTRUCTURE
     1 L111355     1 GROUP   
@<TRIPOS>SET

