#    Name: 4a4w_YFB_1_INTS_M
#    Modification time : Tue Mar 25 04:55:53 2014

@<TRIPOS>MOLECULE
4a4w_YFB_1_INTS_M
   87     0     6     0     0
SMALL
NO_CHARGES


@<TRIPOS>ATOM
      1 CA        -12.7985   13.9765  -16.4450 C.3       2 GLC5        0.0000 
      2 CA        -12.1460   14.6730  -14.8480 C.3       6 GLL5        0.0000 
      3 CA        -13.4510   13.2800  -18.0420 C.3       4 GLP5        0.0000 
      4 CA        -11.1770   12.9910  -14.8755 C.3       2 GLC5        0.0000 
      5 CA        -10.2080   11.3090  -14.9030 C.3       4 GLP5        0.0000 
      6 CA        -14.6140   16.0455  -15.7270 C.3       2 GLC5        0.0000 
      7 CA        -14.1780   16.9410  -14.0050 C.3       6 GLL5        0.0000 
      8 CA        -15.0500   15.1500  -17.4490 C.3       4 GLP5        0.0000 
      9 CA        -17.4330   15.6790  -13.5280 C.3       2 GLC5        0.0000 
     10 CA        -17.3380   17.5290  -14.2490 C.3       6 GLL5        0.0000 
     11 CA        -17.5280   13.8290  -12.8070 C.3       4 GLP5        0.0000 
     12 CA        -18.5290   16.9695  -11.3510 C.3       2 GLC5        0.0000 
     13 CA        -16.9190   18.0270  -11.7750 C.3       6 GLL5        0.0000 
     14 CA        -20.1390   15.9120  -10.9270 C.3       4 GLP5        0.0000 
     15 CA        -16.2630   16.7465   -9.0895 C.3       2 GLC5        0.0000 
     16 CA        -16.2630   18.3270  -10.5670 C.3       6 GLL5        0.0000 
     17 CA        -16.2630   15.1660   -7.6120 C.3       4 GLP5        0.0000 
     18 CA        -17.1885   21.1830  -11.6175 C.3       2 GLC5        0.0000 
     19 CA        -16.5680   19.7680  -10.0800 C.3       6 GLL5        0.0000 
     20 CA        -17.8090   22.5980  -13.1550 C.3       4 GLP5        0.0000 
     21 CA        -20.1235   22.3780   -9.1300 C.3       2 GLC5        0.0000 
     22 CA        -18.1170   21.5650   -9.5230 C.3       6 GLL5        0.0000 
     23 CA        -22.1300   23.1910   -8.7370 C.3       4 GLP5        0.0000 
     24 CA        -20.9770   21.3190   -8.9420 C.3       2 GLC5        0.0000 
     25 CA        -19.8240   19.4470   -9.1470 C.3       6 GLL5        0.0000 
     26 CA        -19.0295   17.8980   -7.8545 C.3       2 GLC5        0.0000 
     27 CA        -18.2350   16.3490   -6.5620 C.3       4 GLP5        0.0000 
     28 CA        -20.2800   20.3620   -7.2240 C.3       2 GLC5        0.0000 
     29 CA        -20.7360   21.2770   -5.3010 C.3       4 GLP5        0.0000 
     30 CA        -21.4540   19.5635   -8.4110 C.3       2 GLC5        0.0000 
     31 CA        -23.0840   19.6800   -7.6750 C.3       4 GLP5        0.0000 
     32 CA        -21.2140   18.2665   -9.9120 C.3       2 GLC5        0.0000 
     33 CA        -22.6040   17.0860  -10.6770 C.3       4 GLP5        0.0000 
     34 CA        -14.3090   21.2165  -11.4605 C.3       2 GLC5        0.0000 
     35 CA        -15.5250   20.6440   -9.7260 C.3       6 GLL5        0.0000 
     36 CA        -13.0930   21.7890  -13.1950 C.3       4 GLP5        0.0000 
     37 N         -12.6300   21.9640   -7.7525 N.am      1 SEC2        0.0000 
     38 N         -13.4020   22.3230   -8.9460 N.am      5 SEL2        0.0000 
     39 N         -11.8580   21.6050   -6.5590 N.am      3 SEP2        0.0000 
     40 CA        -19.5090   24.6870   -9.0710 C.3       2 GLC5        0.0000 
     41 CA        -17.5210   23.8180   -8.7310 C.3       6 GLL5        0.0000 
     42 CA        -21.4970   25.5560   -9.4110 C.3       4 GLP5        0.0000 
     43 CA        -17.3905   24.9685  -10.2845 C.3       2 GLC5        0.0000 
     44 CA        -17.2600   26.1190  -11.8380 C.3       4 GLP5        0.0000 
     45 CA        -20.1055   25.2085   -6.9080 C.3       2 GLC5        0.0000 
     46 CA        -17.9220   25.3110   -6.7480 C.3       6 GLL5        0.0000 
     47 CA        -22.2890   25.1060   -7.0680 C.3       4 GLP5        0.0000 
     48 CA        -20.2225   25.8330   -8.3360 C.3       2 GLC5        0.0000 
     49 CA        -18.9480   26.1100   -7.2610 C.3       6 GLL5        0.0000 
     50 CA        -20.5135   28.6750   -7.7450 C.3       2 GLC5        0.0000 
     51 CA        -19.1080   27.4270   -6.8260 C.3       6 GLL5        0.0000 
     52 CA        -21.9190   29.9230   -8.6640 C.3       4 GLP5        0.0000 
     53 CA        -20.6985   26.2665   -6.9470 C.3       2 GLC5        0.0000 
     54 CA        -11.3100   16.5885  -15.8318 C.3       2 GLC5        0.0000 
     55 CA        -11.9000   15.8090  -13.8430 C.3       6 GLL5        0.0000 
     56 CA        -10.5970   17.9360  -17.3180 C.3       4 GLP5        0.0000 
     57 CA        -13.0105   13.7015  -13.3613 C.3       2 GLC5        0.0000 
     58 CA        -13.9980   12.1620  -12.3770 C.3       4 GLP5        0.0000 
     59 CA        -14.5873   15.6900  -12.5163 C.3       2 GLC5        0.0000 
     60 CA        -12.8510   16.8110  -13.5600 C.3       6 GLL5        0.0000 
     61 CA        -15.6600   14.5040  -11.2500 C.3       4 GLP5        0.0000 
     62 CA        -11.8987   15.7424  -11.5734 C.3       2 GLC5        0.0000 
     63 CA        -11.7680   15.1690   -9.6090 C.3       4 GLP5        0.0000 
     64 CA        -13.2761   19.0010  -13.2459 C.3       2 GLC5        0.0000 
     65 CA        -12.3500   20.4970  -12.9250 C.3       4 GLP5        0.0000 
     66 CA        -15.6525   16.2627  -12.2312 C.3       2 GLC5        0.0000 
     67 CA        -14.8900   18.1340  -13.3510 C.3       6 GLL5        0.0000 
     68 CA        -18.0975   19.1170  -13.3466 C.3       2 GLC5        0.0000 
     69 CA        -16.4000   17.9090  -13.0740 C.3       6 GLL5        0.0000 
     70 CA        -19.3010   20.3610  -13.9750 C.3       4 GLP5        0.0000 
     71 CA        -16.1255   16.3405  -11.2105 C.3       2 GLC5        0.0000 
     72 CA        -16.5380   19.9093   -8.1468 C.3       2 GLC5        0.0000 
     73 CA        -15.8600   19.8010   -6.2750 C.3       4 GLP5        0.0000 
     74 CA        -18.5633   21.3820  -11.3810 C.3       2 GLC5        0.0000 
     75 CA        -17.8640   20.2670   -9.9570 C.3       6 GLL5        0.0000 
     76 CA        -19.1360   21.8480  -13.0220 C.3       4 GLP5        0.0000 
     77 CA        -16.7303   20.8977   -7.8135 C.3       2 GLC5        0.0000 
     78 CA        -15.7523   20.5502   -7.8913 C.3       2 GLC5        0.0000 
     79 CA        -15.7640   21.9550   -9.2890 C.3       6 GLL5        0.0000 
     80 CA        -17.1165   22.3937  -11.1950 C.3       2 GLC5        0.0000 
     81 CA        -19.2191   27.0430   -4.4217 C.3       2 GLC5        0.0000 
     82 CA        -20.5050   26.6770   -2.9960 C.3       4 GLP5        0.0000 
     83 CA        -16.5872   23.8084   -5.4005 C.3       2 GLC5        0.0000 
     84 CA        -17.0460   25.8210   -5.7900 C.3       6 GLL5        0.0000 
     85 CA        -15.7330   22.4120   -4.4120 C.3       4 GLP5        0.0000 
     86 CA        -18.7846   24.1226   -5.5211 C.3       2 GLC5        0.0000 
     87 CA        -19.8500   22.6600   -4.5850 C.3       4 GLP5        0.0000 
@<TRIPOS>BOND
@<TRIPOS>SUBSTRUCTURE
     1 SEC2       37 GROUP        1 X    SEC  0     ROOT SEC X 2
     2 GLC5        1 GROUP        1 X    GLC  0     **** GLC X 6
     3 SEP2       39 GROUP        1 Y    SEP  0     ROOT SEP Y 9
     4 GLP5        3 GROUP        1 Y    GLP  0     **** GLP Y 13
     5 SEL2       38 GROUP        1 Z    SEL  0     ROOT SEL Z 16
     6 GLL5        2 GROUP        1 Z    GLL  0     **** GLL Z 20
@<TRIPOS>SET

