#    Name: 4a4w_YFB_1_ligand
#    Modification time : Tue Mar 25 04:55:53 2014

@<TRIPOS>MOLECULE
4a4w_YFB_1_ligand
   61    62     1     0     0
SMALL
NO_CHARGES


@<TRIPOS>ATOM
      1 CAB       -10.5160   15.8320  -13.1880 C.3       1 YFB999      0.0000 
      2 CAV       -11.9000   15.8090  -13.8430 C.2       1 YFB999      0.0000 
      3 CAC       -12.1460   14.6730  -14.8480 C.3       1 YFB999      0.0000 
      4 CAH       -12.8510   16.8110  -13.5600 C.2       1 YFB999      0.0000 
      5 CAP       -14.1780   16.9410  -14.0050 C.3       1 YFB999      0.0000 
      6 CAR       -14.8900   18.1340  -13.3510 C.3       1 YFB999      0.0000 
      7 CAW       -16.4000   17.9090  -13.0740 C.2       1 YFB999      0.0000 
      8 CAD       -17.3380   17.5290  -14.2490 C.3       1 YFB999      0.0000 
      9 CAI       -16.9190   18.0270  -11.7750 C.2       1 YFB999      0.0000 
     10 CAQ       -16.2630   18.3270  -10.5670 C.3       1 YFB999      0.0000 
     11 CBC       -16.5680   19.7680  -10.0800 C.ar      1 YFB999      0.0000 
     12 CBB       -17.8640   20.2670   -9.9570 C.ar      1 YFB999      0.0000 
     13 CAO       -18.1170   21.5650   -9.5230 C.ar      1 YFB999      0.0000 
     14 OAU       -18.9230   19.4830  -10.2640 O.3       1 YFB999      0.0000 
     15 CAA       -19.8240   19.4470   -9.1470 C.3       1 YFB999      0.0000 
     16 CAZ       -15.5250   20.6440   -9.7260 C.ar      1 YFB999      0.0000 
     17 OAG       -14.2290   20.2090   -9.8120 O.3       1 YFB999      0.0000 
     18 CBD       -15.7640   21.9550   -9.2890 C.ar      1 YFB999      0.0000 
     19 CAX       -14.5460   22.8550   -8.9380 C.2       1 YFB999      0.0000 
     20 OAF       -13.4020   22.3230   -8.9460 O.co2     1 YFB999      0.0000 
     21 OAE       -14.7560   24.0710   -8.6850 O.co2     1 YFB999      0.0000 
     22 CBA       -17.0840   22.4240   -9.1810 C.ar      1 YFB999      0.0000 
     23 CAT       -17.5210   23.8180   -8.7310 C.3       1 YFB999      0.0000 
     24 CAS       -17.7520   23.8660   -7.2280 C.3       1 YFB999      0.0000 
     25 CAY       -17.9220   25.3110   -6.7480 C.ar      1 YFB999      0.0000 
     26 CAM       -18.9480   26.1100   -7.2610 C.ar      1 YFB999      0.0000 
     27 CAK       -19.1080   27.4270   -6.8260 C.ar      1 YFB999      0.0000 
     28 CAJ       -18.2250   27.9350   -5.8680 C.ar      1 YFB999      0.0000 
     29 CAL       -17.2000   27.1370   -5.3480 C.ar      1 YFB999      0.0000 
     30 CAN       -17.0460   25.8210   -5.7900 C.ar      1 YFB999      0.0000 
     31 H         -12.5025   17.6050  -12.8947 H         1 YFB999      0.0000 
     32 H         -14.7837   16.0408  -13.7812 H         1 YFB999      0.0000 
     33 H         -14.2383   17.0899  -15.1011 H         1 YFB999      0.0000 
     34 H         -14.7830   19.0169  -14.0006 H         1 YFB999      0.0000 
     35 H         -14.3926   18.3710  -12.3974 H         1 YFB999      0.0000 
     36 H         -17.9970   17.8606  -11.6875 H         1 YFB999      0.0000 
     37 H         -15.1627   18.2492  -10.6548 H         1 YFB999      0.0000 
     38 H         -16.5598   17.6465   -9.7465 H         1 YFB999      0.0000 
     39 H         -19.0989   21.8940   -9.4549 H         1 YFB999      0.0000 
     40 H         -18.4436   24.0871   -9.2480 H         1 YFB999      0.0000 
     41 H         -16.7480   24.5392   -9.0018 H         1 YFB999      0.0000 
     42 H         -16.9015   23.4188   -6.7153 H         1 YFB999      0.0000 
     43 H         -18.6496   23.3011   -6.9802 H         1 YFB999      0.0000 
     44 H         -19.5915   25.7228   -7.9664 H         1 YFB999      0.0000 
     45 H         -19.8555   28.0092   -7.1998 H         1 YFB999      0.0000 
     46 H         -18.3299   28.9065   -5.5416 H         1 YFB999      0.0000 
     47 H         -16.5617   27.5197   -4.6417 H         1 YFB999      0.0000 
     48 H         -16.2958   25.2362   -5.4132 H         1 YFB999      0.0000 
     49 H          -9.7863   15.9279  -13.8650 H         1 YFB999      0.0000 
     50 H         -10.4217   16.5926  -12.5456 H         1 YFB999      0.0000 
     51 H         -10.3330   14.9922  -12.6768 H         1 YFB999      0.0000 
     52 H         -11.4991   14.7046  -15.6099 H         1 YFB999      0.0000 
     53 H         -12.0529   13.7733  -14.4216 H         1 YFB999      0.0000 
     54 H         -13.0644   14.7174  -15.2412 H         1 YFB999      0.0000 
     55 H         -17.3441   18.2309  -14.9613 H         1 YFB999      0.0000 
     56 H         -17.0602   16.6725  -14.6839 H         1 YFB999      0.0000 
     57 H         -18.2836   17.4106  -13.9460 H         1 YFB999      0.0000 
     58 H         -19.3861   19.0754   -8.3284 H         1 YFB999      0.0000 
     59 H         -20.1600   20.3589   -8.9113 H         1 YFB999      0.0000 
     60 H         -20.6253   18.8788   -9.3343 H         1 YFB999      0.0000 
     61 H         -13.6850   21.0392   -9.9335 H         1 YFB999      0.0000 
@<TRIPOS>BOND
     1    2    1 1    
     2   49    1 1    
     3   50    1 1    
     4   51    1 1    
     5    3    2 1    
     6    4    2 2    
     7   52    3 1    
     8   53    3 1    
     9   54    3 1    
    10    5    4 1    
    11   31    4 1    
    12    6    5 1    
    13   32    5 1    
    14   33    5 1    
    15    7    6 1    
    16   34    6 1    
    17   35    6 1    
    18    8    7 1    
    19    9    7 2    
    20   55    8 1    
    21   56    8 1    
    22   57    8 1    
    23   10    9 1    
    24   36    9 1    
    25   11   10 1    
    26   37   10 1    
    27   38   10 1    
    28   12   11 ar   
    29   16   11 ar   
    30   13   12 ar   
    31   14   12 1    
    32   22   13 ar   
    33   39   13 1    
    34   15   14 1    
    35   58   15 1    
    36   59   15 1    
    37   60   15 1    
    38   17   16 1    
    39   18   16 ar   
    40   61   17 1    
    41   19   18 1    
    42   22   18 ar   
    43   20   19 ar   
    44   21   19 ar   
    45   23   22 1    
    46   24   23 1    
    47   40   23 1    
    48   41   23 1    
    49   25   24 1    
    50   42   24 1    
    51   43   24 1    
    52   26   25 ar   
    53   30   25 ar   
    54   27   26 ar   
    55   44   26 1    
    56   28   27 ar   
    57   45   27 1    
    58   29   28 ar   
    59   46   28 1    
    60   30   29 ar   
    61   47   29 1    
    62   48   30 1    
@<TRIPOS>SUBSTRUCTURE
     1 YFB999      1 GROUP   
@<TRIPOS>SET

