#    Name: 3o96_IQO_1_INTS_M
#    Modification time : Tue Mar 25 03:23:26 2014

@<TRIPOS>MOLECULE
3o96_IQO_1_INTS_M
   78     0     6     0     0
SMALL
NO_CHARGES


@<TRIPOS>ATOM
      1 CA         15.2040  -13.0725   17.4025 C.3       2 GLC5        0.0000 
      2 CA         13.5130  -13.7950   16.3620 C.3       6 GLL5        0.0000 
      3 CA         16.8950  -12.3500   18.4430 C.3       4 GLP5        0.0000 
      4 CA          8.3235   -8.2830   18.3640 C.3       2 GLC5        0.0000 
      5 CA          8.6110   -9.3000   16.7700 C.3       6 GLL5        0.0000 
      6 CA          8.0360   -7.2660   19.9580 C.3       4 GLP5        0.0000 
      7 CA          5.0225   -6.0140    8.0485 C.3       2 GLC5        0.0000 
      8 CA          6.5400   -4.5740    7.5480 C.3       6 GLL5        0.0000 
      9 CA          3.5050   -7.4540    8.5490 C.3       4 GLP5        0.0000 
     10 CA         13.0965  -11.1530   14.9810 C.3       2 GLC5        0.0000 
     11 CA         12.4270  -12.8850   16.1870 C.3       6 GLL5        0.0000 
     12 CA         13.7660   -9.4210   13.7750 C.3       4 GLP5        0.0000 
     13 CA         11.5765   -8.6640   13.6580 C.3       2 GLC5        0.0000 
     14 CA          9.7930   -8.9450   14.5800 C.3       6 GLL5        0.0000 
     15 CA         13.3600   -8.3830   12.7360 C.3       4 GLP5        0.0000 
     16 CA         11.8175   -9.9530   14.0760 C.3       2 GLC5        0.0000 
     17 CA          9.8690  -10.4850   14.3770 C.3       6 GLL5        0.0000 
     18 CA          7.3455   -5.7225   16.0885 C.3       2 GLC5        0.0000 
     19 CA          8.6050   -7.0770   15.7110 C.3       6 GLL5        0.0000 
     20 CA          6.0860   -4.3680   16.4660 C.3       4 GLP5        0.0000 
     21 CA          8.3205   -7.1715   17.8345 C.3       2 GLC5        0.0000 
     22 CA          4.8455   -5.7105   11.4565 C.3       2 GLC5        0.0000 
     23 CA          6.6700   -5.7420   12.6900 C.3       6 GLL5        0.0000 
     24 CA          3.0210   -5.6790   10.2230 C.3       4 GLP5        0.0000 
     25 CA          4.8885   -4.7925    9.4990 C.3       2 GLC5        0.0000 
     26 CA          6.7560   -3.9060    8.7750 C.3       6 GLL5        0.0000 
     27 CA          5.0080   -2.1910   10.1125 C.3       2 GLC5        0.0000 
     28 CA          6.6780   -2.4870    8.8210 C.3       6 GLL5        0.0000 
     29 CA          3.3380   -1.8950   11.4040 C.3       4 GLP5        0.0000 
     30 N           6.1810   -0.5120    5.2865 N.am      1 SEC2        0.0000 
     31 N           5.8890   -1.9260    5.1950 N.am      5 SEL2        0.0000 
     32 N           6.4730    0.9020    5.3780 N.am      3 SEP2        0.0000 
     33 N           4.8440   -0.6775    5.1885 N.am      1 SEC2        0.0000 
     34 N           3.7990    0.5710    5.1820 N.am      3 SEP2        0.0000 
     35 CA          7.2135    1.6560   13.7205 C.3       2 GLC5        0.0000 
     36 CA          8.5750    0.1240   13.5570 C.3       6 GLL5        0.0000 
     37 CA          5.8520    3.1880   13.8840 C.3       4 GLP5        0.0000 
     38 CA         11.6148  -12.9855   14.1945 C.3       2 GLC5        0.0000 
     39 CA         11.1380  -13.3890   15.8190 C.3       6 GLL5        0.0000 
     40 CA         11.4470  -12.8340   12.3860 C.3       4 GLP5        0.0000 
     41 CA         11.6570  -14.7270   13.9553 C.3       2 GLC5        0.0000 
     42 CA         10.9270  -14.6950   15.6370 C.3       6 GLL5        0.0000 
     43 CA         11.8580  -14.2830   12.1910 C.3       4 GLP5        0.0000 
     44 CA         13.3953  -14.4570   14.2950 C.3       2 GLC5        0.0000 
     45 CA         13.2940  -15.1870   16.1700 C.3       6 GLL5        0.0000 
     46 CA         13.3870  -14.4230   12.3240 C.3       4 GLP5        0.0000 
     47 CA         10.6435  -11.8477   13.7157 C.3       2 GLC5        0.0000 
     48 CA          9.8110  -11.2380   15.7140 C.3       6 GLL5        0.0000 
     49 CA          6.5832  -10.2892   17.2297 C.3       2 GLC5        0.0000 
     50 CA          8.6200  -10.8110   16.5530 C.3       6 GLL5        0.0000 
     51 CA          4.5510  -10.5230   17.7980 C.3       4 GLP5        0.0000 
     52 CA          5.4075   -6.4450   14.5650 C.3       2 GLC5        0.0000 
     53 CA          3.9800   -6.7710   15.8760 C.3       4 GLP5        0.0000 
     54 CA          9.0309   -4.6789   10.2586 C.3       2 GLC5        0.0000 
     55 CA          8.7970   -4.5780   12.8750 C.3       6 GLL5        0.0000 
     56 CA         10.3450   -5.0230    8.7180 C.3       4 GLP5        0.0000 
     57 CA          4.4273   -2.4852    6.7070 C.3       2 GLC5        0.0000 
     58 CA          6.2560   -3.8230    6.3990 C.3       6 GLL5        0.0000 
     59 CA          2.6370   -1.8210    6.9960 C.3       4 GLP5        0.0000 
     60 CA          6.4260   -0.1450    6.7422 C.3       2 GLC5        0.0000 
     61 CA          6.1790   -2.4760    6.4370 C.3       6 GLL5        0.0000 
     62 CA          6.5690    1.8340    6.4430 C.3       4 GLP5        0.0000 
     63 CA          4.5847   -1.9752    7.6147 C.3       2 GLC5        0.0000 
     64 CA          6.3870   -1.7720    7.6460 C.3       6 GLL5        0.0000 
     65 CA          8.5040   -4.1932    8.6046 C.3       2 GLC5        0.0000 
     66 CA          5.3228   -2.1902   11.5636 C.3       2 GLC5        0.0000 
     67 CA          7.2500   -3.9930   11.0540 C.3       6 GLL5        0.0000 
     68 CA          6.9695   -0.5597   16.7223 C.3       2 GLC5        0.0000 
     69 CA          6.9580   -1.3280   14.7720 C.3       6 GLL5        0.0000 
     70 CA          6.5140   -0.3440   18.6790 C.3       4 GLP5        0.0000 
     71 CA          9.9561   -0.9205   14.2981 C.3       2 GLC5        0.0000 
     72 CA          7.8920   -0.2230   14.7590 C.3       6 GLL5        0.0000 
     73 CA         11.7370   -1.6070   14.7360 C.3       4 GLP5        0.0000 
     74 CA          4.9730   -2.1000   13.9990 C.3       2 GLC5        0.0000 
     75 CA          3.1090   -2.4990   13.8200 C.3       4 GLP5        0.0000 
     76 CA          5.8378    0.0116   14.6729 C.3       2 GLC5        0.0000 
     77 CA          6.7160   -2.0740   13.5840 C.3       6 GLL5        0.0000 
     78 CA          4.6050    1.4480   15.1710 C.3       4 GLP5        0.0000 
@<TRIPOS>BOND
@<TRIPOS>SUBSTRUCTURE
     1 SEC2       30 GROUP        1 X    SEC  0     ROOT SEC X 2
     2 GLC5        1 GROUP        1 X    GLC  0     **** GLC X 6
     3 SEP2       32 GROUP        1 Y    SEP  0     ROOT SEP Y 9
     4 GLP5        3 GROUP        1 Y    GLP  0     **** GLP Y 13
     5 SEL2       31 GROUP        1 Z    SEL  0     ROOT SEL Z 16
     6 GLL5        2 GROUP        1 Z    GLL  0     **** GLL Z 20
@<TRIPOS>SET

