#    Name: 3o96_IQO_1_ligand
#    Modification time : Tue Mar 25 03:23:26 2014

@<TRIPOS>MOLECULE
3o96_IQO_1_ligand
   72    79     1     0     0
SMALL
NO_CHARGES


@<TRIPOS>ATOM
      1 C4         11.1380  -13.3890   15.8190 C.ar      1 IQO444      0.0000 
      2 C6         11.9850  -15.6470   15.8020 C.ar      1 IQO444      0.0000 
      3 C7         13.2940  -15.1870   16.1700 C.ar      1 IQO444      0.0000 
      4 C8         13.5130  -13.7950   16.3620 C.ar      1 IQO444      0.0000 
      5 C13         9.8110  -11.2380   15.7140 C.3       1 IQO444      0.0000 
      6 C15         8.6110   -9.3000   16.7700 C.3       1 IQO444      0.0000 
      7 C17         8.2400   -6.2780   14.4700 C.ar      1 IQO444      0.0000 
      8 C20         7.5700   -4.7750   12.2140 C.ar      1 IQO444      0.0000 
      9 C21         8.7970   -4.5780   12.8750 C.ar      1 IQO444      0.0000 
     10 C22         9.1170   -5.3210   13.9850 C.ar      1 IQO444      0.0000 
     11 C24         7.1680   -2.4950   11.1050 C.ar      1 IQO444      0.0000 
     12 C28         6.5400   -4.5740    7.5480 C.ar      1 IQO444      0.0000 
     13 C1          8.9770  -13.6480   15.2640 C.2       1 IQO444      0.0000 
     14 N2          9.5830  -14.9000   15.2860 N.am      1 IQO444      0.0000 
     15 C3         10.9270  -14.6950   15.6370 C.ar      1 IQO444      0.0000 
     16 N5          9.9490  -12.6980   15.5980 N.am      1 IQO444      0.0000 
     17 C9         12.4270  -12.8850   16.1870 C.ar      1 IQO444      0.0000 
     18 O10         7.7930  -13.4170   14.9990 O.2       1 IQO444      0.0000 
     19 C11         9.7930   -8.9450   14.5800 C.3       1 IQO444      0.0000 
     20 C12         9.8690  -10.4850   14.3770 C.3       1 IQO444      0.0000 
     21 C14         8.6200  -10.8110   16.5530 C.3       1 IQO444      0.0000 
     22 C16         8.6050   -7.0770   15.7110 C.3       1 IQO444      0.0000 
     23 C18         7.0000   -6.4960   13.8180 C.ar      1 IQO444      0.0000 
     24 C19         6.6700   -5.7420   12.6900 C.ar      1 IQO444      0.0000 
     25 N23         6.8810   -1.8030    9.9760 N.ar      1 IQO444      0.0000 
     26 C25         7.2500   -3.9930   11.0540 C.ar      1 IQO444      0.0000 
     27 N26         7.0380   -4.6360    9.8830 N.ar      1 IQO444      0.0000 
     28 C27         6.7560   -3.9060    8.7750 C.ar      1 IQO444      0.0000 
     29 C29         6.2560   -3.8230    6.3990 C.ar      1 IQO444      0.0000 
     30 C30         6.1790   -2.4760    6.4370 C.ar      1 IQO444      0.0000 
     31 C31         6.3870   -1.7720    7.6460 C.ar      1 IQO444      0.0000 
     32 C32         6.6780   -2.4870    8.8210 C.ar      1 IQO444      0.0000 
     33 C33         5.8010   -3.0280    4.4380 C.2       1 IQO444      0.0000 
     34 N34         6.0080   -4.1850    5.0890 N.pl3     1 IQO444      0.0000 
     35 N35         5.8890   -1.9260    5.1950 N.2       1 IQO444      0.0000 
     36 C36         7.4060   -1.7270   12.3670 C.ar      1 IQO444      0.0000 
     37 C37         8.3420   -0.6140   12.3660 C.ar      1 IQO444      0.0000 
     38 C38         8.5750    0.1240   13.5570 C.ar      1 IQO444      0.0000 
     39 C39         7.8920   -0.2230   14.7590 C.ar      1 IQO444      0.0000 
     40 C40         6.9580   -1.3280   14.7720 C.ar      1 IQO444      0.0000 
     41 C41         6.7160   -2.0740   13.5840 C.ar      1 IQO444      0.0000 
     42 N42         8.6610   -8.5360   15.4810 N.4       1 IQO444      0.0000 
     43 H          11.8129  -16.6312   15.6612 H         1 IQO444      0.0000 
     44 H          14.0473  -15.8494   16.2898 H         1 IQO444      0.0000 
     45 H          14.4290  -13.4503   16.6202 H         1 IQO444      0.0000 
     46 H          10.7268  -10.8653   16.2953 H         1 IQO444      0.0000 
     47 H           9.4732   -9.0294   17.3956 H         1 IQO444      0.0000 
     48 H           7.7025   -9.0301   17.3266 H         1 IQO444      0.0000 
     49 H           9.4502   -3.8671   12.5115 H         1 IQO444      0.0000 
     50 H          10.0210   -5.1686   14.4678 H         1 IQO444      0.0000 
     51 H           6.5913   -5.5894    7.5049 H         1 IQO444      0.0000 
     52 H           9.1792  -15.7249   15.1032 H         1 IQO444      0.0000 
     53 H          12.5648  -11.8922   16.3213 H         1 IQO444      0.0000 
     54 H           9.6777   -8.4780   13.5949 H         1 IQO444      0.0000 
     55 H          10.7486   -8.6105   15.0004 H         1 IQO444      0.0000 
     56 H           9.0344  -10.7951   13.7503 H         1 IQO444      0.0000 
     57 H          10.8011  -10.7233   13.8673 H         1 IQO444      0.0000 
     58 H           8.6608  -11.3108   17.5225 H         1 IQO444      0.0000 
     59 H           7.6971  -11.1051   16.0498 H         1 IQO444      0.0000 
     60 H           7.8663   -6.8466   16.5030 H         1 IQO444      0.0000 
     61 H           9.5828   -6.7146   16.0832 H         1 IQO444      0.0000 
     62 H           6.3583   -7.2028   14.1788 H         1 IQO444      0.0000 
     63 H           5.7791   -5.8905   12.2110 H         1 IQO444      0.0000 
     64 H           6.3257   -0.7561    7.6613 H         1 IQO444      0.0000 
     65 H           5.5939   -2.9934    3.4481 H         1 IQO444      0.0000 
     66 H           5.9926   -5.0611    4.7488 H         1 IQO444      0.0000 
     67 H           8.8222   -0.3759   11.5051 H         1 IQO444      0.0000 
     68 H           9.2310    0.9031   13.5544 H         1 IQO444      0.0000 
     69 H           8.0547    0.3004   15.6127 H         1 IQO444      0.0000 
     70 H           6.4795   -1.5636   15.6351 H         1 IQO444      0.0000 
     71 H           6.0623   -2.8478   13.5858 H         1 IQO444      0.0000 
     72 H           7.7049   -8.8058   14.9248 H         1 IQO444      0.0000 
@<TRIPOS>BOND
     1   15    1 ar   
     2   16    1 1    
     3   17    1 ar   
     4    3    2 ar   
     5   15    2 ar   
     6   43    2 1    
     7    4    3 ar   
     8   44    3 1    
     9   17    4 ar   
    10   45    4 1    
    11   16    5 1    
    12   20    5 1    
    13   21    5 1    
    14   46    5 1    
    15   21    6 1    
    16   42    6 1    
    17   47    6 1    
    18   48    6 1    
    19   10    7 ar   
    20   22    7 1    
    21   23    7 ar   
    22    9    8 ar   
    23   24    8 ar   
    24   26    8 1    
    25   10    9 ar   
    26   49    9 1    
    27   50   10 1    
    28   25   11 ar   
    29   26   11 ar   
    30   36   11 1    
    31   28   12 ar   
    32   29   12 ar   
    33   51   12 1    
    34   14   13 am   
    35   16   13 am   
    36   18   13 2    
    37   15   14 1    
    38   52   14 1    
    39   53   17 1    
    40   20   19 1    
    41   42   19 1    
    42   54   19 1    
    43   55   19 1    
    44   56   20 1    
    45   57   20 1    
    46   58   21 1    
    47   59   21 1    
    48   42   22 1    
    49   60   22 1    
    50   61   22 1    
    51   24   23 ar   
    52   62   23 1    
    53   63   24 1    
    54   32   25 ar   
    55   27   26 ar   
    56   28   27 ar   
    57   32   28 ar   
    58   30   29 ar   
    59   34   29 1    
    60   31   30 ar   
    61   35   30 1    
    62   32   31 ar   
    63   64   31 1    
    64   34   33 1    
    65   35   33 2    
    66   65   33 1    
    67   66   34 1    
    68   37   36 ar   
    69   41   36 ar   
    70   38   37 ar   
    71   67   37 1    
    72   39   38 ar   
    73   68   38 1    
    74   40   39 ar   
    75   69   39 1    
    76   41   40 ar   
    77   70   40 1    
    78   71   41 1    
    79   72   42 1    
@<TRIPOS>SUBSTRUCTURE
     1 IQO444      1 GROUP   
@<TRIPOS>SET

