#    Name: 2gv8_FAD_1_INTS_M
#    Modification time : Tue Mar 25 15:08:02 2014

@<TRIPOS>MOLECULE
2gv8_FAD_1_INTS_M
  128     0     9     0     0
SMALL
NO_CHARGES


@<TRIPOS>ATOM
      1 N          -0.0395   -4.5370  -12.5940 N.am      2 SEC2        0.0000 
      2 N           0.2510   -5.2620  -13.8700 N.am      8 SEL2        0.0000 
      3 N          -0.3300   -3.8120  -11.3180 N.am      5 SEP2        0.0000 
      4 CA         -1.1560   -2.9010  -18.7195 C.3       3 GLC5        0.0000 
      5 CA         -0.5080   -2.8950  -16.7400 C.3       9 GLL5        0.0000 
      6 CA         -1.8040   -2.9070  -20.6990 C.3       6 GLP5        0.0000 
      7 CA         -1.5775   -4.4350  -17.6730 C.3       3 GLC5        0.0000 
      8 CA         -2.6470   -5.9750  -18.6060 C.3       6 GLP5        0.0000 
      9 CA          0.8415   -0.6205  -18.0900 C.3       3 GLC5        0.0000 
     10 CA         -0.1700   -1.4400  -16.5250 C.3       9 GLL5        0.0000 
     11 CA          1.8530    0.1990  -19.6550 C.3       6 GLP5        0.0000 
     12 N          -1.1080   -0.1490  -13.6070 N.am      2 SEC2        0.0000 
     13 N           0.0440    0.0060  -14.6180 N.am      8 SEL2        0.0000 
     14 N          -2.2600   -0.3040  -12.5960 N.am      5 SEP2        0.0000 
     15 N           1.1425    0.4170  -13.7995 N.am      2 SEC2        0.0000 
     16 N           2.2410    0.8280  -12.9810 N.am      5 SEP2        0.0000 
     17 O           0.8680    0.8100  -15.1945 O.2       1 ALC1        0.0000 
     18 O           0.0440    0.0060  -14.6180 O.2       7 ALL1        0.0000 
     19 O           1.6920    1.6140  -15.7710 O.2       4 ALP1        0.0000 
     20 O          -1.1815    2.0600  -15.2065 O.2       1 ALC1        0.0000 
     21 O          -2.4410    1.2140  -15.4370 O.2       7 ALL1        0.0000 
     22 O           0.0780    2.9060  -14.9760 O.2       4 ALP1        0.0000 
     23 CA          0.3160    0.3545  -18.5055 C.3       3 GLC5        0.0000 
     24 CA         -1.2210    0.5100  -17.3560 C.3       9 GLL5        0.0000 
     25 CA         -3.8260    2.7945  -18.3100 C.3       3 GLC5        0.0000 
     26 CA         -3.1440    1.9680  -20.0950 C.3       9 GLL5        0.0000 
     27 CA         -4.5080    3.6210  -16.5250 C.3       6 GLP5        0.0000 
     28 CA         -3.0100   -0.1365  -20.8300 C.3       3 GLC5        0.0000 
     29 CA         -2.8760   -2.2410  -21.5650 C.3       6 GLP5        0.0000 
     30 CA         -2.7210    4.1930  -22.6060 C.3       3 GLC5        0.0000 
     31 CA         -3.3580    3.1090  -20.9170 C.3       9 GLL5        0.0000 
     32 CA         -2.0840    5.2770  -24.2950 C.3       6 GLP5        0.0000 
     33 O          -4.6455    4.3120  -22.8865 O.2       1 ALC1        0.0000 
     34 O          -4.2920    3.1400  -21.8860 O.2       7 ALL1        0.0000 
     35 O          -4.9990    5.4840  -23.8870 O.2       4 ALP1        0.0000 
     36 N          -2.7040    5.4380  -21.5220 N.am      2 SEC2        0.0000 
     37 N          -2.5810    4.2280  -20.6910 N.am      8 SEL2        0.0000 
     38 N          -2.8270    6.6480  -22.3530 N.am      5 SEP2        0.0000 
     39 CA          0.0280    4.4840  -18.7115 C.3       3 GLC5        0.0000 
     40 CA         -1.6310    4.2310  -19.7230 C.3       9 GLL5        0.0000 
     41 CA          1.6870    4.7370  -17.7000 C.3       6 GLP5        0.0000 
     42 CA         -2.2900    4.9540  -18.1840 C.3       3 GLC5        0.0000 
     43 CA         -2.9490    5.6770  -16.6450 C.3       6 GLP5        0.0000 
     44 CA         -2.3900    6.0225  -19.9760 C.3       3 GLC5        0.0000 
     45 CA         -3.1490    7.8140  -20.2290 C.3       6 GLP5        0.0000 
     46 N          -0.9300    4.2690  -17.9050 N.am      2 SEC2        0.0000 
     47 N          -1.3400    3.1520  -18.8670 N.am      8 SEL2        0.0000 
     48 N          -0.5200    5.3860  -16.9430 N.am      5 SEP2        0.0000 
     49 CA         -0.1725    1.1230  -19.4175 C.3       3 GLC5        0.0000 
     50 CA         -2.1980    2.0470  -19.1800 C.3       9 GLL5        0.0000 
     51 CA         -2.6385    3.1185  -17.7730 C.3       3 GLC5        0.0000 
     52 CA         -3.0790    4.1900  -16.3660 C.3       6 GLP5        0.0000 
     53 O           2.9175  -15.1310   -8.5150 O.2       1 ALC1        0.0000 
     54 O           1.9840  -14.0310   -8.7930 O.2       7 ALL1        0.0000 
     55 O           3.8510  -16.2310   -8.2370 O.2       4 ALP1        0.0000 
     56 N           0.7835  -15.4870   -6.0955 N.am      2 SEC2        0.0000 
     57 N           0.8610  -14.1420   -6.7740 N.am      8 SEL2        0.0000 
     58 N           0.7060  -16.8320   -5.4170 N.am      5 SEP2        0.0000 
     59 CA         -6.6370   -8.3555   -8.0240 C.3       3 GLC5        0.0000 
     60 CA         -5.6810  -10.2760   -7.3460 C.3       9 GLL5        0.0000 
     61 CA         -7.5930   -6.4350   -8.7020 C.3       6 GLP5        0.0000 
     62 CA         -6.4010  -10.8955   -5.3260 C.3       3 GLC5        0.0000 
     63 CA         -7.1210  -11.5150   -3.3060 C.3       6 GLP5        0.0000 
     64 CA         -6.0070  -12.2975   -7.5995 C.3       3 GLC5        0.0000 
     65 CA         -6.3330  -14.3190   -7.8530 C.3       6 GLP5        0.0000 
     66 CA         -5.8255   -9.0580  -12.1655 C.3       3 GLC5        0.0000 
     67 CA         -5.4310   -9.4340  -10.2900 C.3       9 GLL5        0.0000 
     68 CA         -6.2200   -8.6820  -14.0410 C.3       6 GLP5        0.0000 
     69 CA         -5.5435  -11.5610  -11.0100 C.3       3 GLC5        0.0000 
     70 CA         -5.6560  -13.6880  -11.7300 C.3       6 GLP5        0.0000 
     71 CA         -2.5015  -11.6475  -13.2640 C.3       3 GLC5        0.0000 
     72 CA         -0.8530  -11.4560  -11.9030 C.3       9 GLL5        0.0000 
     73 CA         -4.1500  -11.8390  -14.6250 C.3       6 GLP5        0.0000 
     74 CA          0.5060  -12.6585  -12.9055 C.3       3 GLC5        0.0000 
     75 CA          1.8650  -13.8610  -13.9080 C.3       6 GLP5        0.0000 
     76 CA         -0.6585   -8.3575  -11.3850 C.3       3 GLC5        0.0000 
     77 CA         -0.3910  -10.1080  -12.3330 C.3       9 GLL5        0.0000 
     78 CA         -0.9260   -6.6070  -10.4370 C.3       6 GLP5        0.0000 
     79 CA          2.0100  -11.5180  -13.5065 C.3       3 GLC5        0.0000 
     80 CA          1.0690  -10.0620  -12.6780 C.3       9 GLL5        0.0000 
     81 CA          2.9510  -12.9740  -14.3350 C.3       6 GLP5        0.0000 
     82 N           2.1255   -9.1785  -10.6470 N.am      2 SEC2        0.0000 
     83 N           1.9140  -10.3220  -11.5790 N.am      8 SEL2        0.0000 
     84 N           2.3370   -8.0350   -9.7150 N.am      5 SEP2        0.0000 
     85 CA          3.0885   -7.6640  -13.1175 C.3       3 GLC5        0.0000 
     86 CA          1.6270   -8.7550  -13.2030 C.3       9 GLL5        0.0000 
     87 CA          4.5500   -6.5730  -13.0320 C.3       6 GLP5        0.0000 
     88 CA          0.3505   -7.6810  -11.8200 C.3       3 GLC5        0.0000 
     89 CA          2.1545   -7.7345  -11.4025 C.3       3 GLC5        0.0000 
     90 CA          2.6820   -6.7140   -9.6020 C.3       6 GLP5        0.0000 
     91 N           1.5405   -7.8520  -11.2445 N.am      2 SEC2        0.0000 
     92 N           0.7440   -7.6690  -12.7740 N.am      8 SEL2        0.0000 
     93 CA          3.4910   -8.0185  -14.4430 C.3       3 GLC5        0.0000 
     94 CA          1.7410   -8.7880  -14.6820 C.3       9 GLL5        0.0000 
     95 CA          5.2410   -7.2490  -14.2040 C.3       6 GLP5        0.0000 
     96 CA          2.3460  -10.8810  -14.5085 C.3       3 GLC5        0.0000 
     97 N           3.7105   -5.9625  -17.1530 N.am      2 SEC2        0.0000 
     98 N           2.3900   -5.4920  -17.0040 N.am      8 SEL2        0.0000 
     99 N           5.0310   -6.4330  -17.3020 N.am      5 SEP2        0.0000 
    100 N           2.3230   -7.9615  -18.3445 N.am      2 SEC2        0.0000 
    101 N           1.1860   -7.5420  -17.7900 N.am      8 SEL2        0.0000 
    102 N           3.4600   -8.3810  -18.8990 N.am      5 SEP2        0.0000 
    103 CA          1.6620   -2.5217  -15.9402 C.3       3 GLC5        0.0000 
    104 CA          3.6630   -2.8760  -15.2480 C.3       6 GLP5        0.0000 
    105 CA          0.3183   -1.7252  -14.2510 C.3       3 GLC5        0.0000 
    106 CA          1.1770   -2.3670  -12.5540 C.3       6 GLP5        0.0000 
    107 CA         -2.3215    2.2462  -16.5373 C.3       3 GLC5        0.0000 
    108 CA         -1.9070    0.0950  -16.0610 C.3       9 GLL5        0.0000 
    109 CA         -1.9315    2.0362  -22.0965 C.3       3 GLC5        0.0000 
    110 CA         -0.6120    1.5340  -23.6870 C.3       6 GLP5        0.0000 
    111 CA         -2.7140   -9.8848   -7.2133 C.3       3 GLC5        0.0000 
    112 CA         -2.2670  -11.8160   -8.4030 C.3       9 GLL5        0.0000 
    113 CA         -2.5840   -8.1460   -6.3890 C.3       6 GLP5        0.0000 
    114 CA         -3.7215  -12.9688   -8.8898 C.3       3 GLC5        0.0000 
    115 CA         -3.4210  -11.4310   -7.6720 C.3       9 GLL5        0.0000 
    116 CA         -4.5990  -14.3140   -9.7420 C.3       6 GLP5        0.0000 
    117 CA         -4.5135  -12.3872   -9.3242 C.3       3 GLC5        0.0000 
    118 CA         -4.4830  -10.6560   -8.2290 C.3       9 GLL5        0.0000 
    119 CA         -4.1777  -10.7389   -5.8786 C.3       3 GLC5        0.0000 
    120 CA         -3.5390  -10.8180   -4.1090 C.3       6 GLP5        0.0000 
    121 CA         -5.6280   -8.0562   -9.7300 C.3       3 GLC5        0.0000 
    122 CA         -4.3730  -10.2650   -9.5840 C.3       9 GLL5        0.0000 
    123 CA         -6.3540   -6.2630   -9.5230 C.3       6 GLP5        0.0000 
    124 CA         -3.6558   -9.2558   -7.5374 C.3       3 GLC5        0.0000 
    125 CA         -3.6635  -12.6582   -9.9153 C.3       3 GLC5        0.0000 
    126 CA         -3.2550  -10.6200  -10.3680 C.3       9 GLL5        0.0000 
    127 CA          3.2820   -9.6867  -12.4238 C.3       3 GLC5        0.0000 
    128 CA          5.2160   -9.9650  -11.9070 C.3       6 GLP5        0.0000 
@<TRIPOS>BOND
@<TRIPOS>SUBSTRUCTURE
     1 ALC1       17 GROUP        1 X    ALC  0     ROOT ALC X 1
     2 SEC2        1 GROUP        1 X    SEC  0     **** SEC X 2
     3 GLC5        4 GROUP        1 X    GLC  0     **** GLC X 6
     4 ALP1       19 GROUP        1 Y    ALP  0     ROOT ALP Y 8
     5 SEP2        3 GROUP        1 Y    SEP  0     **** SEP Y 9
     6 GLP5        6 GROUP        1 Y    GLP  0     **** GLP Y 13
     7 ALL1       18 GROUP        1 Z    ALL  0     ROOT ALL Z 15
     8 SEL2        2 GROUP        1 Z    SEL  0     **** SEL Z 16
     9 GLL5        5 GROUP        1 Z    GLL  0     **** GLL Z 20
@<TRIPOS>SET

