#    Name: 2gv8_FAD_1_ligand
#    Modification time : Tue Mar 25 15:08:02 2014

@<TRIPOS>MOLECULE
2gv8_FAD_1_ligand
   84    89     1     0     0
SMALL
NO_CHARGES


@<TRIPOS>ATOM
      1 PA         -0.4740   -4.9930  -15.1270 P.3       1 FAD500      0.0000 
      2 O1A        -1.9600   -5.0180  -15.0980 O.co2     1 FAD500      0.0000 
      3 O2A         0.2510   -5.2620  -13.8700 O.co2     1 FAD500      0.0000 
      4 O5B         0.0710   -3.6040  -15.6460 O.3       1 FAD500      0.0000 
      5 C5B        -0.5080   -2.8950  -16.7400 C.3       1 FAD500      0.0000 
      6 C4B        -0.1700   -1.4400  -16.5250 C.3       1 FAD500      0.0000 
      7 O4B        -0.4410   -0.6340  -17.7170 O.3       1 FAD500      0.0000 
      8 C3B        -0.9110   -0.7270  -15.3710 C.3       1 FAD500      0.0000 
      9 O3B         0.0440    0.0060  -14.6180 O.3       1 FAD500      0.0000 
     10 C2B        -1.9070    0.0950  -16.0610 C.3       1 FAD500      0.0000 
     11 O2B        -2.4410    1.2140  -15.4370 O.3       1 FAD500      0.0000 
     12 C1B        -1.2210    0.5100  -17.3560 C.3       1 FAD500      0.0000 
     13 N9A        -2.1000    0.8420  -18.4390 N.pl3     1 FAD500      0.0000 
     14 C8A        -3.1110    0.0840  -19.0720 C.2       1 FAD500      0.0000 
     15 N7A        -3.7270    0.7100  -20.0390 N.2       1 FAD500      0.0000 
     16 C5A        -3.1440    1.9680  -20.0950 C.ar      1 FAD500      0.0000 
     17 C6A        -3.3580    3.1090  -20.9170 C.ar      1 FAD500      0.0000 
     18 N6A        -4.2920    3.1400  -21.8860 N.pl3     1 FAD500      0.0000 
     19 N1A        -2.5810    4.2280  -20.6910 N.ar      1 FAD500      0.0000 
     20 C2A        -1.6310    4.2310  -19.7230 C.ar      1 FAD500      0.0000 
     21 N3A        -1.3400    3.1520  -18.8670 N.ar      1 FAD500      0.0000 
     22 C4A        -2.1980    2.0470  -19.1800 C.ar      1 FAD500      0.0000 
     23 N1          1.1270  -12.8830  -10.6930 N.2       1 FAD500      0.0000 
     24 C2          2.1330  -13.6370  -10.1000 C.2       1 FAD500      0.0000 
     25 O2          3.1580  -13.9490  -10.7220 O.2       1 FAD500      0.0000 
     26 N3          1.9840  -14.0310   -8.7930 N.am      1 FAD500      0.0000 
     27 C4          0.8750  -13.7170   -7.9640 C.2       1 FAD500      0.0000 
     28 O4          0.8610  -14.1420   -6.7740 O.2       1 FAD500      0.0000 
     29 C4X        -0.1150  -12.9470   -8.5620 C.2       1 FAD500      0.0000 
     30 N5         -1.2530  -12.5930   -7.7660 N.2       1 FAD500      0.0000 
     31 C5X        -2.2670  -11.8160   -8.4030 C.ar      1 FAD500      0.0000 
     32 C6         -3.4210  -11.4310   -7.6720 C.ar      1 FAD500      0.0000 
     33 C7         -4.4830  -10.6560   -8.2290 C.ar      1 FAD500      0.0000 
     34 C7M        -5.6810  -10.2760   -7.3460 C.3       1 FAD500      0.0000 
     35 C8         -4.3730  -10.2650   -9.5840 C.ar      1 FAD500      0.0000 
     36 C8M        -5.4310   -9.4340  -10.2900 C.3       1 FAD500      0.0000 
     37 C9         -3.2550  -10.6200  -10.3680 C.ar      1 FAD500      0.0000 
     38 C9A        -2.2010  -11.3850   -9.8090 C.ar      1 FAD500      0.0000 
     39 N10        -0.9750  -11.8090  -10.5270 N.pl3     1 FAD500      0.0000 
     40 C10         0.0200  -12.5480   -9.9270 C.2       1 FAD500      0.0000 
     41 C1'        -0.8530  -11.4560  -11.9030 C.3       1 FAD500      0.0000 
     42 C2'        -0.3910  -10.1080  -12.3330 C.3       1 FAD500      0.0000 
     43 O2'        -1.1730   -9.8460  -13.5230 O.3       1 FAD500      0.0000 
     44 C3'         1.0690  -10.0620  -12.6780 C.3       1 FAD500      0.0000 
     45 O3'         1.9140  -10.3220  -11.5790 O.3       1 FAD500      0.0000 
     46 C4'         1.6270   -8.7550  -13.2030 C.3       1 FAD500      0.0000 
     47 O4'         0.7440   -7.6690  -12.7740 O.3       1 FAD500      0.0000 
     48 C5'         1.7410   -8.7880  -14.6820 C.3       1 FAD500      0.0000 
     49 O5'         1.5060   -7.5110  -15.2260 O.3       1 FAD500      0.0000 
     50 P           1.4130   -6.5280  -16.7370 P.3       1 FAD500      0.0000 
     51 O1P         2.3900   -5.4920  -17.0040 O.co2     1 FAD500      0.0000 
     52 O2P         1.1860   -7.5420  -17.7900 O.co2     1 FAD500      0.0000 
     53 O3P        -0.0130   -6.0430  -16.2190 O.3       1 FAD500      0.0000 
     54 H          -1.5868   -2.9980  -16.7629 H         1 FAD500      0.0000 
     55 H          -0.0917   -3.2083  -17.6905 H         1 FAD500      0.0000 
     56 H           0.9083   -1.3490  -16.3022 H         1 FAD500      0.0000 
     57 H          -1.3922   -1.4971  -14.8071 H         1 FAD500      0.0000 
     58 H          -2.7197   -0.5962  -16.4127 H         1 FAD500      0.0000 
     59 H          -0.5491    1.3272  -17.1193 H         1 FAD500      0.0000 
     60 H          -3.2979   -0.8506  -18.7645 H         1 FAD500      0.0000 
     61 H          -4.3705    3.9977  -22.3942 H         1 FAD500      0.0000 
     62 H          -4.8242    2.3027  -22.0111 H         1 FAD500      0.0000 
     63 H          -1.0456    5.1137  -19.5829 H         1 FAD500      0.0000 
     64 H           2.7513  -14.6194   -8.3492 H         1 FAD500      0.0000 
     65 H          -3.5007  -11.7278   -6.6762 H         1 FAD500      0.0000 
     66 H          -3.2022  -10.3247  -11.3463 H         1 FAD500      0.0000 
     67 H          -1.8568  -11.6537  -12.4380 H         1 FAD500      0.0000 
     68 H          -0.1804  -12.2278  -12.4367 H         1 FAD500      0.0000 
     69 H          -0.6254   -9.3925  -11.5810 H         1 FAD500      0.0000 
     70 H           1.2845  -10.8202  -13.4593 H         1 FAD500      0.0000 
     71 H           2.6103   -8.6145  -12.7677 H         1 FAD500      0.0000 
     72 H           1.0206   -9.5325  -15.0712 H         1 FAD500      0.0000 
     73 H           2.7488   -9.1613  -14.9463 H         1 FAD500      0.0000 
     74 H          -5.4011   -9.7347   -6.5531 H         1 FAD500      0.0000 
     75 H          -6.3550   -9.7339   -7.8478 H         1 FAD500      0.0000 
     76 H          -6.1559  -11.0837   -6.9966 H         1 FAD500      0.0000 
     77 H          -5.5638   -8.5475   -9.8468 H         1 FAD500      0.0000 
     78 H          -5.1858   -9.2518  -11.2422 H         1 FAD500      0.0000 
     79 H          -6.3192   -9.8933  -10.2987 H         1 FAD500      0.0000 
     80 H           0.5235    0.5716  -15.2889 H         1 FAD500      0.0000 
     81 H          -1.7629    1.9358  -15.5756 H         1 FAD500      0.0000 
     82 H          -0.9190   -8.9195  -13.8007 H         1 FAD500      0.0000 
     83 H           1.6823  -11.2504  -11.2884 H         1 FAD500      0.0000 
     84 H           0.8461   -6.9612  -13.4730 H         1 FAD500      0.0000 
@<TRIPOS>BOND
     1    2    1 ar   
     2    3    1 ar   
     3    4    1 1    
     4   53    1 1    
     5    5    4 1    
     6    6    5 1    
     7   54    5 1    
     8   55    5 1    
     9    7    6 1    
    10    8    6 1    
    11   56    6 1    
    12   12    7 1    
    13    9    8 1    
    14   10    8 1    
    15   57    8 1    
    16   80    9 1    
    17   11   10 1    
    18   12   10 1    
    19   58   10 1    
    20   81   11 1    
    21   13   12 1    
    22   59   12 1    
    23   14   13 1    
    24   22   13 1    
    25   15   14 2    
    26   60   14 1    
    27   16   15 1    
    28   17   16 ar   
    29   22   16 ar   
    30   18   17 1    
    31   19   17 ar   
    32   61   18 1    
    33   62   18 1    
    34   20   19 ar   
    35   21   20 ar   
    36   63   20 1    
    37   22   21 ar   
    38   24   23 1    
    39   40   23 2    
    40   25   24 2    
    41   26   24 am   
    42   27   26 am   
    43   64   26 1    
    44   28   27 2    
    45   29   27 1    
    46   30   29 2    
    47   40   29 1    
    48   31   30 1    
    49   32   31 ar   
    50   38   31 ar   
    51   33   32 ar   
    52   65   32 1    
    53   34   33 1    
    54   35   33 ar   
    55   74   34 1    
    56   75   34 1    
    57   76   34 1    
    58   36   35 1    
    59   37   35 ar   
    60   77   36 1    
    61   78   36 1    
    62   79   36 1    
    63   38   37 ar   
    64   66   37 1    
    65   39   38 1    
    66   40   39 1    
    67   41   39 1    
    68   42   41 1    
    69   67   41 1    
    70   68   41 1    
    71   43   42 1    
    72   44   42 1    
    73   69   42 1    
    74   82   43 1    
    75   45   44 1    
    76   46   44 1    
    77   70   44 1    
    78   83   45 1    
    79   47   46 1    
    80   48   46 1    
    81   71   46 1    
    82   84   47 1    
    83   49   48 1    
    84   72   48 1    
    85   73   48 1    
    86   50   49 1    
    87   51   50 ar   
    88   52   50 ar   
    89   53   50 1    
@<TRIPOS>SUBSTRUCTURE
     1 FAD500      1 GROUP   
@<TRIPOS>SET

