#    Name: 3e6o_A55_2_INTS_M
#    Modification time : Tue Mar 25 01:00:32 2014

@<TRIPOS>MOLECULE
3e6o_A55_2_INTS_M
   33     0     9     0     0
SMALL
NO_CHARGES


@<TRIPOS>ATOM
      1 CA        123.5125  111.2105   94.0490 C.3       3 GLC5        0.0000 
      2 CA        125.2460  111.9730   94.5810 C.3       9 GLL5        0.0000 
      3 CA        121.7790  110.4480   93.5170 C.3       6 GLP5        0.0000 
      4 CA        127.4935  109.4915   92.5975 C.3       3 GLC5        0.0000 
      5 CA        128.1520  111.0830   92.5080 C.3       9 GLL5        0.0000 
      6 CA        126.8350  107.9000   92.6870 C.3       6 GLP5        0.0000 
      7 O         127.3760  117.1570   92.1490 O.2       1 ALC1        0.0000 
      8 O         126.9760  115.9260   92.2110 O.2       7 ALL1        0.0000 
      9 O         127.7760  118.3880   92.0870 O.2       4 ALP1        0.0000 
     10 O         126.1965  117.6345   94.0090 O.2       1 ALC1        0.0000 
     11 O         125.7080  116.3010   94.1150 O.2       7 ALL1        0.0000 
     12 O         126.6850  118.9680   93.9030 O.2       4 ALP1        0.0000 
     13 CA        127.0325  112.3820   90.0570 C.3       3 GLC5        0.0000 
     14 CA        126.7000  114.3160   90.2380 C.3       9 GLL5        0.0000 
     15 CA        127.3650  110.4480   89.8760 C.3       6 GLP5        0.0000 
     16 N         124.5525  117.1505   86.0170 N.am      2 SEC2        0.0000 
     17 N         125.2960  116.4480   86.8930 N.am      8 SEL2        0.0000 
     18 N         123.8090  117.8530   85.1410 N.am      5 SEP2        0.0000 
     19 CA        122.8635  115.3625   95.5995 C.3       3 GLC5        0.0000 
     20 CA        124.3200  114.1150   95.0130 C.3       9 GLL5        0.0000 
     21 CA        121.4070  116.6100   96.1860 C.3       6 GLP5        0.0000 
     22 CA        123.5255  114.8222   93.7892 C.3       3 GLC5        0.0000 
     23 CA        122.2680  115.9010   92.8740 C.3       6 GLP5        0.0000 
     24 CA        124.7005  115.3812   92.5383 C.3       3 GLC5        0.0000 
     25 CA        126.2100  113.9810   93.5640 C.3       9 GLL5        0.0000 
     26 CA        123.1420  116.0320   91.6570 C.3       6 GLP5        0.0000 
     27 CA        127.4562  111.0749   91.3730 C.3       3 GLC5        0.0000 
     28 CA        124.7425  115.4375   90.7395 C.3       3 GLC5        0.0000 
     29 CA        126.4440  117.1870   84.0757 C.3       3 GLC5        0.0000 
     30 CA        127.5080  117.0370   86.3200 C.3       9 GLL5        0.0000 
     31 CA        125.4400  116.8810   82.3270 C.3       6 GLP5        0.0000 
     32 CA        123.3625  113.1339   95.5774 C.3       3 GLC5        0.0000 
     33 CA        121.9420  112.8740   96.4040 C.3       6 GLP5        0.0000 
@<TRIPOS>BOND
@<TRIPOS>SUBSTRUCTURE
     1 ALC1        7 GROUP        1 X    ALC  0     ROOT ALC X 1
     2 SEC2       16 GROUP        1 X    SEC  0     **** SEC X 2
     3 GLC5        1 GROUP        1 X    GLC  0     **** GLC X 6
     4 ALP1        9 GROUP        1 Y    ALP  0     ROOT ALP Y 8
     5 SEP2       18 GROUP        1 Y    SEP  0     **** SEP Y 9
     6 GLP5        3 GROUP        1 Y    GLP  0     **** GLP Y 13
     7 ALL1        8 GROUP        1 Z    ALL  0     ROOT ALL Z 15
     8 SEL2       17 GROUP        1 Z    SEL  0     **** SEL Z 16
     9 GLL5        2 GROUP        1 Z    GLL  0     **** GLL Z 20
@<TRIPOS>SET

