#    Name: 3e6o_A55_2_ligand
#    Modification time : Tue Mar 25 01:00:32 2014

@<TRIPOS>MOLECULE
3e6o_A55_2_ligand
   37    39     1     0     0
SMALL
NO_CHARGES


@<TRIPOS>ATOM
      1 C2        126.2270  111.1690   93.9440 C.ar      1 A55904      0.0000 
      2 C1        125.2460  111.9730   94.5810 C.ar      1 A55904      0.0000 
      3 C6        125.2460  113.3720   94.3960 C.ar      1 A55904      0.0000 
      4 C5        126.2100  113.9810   93.5640 C.ar      1 A55904      0.0000 
      5 C4        127.1740  113.1630   92.9320 C.ar      1 A55904      0.0000 
      6 C3        127.1960  111.7880   93.1200 C.ar      1 A55904      0.0000 
      7 F27       128.1520  111.0830   92.5080 F         1 A55904      0.0000 
      8 N7        128.0980  113.7640   92.1210 N.3       1 A55904      0.0000 
      9 C8        127.6330  114.9040   91.3540 C.3       1 A55904      0.0000 
     10 N9        126.9760  115.9260   92.2110 N.pl3     1 A55904      0.0000 
     11 C10       126.3080  115.4800   93.2750 C.2       1 A55904      0.0000 
     12 N11       125.7080  116.3010   94.1150 N.pl3     1 A55904      0.0000 
     13 C16       126.7000  114.3160   90.2380 C.3       1 A55904      0.0000 
     14 C17       125.9860  115.3700   89.4060 C.3       1 A55904      0.0000 
     15 N18       126.9450  115.9410   88.4510 N.am      1 A55904      0.0000 
     16 C20       126.5160  116.4490   87.2450 C.2       1 A55904      0.0000 
     17 C21       127.5080  117.0370   86.3200 C.2       1 A55904      0.0000 
     18 C23       128.9630  116.7130   86.3170 C.2       1 A55904      0.0000 
     19 C24       129.4700  117.4790   85.3320 C.2       1 A55904      0.0000 
     20 O25       128.5620  118.2720   84.6720 O.3       1 A55904      0.0000 
     21 C26       127.3880  117.9490   85.3290 C.2       1 A55904      0.0000 
     22 O22       125.2960  116.4480   86.8930 O.2       1 A55904      0.0000 
     23 F12       124.3200  114.1150   95.0130 F         1 A55904      0.0000 
     24 H         126.2314  110.1647   94.0791 H         1 A55904      0.0000 
     25 H         124.5397  111.5344   95.1742 H         1 A55904      0.0000 
     26 H         128.4839  115.3471   90.8281 H         1 A55904      0.0000 
     27 H         127.0736  116.8856   91.9395 H         1 A55904      0.0000 
     28 H         125.8130  117.2775   93.9266 H         1 A55904      0.0000 
     29 H         125.2026  115.8723   94.8639 H         1 A55904      0.0000 
     30 H         125.9605  113.6648   90.7259 H         1 A55904      0.0000 
     31 H         127.3156  113.6815   89.5842 H         1 A55904      0.0000 
     32 H         125.6009  116.1378   90.0720 H         1 A55904      0.0000 
     33 H         125.1562  114.8995   88.8851 H         1 A55904      0.0000 
     34 H         127.9313  115.9427   88.7214 H         1 A55904      0.0000 
     35 H         129.3419  116.1136   86.8928 H         1 A55904      0.0000 
     36 H         130.4472  117.4805   85.0850 H         1 A55904      0.0000 
     37 H         126.5126  118.3726   85.0749 H         1 A55904      0.0000 
@<TRIPOS>BOND
     1    2    1 ar   
     2    6    1 ar   
     3   24    1 1    
     4    3    2 ar   
     5   25    2 1    
     6    4    3 ar   
     7   23    3 1    
     8    5    4 ar   
     9   11    4 1    
    10    6    5 ar   
    11    8    5 1    
    12    7    6 1    
    13    9    8 1    
    14   10    9 1    
    15   13    9 1    
    16   26    9 1    
    17   11   10 1    
    18   27   10 1    
    19   12   11 2    
    20   28   12 1    
    21   29   12 1    
    22   14   13 1    
    23   30   13 1    
    24   31   13 1    
    25   15   14 1    
    26   32   14 1    
    27   33   14 1    
    28   16   15 am   
    29   34   15 1    
    30   17   16 1    
    31   22   16 2    
    32   18   17 1    
    33   21   17 2    
    34   19   18 2    
    35   35   18 1    
    36   20   19 1    
    37   36   19 1    
    38   21   20 1    
    39   37   21 1    
@<TRIPOS>SUBSTRUCTURE
     1 A55904      1 GROUP   
@<TRIPOS>SET

