#    Name: 3tjc_0TP_2_INTS_M
#    Modification time : Mon Mar 24 20:11:28 2014

@<TRIPOS>MOLECULE
3tjc_0TP_2_INTS_M
   60     0     9     0     0
SMALL
NO_CHARGES


@<TRIPOS>ATOM
      1 N          78.0015  115.4850   16.7710 N.am      2 SEC2        0.0000 
      2 N          78.2050  114.7940   17.9410 N.am      8 SEL2        0.0000 
      3 N          77.7980  116.1760   15.6010 N.am      5 SEP2        0.0000 
      4 CA         76.7235  113.1330   22.3060 C.3       3 GLC5        0.0000 
      5 CA         77.4570  111.7940   21.1080 C.3       9 GLL5        0.0000 
      6 CA         75.9900  114.4720   23.5040 C.3       6 GLP5        0.0000 
      7 CA         79.4625  112.1075   24.1700 C.3       3 GLC5        0.0000 
      8 CA         78.9240  110.1190   23.3320 C.3       9 GLL5        0.0000 
      9 CA         80.0010  114.0960   25.0080 C.3       6 GLP5        0.0000 
     10 O          80.8645  115.8890   17.6070 O.2       1 ALC1        0.0000 
     11 O          80.4650  114.6120   18.4210 O.2       7 ALL1        0.0000 
     12 O          81.2640  117.1660   16.7930 O.2       4 ALP1        0.0000 
     13 CA         80.7535  106.9310   28.2175 C.3       3 GLC5        0.0000 
     14 CA         80.6590  106.3230   26.3440 C.3       9 GLL5        0.0000 
     15 CA         80.8480  107.5390   30.0910 C.3       6 GLP5        0.0000 
     16 O          74.9220  113.8545   17.2355 O.2       1 ALC1        0.0000 
     17 O          74.2660  113.6520   18.5140 O.2       7 ALL1        0.0000 
     18 O          75.5780  114.0570   15.9570 O.2       4 ALP1        0.0000 
     19 CA         83.4695  109.0775   22.5150 C.3       3 GLC5        0.0000 
     20 CA         81.8400  109.9410   23.4500 C.3       9 GLL5        0.0000 
     21 CA         85.0990  108.2140   21.5800 C.3       6 GLP5        0.0000 
     22 CA         79.7950  115.9060   19.5250 C.3       3 GLC5        0.0000 
     23 CA         79.2240  114.2190   18.7030 C.3       9 GLL5        0.0000 
     24 CA         80.3660  117.5930   20.3470 C.3       6 GLP5        0.0000 
     25 CA         78.6485  114.1280   16.6010 C.3       3 GLC5        0.0000 
     26 CA         78.0730  114.0370   14.4990 C.3       6 GLP5        0.0000 
     27 CA         75.5890  112.0860   18.1430 C.3       3 GLC5        0.0000 
     28 CA         76.5570  113.4810   19.1550 C.3       9 GLL5        0.0000 
     29 CA         74.6210  110.6910   17.1310 C.3       6 GLP5        0.0000 
     30 CA         77.7515  111.7310   18.4860 C.3       3 GLC5        0.0000 
     31 CA         78.9460  109.9810   17.8170 C.3       6 GLP5        0.0000 
     32 CA         77.0440  114.8565   16.4035 C.3       3 GLC5        0.0000 
     33 CA         76.9080  114.4480   18.1550 C.3       9 GLL5        0.0000 
     34 CA         77.1800  115.2650   14.6520 C.3       6 GLP5        0.0000 
     35 CA         73.5920  114.3390   20.3360 C.3       3 GLC5        0.0000 
     36 CA         72.8790  113.2840   18.6410 C.3       9 GLL5        0.0000 
     37 CA         74.3050  115.3940   22.0310 C.3       6 GLP5        0.0000 
     38 CA         73.1035  114.3720   16.7780 C.3       3 GLC5        0.0000 
     39 CA         73.3280  115.4600   14.9150 C.3       6 GLP5        0.0000 
     40 CA         73.7500  111.9875   17.8860 C.3       3 GLC5        0.0000 
     41 CA         81.5378  107.9087   28.4440 C.3       3 GLC5        0.0000 
     42 CA         82.5120  108.5330   26.1480 C.3       9 GLL5        0.0000 
     43 CA         77.8132  110.3077   25.0510 C.3       3 GLC5        0.0000 
     44 CA         76.4030  110.9520   26.2990 C.3       6 GLP5        0.0000 
     45 CA         81.3938  111.4720   24.4990 C.3       3 GLC5        0.0000 
     46 CA         80.9850  109.1250   24.3160 C.3       9 GLL5        0.0000 
     47 CA         81.3750  113.4110   25.1150 C.3       6 GLP5        0.0000 
     48 CA         77.7255  114.8729   20.5150 C.3       3 GLC5        0.0000 
     49 CA         78.9980  113.2250   19.7630 C.3       9 GLL5        0.0000 
     50 CA         76.6880  116.1060   21.7560 C.3       6 GLP5        0.0000 
     51 CA         80.1011  112.5029   18.2364 C.3       3 GLC5        0.0000 
     52 CA         80.8680  111.4310   17.0410 C.3       6 GLP5        0.0000 
     53 CA         76.7103  115.0352   20.2055 C.3       3 GLC5        0.0000 
     54 CA         79.6049  113.6144   22.2556 C.3       3 GLC5        0.0000 
     55 CA         79.8910  112.6360   20.5580 C.3       9 GLL5        0.0000 
     56 CA         79.9110  114.8800   23.7250 C.3       6 GLP5        0.0000 
     57 CA         78.6441  111.0185   19.3909 C.3       3 GLC5        0.0000 
     58 CA         79.1530  111.7670   21.4120 C.3       9 GLL5        0.0000 
     59 CA         80.9408  112.1475   23.8008 C.3       3 GLC5        0.0000 
     60 CA         79.7810  110.9300   22.4480 C.3       9 GLL5        0.0000 
@<TRIPOS>BOND
@<TRIPOS>SUBSTRUCTURE
     1 ALC1       10 GROUP        1 X    ALC  0     ROOT ALC X 1
     2 SEC2        1 GROUP        1 X    SEC  0     **** SEC X 2
     3 GLC5        4 GROUP        1 X    GLC  0     **** GLC X 6
     4 ALP1       12 GROUP        1 Y    ALP  0     ROOT ALP Y 8
     5 SEP2        3 GROUP        1 Y    SEP  0     **** SEP Y 9
     6 GLP5        6 GROUP        1 Y    GLP  0     **** GLP Y 13
     7 ALL1       11 GROUP        1 Z    ALL  0     ROOT ALL Z 15
     8 SEL2        2 GROUP        1 Z    SEL  0     **** SEL Z 16
     9 GLL5        5 GROUP        1 Z    GLL  0     **** GLL Z 20
@<TRIPOS>SET

