#    Name: 3tjc_0TP_2_ligand
#    Modification time : Mon Mar 24 20:11:28 2014

@<TRIPOS>MOLECULE
3tjc_0TP_2_ligand
   46    49     1     0     0
SMALL
NO_CHARGES


@<TRIPOS>ATOM
      1 C1         81.9430  108.0240   27.4460 C.3       1 0TP1        0.0000 
      2 N1         78.2050  114.7940   17.9410 N.ar      1 0TP1        0.0000 
      3 O1         81.6610  106.6120   27.3780 O.3       1 0TP1        0.0000 
      4 S1         77.4570  111.7940   21.1080 S.3       1 0TP1        0.0000 
      5 C2         78.9240  110.1190   23.3320 C.ar      1 0TP1        0.0000 
      6 N2         80.4650  114.6120   18.4210 N.pl3     1 0TP1        0.0000 
      7 O2         74.7620  112.4090   20.3320 O.2       1 0TP1        0.0000 
      8 C3         80.6590  106.3230   26.3440 C.3       1 0TP1        0.0000 
      9 N3         74.2660  113.6520   18.5140 N.am      1 0TP1        0.0000 
     10 C4         81.2090  106.7680   24.9990 C.3       1 0TP1        0.0000 
     11 N4         81.5360  108.2050   25.1550 N.3       1 0TP1        0.0000 
     12 C5         81.8400  109.9410   23.4500 C.ar      1 0TP1        0.0000 
     13 C6         82.5120  108.5330   26.1480 C.3       1 0TP1        0.0000 
     14 C7         79.8910  112.6360   20.5580 C.2       1 0TP1        0.0000 
     15 C8         78.9980  113.2250   19.7630 C.ar      1 0TP1        0.0000 
     16 C9         77.6060  112.8960   19.9270 C.ar      1 0TP1        0.0000 
     17 C10        79.2240  114.2190   18.7030 C.ar      1 0TP1        0.0000 
     18 C11        76.5570  113.4810   19.1550 C.ar      1 0TP1        0.0000 
     19 C12        75.1510  113.1240   19.4000 C.2       1 0TP1        0.0000 
     20 C13        76.9080  114.4480   18.1550 C.ar      1 0TP1        0.0000 
     21 C14        79.1530  111.7670   21.4120 C.2       1 0TP1        0.0000 
     22 C15        72.8790  113.2840   18.6410 C.3       1 0TP1        0.0000 
     23 C16        79.7810  110.9300   22.4480 C.ar      1 0TP1        0.0000 
     24 C17        79.5230  109.2080   24.2740 C.ar      1 0TP1        0.0000 
     25 C18        80.9850  109.1250   24.3160 C.ar      1 0TP1        0.0000 
     26 C19        81.2320  110.8380   22.5250 C.ar      1 0TP1        0.0000 
     27 H          82.6651  108.2430   28.2510 H         1 0TP1        0.0000 
     28 H          81.0282  108.5978   27.6725 H         1 0TP1        0.0000 
     29 H          77.9253  110.2121   23.2664 H         1 0TP1        0.0000 
     30 H          81.1855  113.9344   18.5688 H         1 0TP1        0.0000 
     31 H          80.5645  115.5493   18.0868 H         1 0TP1        0.0000 
     32 H          79.7360  106.8630   26.5395 H         1 0TP1        0.0000 
     33 H          80.4470  105.2577   26.2991 H         1 0TP1        0.0000 
     34 H          74.5353  114.2878   17.7739 H         1 0TP1        0.0000 
     35 H          80.4556  106.6293   24.2464 H         1 0TP1        0.0000 
     36 H          82.0919  106.1998   24.7734 H         1 0TP1        0.0000 
     37 H          82.8371  109.8560   23.5212 H         1 0TP1        0.0000 
     38 H          83.4541  108.0378   25.9642 H         1 0TP1        0.0000 
     39 H          82.6601  109.5998   26.2287 H         1 0TP1        0.0000 
     40 H          80.8265  112.7358   20.5920 H         1 0TP1        0.0000 
     41 H          76.1396  114.8689   17.6066 H         1 0TP1        0.0000 
     42 H          78.9712  108.6486   24.8811 H         1 0TP1        0.0000 
     43 H          81.7960  111.4164   21.9163 H         1 0TP1        0.0000 
     44 H          72.7462  112.2976   18.5447 H         1 0TP1        0.0000 
     45 H          72.5057  113.5445   19.5314 H         1 0TP1        0.0000 
     46 H          72.3124  113.7254   17.9452 H         1 0TP1        0.0000 
@<TRIPOS>BOND
     1    3    1 1    
     2   13    1 1    
     3   27    1 1    
     4   28    1 1    
     5   17    2 ar   
     6   20    2 ar   
     7    8    3 1    
     8   16    4 1    
     9   21    4 1    
    10   23    5 ar   
    11   24    5 ar   
    12   29    5 1    
    13   17    6 1    
    14   30    6 1    
    15   31    6 1    
    16   19    7 2    
    17   10    8 1    
    18   32    8 1    
    19   33    8 1    
    20   19    9 am   
    21   22    9 1    
    22   34    9 1    
    23   11   10 1    
    24   35   10 1    
    25   36   10 1    
    26   13   11 1    
    27   25   11 1    
    28   25   12 ar   
    29   26   12 ar   
    30   37   12 1    
    31   38   13 1    
    32   39   13 1    
    33   15   14 1    
    34   21   14 2    
    35   40   14 1    
    36   16   15 ar   
    37   17   15 ar   
    38   18   16 ar   
    39   19   18 1    
    40   20   18 ar   
    41   41   20 1    
    42   23   21 1    
    43   44   22 1    
    44   45   22 1    
    45   46   22 1    
    46   26   23 ar   
    47   25   24 ar   
    48   42   24 1    
    49   43   26 1    
@<TRIPOS>SUBSTRUCTURE
     1 0TP1        1 GROUP   
@<TRIPOS>SET

