#    Name: 4elh_53I_5_INTS_M
#    Modification time : Mon Mar 24 18:15:05 2014

@<TRIPOS>MOLECULE
4elh_53I_5_INTS_M
   82     0     9     0     0
SMALL
NO_CHARGES


@<TRIPOS>ATOM
      1 CA        -21.7210    3.6030   40.0170 C.3       3 GLC5        0.0000 
      2 CA        -21.4140    3.4600   42.0880 C.3       9 GLL5        0.0000 
      3 CA        -22.0280    3.7460   37.9460 C.3       6 GLP5        0.0000 
      4 CA        -18.9230    5.1855   41.2665 C.3       3 GLC5        0.0000 
      5 CA        -20.3020    4.3480   42.2940 C.3       9 GLL5        0.0000 
      6 CA        -17.5440    6.0230   40.2390 C.3       6 GLP5        0.0000 
      7 CA        -19.4000    6.6965   42.2745 C.3       3 GLC5        0.0000 
      8 CA        -20.3080    5.2370   43.3970 C.3       9 GLL5        0.0000 
      9 CA        -18.4920    8.1560   41.1520 C.3       6 GLP5        0.0000 
     10 CA        -24.4905    2.9705   39.8685 C.3       3 GLC5        0.0000 
     11 CA        -24.6710    3.2300   41.8880 C.3       9 GLL5        0.0000 
     12 CA        -24.3100    2.7110   37.8490 C.3       6 GLP5        0.0000 
     13 CA        -28.4665    4.8180   41.0005 C.3       3 GLC5        0.0000 
     14 CA        -26.7900    4.4490   41.4360 C.3       9 GLL5        0.0000 
     15 CA        -30.1430    5.1870   40.5650 C.3       6 GLP5        0.0000 
     16 CA        -21.6005   -1.1135   42.4150 C.3       3 GLC5        0.0000 
     17 CA        -23.4630   -1.2380   41.6730 C.3       9 GLL5        0.0000 
     18 CA        -19.7380   -0.9890   43.1570 C.3       6 GLP5        0.0000 
     19 CA        -26.7845   -6.5435   43.5610 C.3       3 GLC5        0.0000 
     20 CA        -26.7150   -4.7040   42.5280 C.3       9 GLL5        0.0000 
     21 CA        -26.8540   -8.3830   44.5940 C.3       6 GLP5        0.0000 
     22 CA        -28.1200   -5.1465   41.5715 C.3       3 GLC5        0.0000 
     23 CA        -29.5250   -5.5890   40.6150 C.3       6 GLP5        0.0000 
     24 CA        -26.5780   -3.0680   41.0200 C.3       3 GLC5        0.0000 
     25 CA        -26.4410   -1.4320   39.5120 C.3       6 GLP5        0.0000 
     26 CA        -24.0255  -10.3380   42.0480 C.3       3 GLC5        0.0000 
     27 CA        -24.5240   -8.5210   41.5060 C.3       9 GLL5        0.0000 
     28 CA        -23.5270  -12.1550   42.5900 C.3       6 GLP5        0.0000 
     29 CA        -25.6890   -8.4520   43.0500 C.3       3 GLC5        0.0000 
     30 CA        -22.9770   -7.8560   42.4375 C.3       3 GLC5        0.0000 
     31 CA        -21.4300   -7.1910   43.3690 C.3       6 GLP5        0.0000 
     32 CA        -21.1485   -3.3540   38.3805 C.3       3 GLC5        0.0000 
     33 CA        -21.2420   -5.0810   38.9660 C.3       9 GLL5        0.0000 
     34 CA        -21.0550   -1.6270   37.7950 C.3       6 GLP5        0.0000 
     35 CA        -17.7610   -5.4070   41.0840 C.3       3 GLC5        0.0000 
     36 CA        -19.3010   -4.1750   40.4550 C.3       9 GLL5        0.0000 
     37 CA        -16.2210   -6.6390   41.7130 C.3       6 GLP5        0.0000 
     38 CA        -19.5195   -2.5820   41.8060 C.3       3 GLC5        0.0000 
     39 CA        -18.0195   -2.3645   40.1850 C.3       3 GLC5        0.0000 
     40 CA        -16.7380   -0.5540   39.9150 C.3       6 GLP5        0.0000 
     41 N         -17.1555   -3.4430   41.6965 N.am      2 SEC2        0.0000 
     42 N         -17.9510   -3.8450   40.5500 N.am      8 SEL2        0.0000 
     43 N         -16.3600   -3.0410   42.8430 N.am      5 SEP2        0.0000 
     44 CA        -16.6720   -3.3435   37.6580 C.3       3 GLC5        0.0000 
     45 CA        -17.1310   -4.0100   39.5010 C.3       9 GLL5        0.0000 
     46 CA        -16.2130   -2.6770   35.8150 C.3       6 GLP5        0.0000 
     47 CA        -16.5320   -5.5495   38.2585 C.3       3 GLC5        0.0000 
     48 CA        -15.9330   -7.0890   37.0160 C.3       6 GLP5        0.0000 
     49 CA        -16.6760   -5.3245   40.6070 C.3       3 GLC5        0.0000 
     50 CA        -16.9345   -2.2820   39.7080 C.3       3 GLC5        0.0000 
     51 O         -16.0500   -3.3635   41.2195 O.2       1 ALC1        0.0000 
     52 O         -15.7400   -3.6860   39.5960 O.2       7 ALL1        0.0000 
     53 O         -16.3600   -3.0410   42.8430 O.2       4 ALP1        0.0000 
     54 O         -15.0870   -3.3985   40.7070 O.2       1 ALC1        0.0000 
     55 O         -14.4340   -3.1110   41.8180 O.2       4 ALP1        0.0000 
     56 CA        -17.5685   -3.7475   36.9840 C.3       3 GLC5        0.0000 
     57 CA        -18.9240   -4.8180   38.1530 C.3       9 GLL5        0.0000 
     58 CA        -17.4285   -5.9535   37.5845 C.3       3 GLC5        0.0000 
     59 O         -18.3840   -5.4930   36.0195 O.2       1 ALC1        0.0000 
     60 O         -19.4040   -5.3290   36.8920 O.2       7 ALL1        0.0000 
     61 O         -17.3640   -5.6570   35.1470 O.2       4 ALP1        0.0000 
     62 O         -20.4850   -5.5125   36.0385 O.2       1 ALC1        0.0000 
     63 O         -21.5660   -5.6960   35.1850 O.2       4 ALP1        0.0000 
     64 O         -19.2255   -6.6575   35.9900 O.2       1 ALC1        0.0000 
     65 O         -19.0470   -7.9860   35.0880 O.2       4 ALP1        0.0000 
     66 CA        -19.7725    2.8898   43.4710 C.3       3 GLC5        0.0000 
     67 CA        -18.9620    1.2090   44.1480 C.3       6 GLP5        0.0000 
     68 CA        -22.0305    1.5562   43.9023 C.3       3 GLC5        0.0000 
     69 CA        -22.4400    3.4800   42.9360 C.3       9 GLL5        0.0000 
     70 CA        -21.0380    0.1020   44.9810 C.3       6 GLP5        0.0000 
     71 CA        -26.6136    2.4225   40.9167 C.3       3 GLC5        0.0000 
     72 CA        -27.2060    0.8790   40.0440 C.3       6 GLP5        0.0000 
     73 CA        -25.0835   -2.0907   40.6236 C.3       3 GLC5        0.0000 
     74 CA        -23.6930   -3.6890   41.5570 C.3       9 GLL5        0.0000 
     75 CA        -23.2462   -5.8857   42.9942 C.3       3 GLC5        0.0000 
     76 CA        -24.3780   -4.8380   41.9610 C.3       9 GLL5        0.0000 
     77 CA        -22.2690   -6.3180   44.2990 C.3       6 GLP5        0.0000 
     78 CA        -22.0497   -6.3815   41.8005 C.3       3 GLC5        0.0000 
     79 CA        -23.0230   -6.1530   40.4310 C.3       9 GLL5        0.0000 
     80 CA        -22.4645   -4.1634   42.8306 C.3       3 GLC5        0.0000 
     81 CA        -22.6520   -3.7580   40.5730 C.3       9 GLL5        0.0000 
     82 CA        -21.6660   -4.9300   44.4470 C.3       6 GLP5        0.0000 
@<TRIPOS>BOND
@<TRIPOS>SUBSTRUCTURE
     1 ALC1       51 GROUP        1 X    ALC  0     ROOT ALC X 1
     2 SEC2       41 GROUP        1 X    SEC  0     **** SEC X 2
     3 GLC5        1 GROUP        1 X    GLC  0     **** GLC X 6
     4 ALP1       53 GROUP        1 Y    ALP  0     ROOT ALP Y 8
     5 SEP2       43 GROUP        1 Y    SEP  0     **** SEP Y 9
     6 GLP5        3 GROUP        1 Y    GLP  0     **** GLP Y 13
     7 ALL1       52 GROUP        1 Z    ALL  0     ROOT ALL Z 15
     8 SEL2       42 GROUP        1 Z    SEL  0     **** SEL Z 16
     9 GLL5        2 GROUP        1 Z    GLL  0     **** GLL Z 20
@<TRIPOS>SET

