#    Name: 4elh_53I_5_ligand
#    Modification time : Mon Mar 24 18:15:05 2014

@<TRIPOS>MOLECULE
4elh_53I_5_ligand
   67    70     1     0     0
SMALL
NO_CHARGES


@<TRIPOS>ATOM
      1 O30       -24.7510    0.0860   43.2500 O.2       1 53I201      0.0000 
      2 C16       -23.8550    0.0800   42.3750 C.2       1 53I201      0.0000 
      3 N17       -23.1910    1.3260   42.0230 N.am      1 53I201      0.0000 
      4 N18       -22.2130    1.3460   41.0720 N.2       1 53I201      0.0000 
      5 C19       -21.4290    2.5240   40.9500 C.2       1 53I201      0.0000 
      6 C25       -21.4140    3.4600   42.0880 C.ar      1 53I201      0.0000 
      7 C26       -20.3020    4.3480   42.2940 C.ar      1 53I201      0.0000 
      8 C27       -20.3080    5.2370   43.3970 C.ar      1 53I201      0.0000 
      9 C28       -21.3710    5.2580   44.2730 C.ar      1 53I201      0.0000 
     10 C29       -22.4460    4.3960   44.0770 C.ar      1 53I201      0.0000 
     11 C24       -22.4400    3.4800   42.9360 C.ar      1 53I201      0.0000 
     12 C20       -23.6060    2.5410   42.7110 C.3       1 53I201      0.0000 
     13 C21       -24.6710    3.2300   41.8880 C.2       1 53I201      0.0000 
     14 C22       -25.8340    3.7360   42.3980 C.2       1 53I201      0.0000 
     15 C23       -26.0560    3.9220   43.9000 C.3       1 53I201      0.0000 
     16 C37       -26.7900    4.4490   41.4360 C.3       1 53I201      0.0000 
     17 C15       -23.4630   -1.2380   41.6730 C.2       1 53I201      0.0000 
     18 C14       -24.0550   -2.3820   42.1540 C.2       1 53I201      0.0000 
     19 C13       -23.6930   -3.6890   41.5570 C.ar      1 53I201      0.0000 
     20 C10       -24.3780   -4.8380   41.9610 C.ar      1 53I201      0.0000 
     21 O11       -25.3980   -4.7620   42.9300 O.3       1 53I201      0.0000 
     22 C12       -26.7150   -4.7040   42.5280 C.3       1 53I201      0.0000 
     23 C07       -24.0690   -6.0690   41.4180 C.ar      1 53I201      0.0000 
     24 O08       -24.8110   -7.1780   41.8840 O.3       1 53I201      0.0000 
     25 C09       -24.5240   -8.5210   41.5060 C.3       1 53I201      0.0000 
     26 C06       -23.0230   -6.1530   40.4310 C.ar      1 53I201      0.0000 
     27 C05       -22.3160   -4.9910   40.0330 C.ar      1 53I201      0.0000 
     28 C04       -21.2420   -5.0810   38.9660 C.3       1 53I201      0.0000 
     29 C03       -19.8110   -4.6660   39.2300 C.ar      1 53I201      0.0000 
     30 C32       -19.3010   -4.1750   40.4550 C.ar      1 53I201      0.0000 
     31 N33       -17.9510   -3.8450   40.5500 N.ar      1 53I201      0.0000 
     32 C34       -17.1310   -4.0100   39.5010 C.ar      1 53I201      0.0000 
     33 N35       -15.7400   -3.6860   39.5960 N.pl3     1 53I201      0.0000 
     34 N36       -17.6040   -4.4840   38.3160 N.ar      1 53I201      0.0000 
     35 C02       -18.9240   -4.8180   38.1530 C.ar      1 53I201      0.0000 
     36 N01       -19.4040   -5.3290   36.8920 N.pl3     1 53I201      0.0000 
     37 C31       -22.6520   -3.7580   40.5730 C.ar      1 53I201      0.0000 
     38 H         -20.8998    2.7324   40.1351 H         1 53I201      0.0000 
     39 H         -19.5212    4.3308   41.6471 H         1 53I201      0.0000 
     40 H         -19.5032    5.8658   43.5301 H         1 53I201      0.0000 
     41 H         -21.3763    5.9066   45.0717 H         1 53I201      0.0000 
     42 H         -23.2433    4.3785   44.7029 H         1 53I201      0.0000 
     43 H         -24.0393    2.2929   43.6750 H         1 53I201      0.0000 
     44 H         -24.4495    3.2951   40.8678 H         1 53I201      0.0000 
     45 H         -22.8213   -1.1777   40.9337 H         1 53I201      0.0000 
     46 H         -24.7337   -2.3823   42.9033 H         1 53I201      0.0000 
     47 H         -22.7976   -7.0586   40.0224 H         1 53I201      0.0000 
     48 H         -21.6111   -4.5050   38.0507 H         1 53I201      0.0000 
     49 H         -21.2294   -6.1543   38.5741 H         1 53I201      0.0000 
     50 H         -19.9237   -4.0673   41.2550 H         1 53I201      0.0000 
     51 H         -15.3145   -3.8311   40.4892 H         1 53I201      0.0000 
     52 H         -15.3103   -3.3417   38.7612 H         1 53I201      0.0000 
     53 H         -18.7442   -5.8465   36.3471 H         1 53I201      0.0000 
     54 H         -20.3565   -5.1232   36.6677 H         1 53I201      0.0000 
     55 H         -22.1805   -2.9049   40.2898 H         1 53I201      0.0000 
     56 H         -25.9908    3.0556   44.3952 H         1 53I201      0.0000 
     57 H         -25.3806    4.5406   44.3015 H         1 53I201      0.0000 
     58 H         -26.9583    4.3053   44.0974 H         1 53I201      0.0000 
     59 H         -26.3594    5.2414   41.0039 H         1 53I201      0.0000 
     60 H         -27.0962    3.8444   40.7006 H         1 53I201      0.0000 
     61 H         -27.6096    4.7797   41.9040 H         1 53I201      0.0000 
     62 H         -26.8936   -3.9039   41.9554 H         1 53I201      0.0000 
     63 H         -26.9768   -5.5094   41.9962 H         1 53I201      0.0000 
     64 H         -27.3393   -4.6518   43.3075 H         1 53I201      0.0000 
     65 H         -23.5978   -8.7910   41.7691 H         1 53I201      0.0000 
     66 H         -25.1517   -9.1700   41.9358 H         1 53I201      0.0000 
     67 H         -24.5980   -8.6525   40.5174 H         1 53I201      0.0000 
@<TRIPOS>BOND
     1    2    1 2    
     2    3    2 am   
     3   17    2 1    
     4    4    3 1    
     5   12    3 1    
     6    5    4 2    
     7    6    5 1    
     8   38    5 1    
     9    7    6 ar   
    10   11    6 ar   
    11    8    7 ar   
    12   39    7 1    
    13    9    8 ar   
    14   40    8 1    
    15   10    9 ar   
    16   41    9 1    
    17   11   10 ar   
    18   42   10 1    
    19   12   11 1    
    20   13   12 1    
    21   43   12 1    
    22   14   13 2    
    23   44   13 1    
    24   15   14 1    
    25   16   14 1    
    26   56   15 1    
    27   57   15 1    
    28   58   15 1    
    29   59   16 1    
    30   60   16 1    
    31   61   16 1    
    32   18   17 2    
    33   45   17 1    
    34   19   18 1    
    35   46   18 1    
    36   20   19 ar   
    37   37   19 ar   
    38   21   20 1    
    39   23   20 ar   
    40   22   21 1    
    41   62   22 1    
    42   63   22 1    
    43   64   22 1    
    44   24   23 1    
    45   26   23 ar   
    46   25   24 1    
    47   65   25 1    
    48   66   25 1    
    49   67   25 1    
    50   27   26 ar   
    51   47   26 1    
    52   28   27 1    
    53   37   27 ar   
    54   29   28 1    
    55   48   28 1    
    56   49   28 1    
    57   30   29 ar   
    58   35   29 ar   
    59   31   30 ar   
    60   50   30 1    
    61   32   31 ar   
    62   33   32 1    
    63   34   32 ar   
    64   51   33 1    
    65   52   33 1    
    66   35   34 ar   
    67   36   35 1    
    68   53   36 1    
    69   54   36 1    
    70   55   37 1    
@<TRIPOS>SUBSTRUCTURE
     1 53I201      1 GROUP   
@<TRIPOS>SET

