#    Name: 3gi6_D78_1_INTS_M
#    Modification time : Tue Mar 25 12:34:41 2014

@<TRIPOS>MOLECULE
3gi6_D78_1_INTS_M
   94     0     9     0     0
SMALL
NO_CHARGES


@<TRIPOS>ATOM
      1 CA         15.8905   33.1405   13.9370 C.3       3 GLC5        0.0000 
      2 CA         17.1370   33.2760   15.7910 C.3       9 GLL5        0.0000 
      3 CA         14.6440   33.0050   12.0830 C.3       6 GLP5        0.0000 
      4 CA         15.3755   36.8460   15.7765 C.3       3 GLC5        0.0000 
      5 CA         16.6490   35.4220   16.8430 C.3       9 GLL5        0.0000 
      6 CA         14.1020   38.2700   14.7100 C.3       6 GLP5        0.0000 
      7 CA         16.3875   33.1525   18.8635 C.3       3 GLC5        0.0000 
      8 CA         15.6580   34.8230   17.6420 C.3       9 GLL5        0.0000 
      9 CA         17.1170   31.4820   20.0850 C.3       6 GLP5        0.0000 
     10 CA         14.3600   35.4060   15.9970 C.3       3 GLC5        0.0000 
     11 CA         13.0620   35.9890   14.3520 C.3       6 GLP5        0.0000 
     12 N          14.4190   34.7675   19.9665 N.am      2 SEC2        0.0000 
     13 N          14.9130   35.5120   18.5650 N.am      8 SEL2        0.0000 
     14 N          13.9250   34.0230   21.3680 N.am      5 SEP2        0.0000 
     15 CA         15.6715   36.3205   20.6155 C.3       3 GLC5        0.0000 
     16 CA         15.0930   36.9090   18.8420 C.3       9 GLL5        0.0000 
     17 CA         16.2500   35.7320   22.3890 C.3       6 GLP5        0.0000 
     18 CA         13.5770   36.1040   19.6595 C.3       3 GLC5        0.0000 
     19 CA         12.0610   35.2990   20.4770 C.3       6 GLP5        0.0000 
     20 CA         14.1070   37.8355   17.3075 C.3       3 GLC5        0.0000 
     21 CA         13.1210   38.7620   15.7730 C.3       6 GLP5        0.0000 
     22 CA         23.0250   34.2955   14.4860 C.3       3 GLC5        0.0000 
     23 CA         22.1840   32.3320   14.9540 C.3       9 GLL5        0.0000 
     24 CA         23.8660   36.2590   14.0180 C.3       6 GLP5        0.0000 
     25 CA         23.9005   30.9180   14.9125 C.3       3 GLC5        0.0000 
     26 CA         25.6170   29.5040   14.8710 C.3       6 GLP5        0.0000 
     27 CA         23.2350   32.3660   12.9860 C.3       3 GLC5        0.0000 
     28 CA         24.2860   32.4000   11.0180 C.3       6 GLP5        0.0000 
     29 CA         22.8100   32.7595   18.9780 C.3       3 GLC5        0.0000 
     30 CA         22.2870   33.3940   17.2170 C.3       9 GLL5        0.0000 
     31 CA         23.3330   32.1250   20.7390 C.3       6 GLP5        0.0000 
     32 CA         23.8695   34.0685   17.6965 C.3       3 GLC5        0.0000 
     33 CA         25.4520   34.7430   18.1760 C.3       6 GLP5        0.0000 
     34 CA         24.0530   32.3060   17.2610 C.3       3 GLC5        0.0000 
     35 CA         25.8190   31.2180   17.3050 C.3       6 GLP5        0.0000 
     36 CA         17.5470   30.5715   17.7910 C.3       3 GLC5        0.0000 
     37 CA         19.0690   30.4740   16.1990 C.3       9 GLL5        0.0000 
     38 CA         16.0250   30.6690   19.3830 C.3       6 GLP5        0.0000 
     39 N          19.2995   27.7370   17.7560 N.am      2 SEC2        0.0000 
     40 N          19.8110   28.2180   16.5180 N.am      8 SEL2        0.0000 
     41 N          18.7880   27.2560   18.9940 N.am      5 SEP2        0.0000 
     42 O          20.6755   27.9100   17.4145 O.2       1 ALC1        0.0000 
     43 O          19.8110   28.2180   16.5180 O.2       7 ALL1        0.0000 
     44 O          21.5400   27.6020   18.3110 O.2       4 ALP1        0.0000 
     45 O          21.3725   28.6255   16.9300 O.2       1 ALC1        0.0000 
     46 O          22.9340   29.0330   17.3420 O.2       4 ALP1        0.0000 
     47 CA         17.0985   30.5215    9.7995 C.3       3 GLC5        0.0000 
     48 CA         17.0630   28.5730   10.4560 C.3       9 GLL5        0.0000 
     49 CA         17.1340   32.4700    9.1430 C.3       6 GLP5        0.0000 
     50 CA         17.0190   30.9005   11.1715 C.3       3 GLC5        0.0000 
     51 CA         17.3580   28.8830   11.7890 C.3       9 GLL5        0.0000 
     52 CA         16.6800   32.9180   10.5540 C.3       6 GLP5        0.0000 
     53 O          20.1885   26.6985   14.0120 O.2       1 ALC1        0.0000 
     54 O          20.3670   28.1510   13.4250 O.2       7 ALL1        0.0000 
     55 O          20.0100   25.2460   14.5990 O.2       4 ALP1        0.0000 
     56 CA         22.3290   26.3740   13.3005 C.3       3 GLC5        0.0000 
     57 CA         21.8760   27.5810   11.6090 C.3       9 GLL5        0.0000 
     58 CA         22.7820   25.1670   14.9920 C.3       6 GLP5        0.0000 
     59 CA         23.2370   29.2555   11.4235 C.3       3 GLC5        0.0000 
     60 CA         24.5980   30.9300   11.2380 C.3       6 GLP5        0.0000 
     61 N          22.5085   23.7555   12.3960 N.am      2 SEC2        0.0000 
     62 N          21.6150   24.1610   11.2980 N.am      8 SEL2        0.0000 
     63 N          23.4020   23.3500   13.4940 N.am      5 SEP2        0.0000 
     64 CA         20.8035   29.1060    9.2430 C.3       3 GLC5        0.0000 
     65 CA         21.2270   27.4750   10.2180 C.3       9 GLL5        0.0000 
     66 CA         20.3800   30.7370    8.2680 C.3       6 GLP5        0.0000 
     67 CA         15.9785   27.4395    6.6320 C.3       3 GLC5        0.0000 
     68 CA         17.3830   26.4820    6.0880 C.3       9 GLL5        0.0000 
     69 CA         14.5740   28.3970    7.1760 C.3       6 GLP5        0.0000 
     70 CA         19.6875   29.2875    6.9970 C.3       3 GLC5        0.0000 
     71 CA         18.9950   27.8380    5.7260 C.3       9 GLL5        0.0000 
     72 CA         19.5135   28.4830    3.9300 C.3       3 GLC5        0.0000 
     73 CA         20.0320   29.1280    2.1340 C.3       6 GLP5        0.0000 
     74 CA         15.9030   31.8750   18.2142 C.3       3 GLC5        0.0000 
     75 CA         15.4150   33.4640   17.5030 C.3       9 GLL5        0.0000 
     76 CA         13.9049   33.1799   16.5456 C.3       3 GLC5        0.0000 
     77 CA         11.9680   32.9390   16.0110 C.3       6 GLP5        0.0000 
     78 CA         17.0810   25.7781   13.7346 C.3       3 GLC5        0.0000 
     79 CA         18.1360   28.2200   14.1130 C.3       9 GLL5        0.0000 
     80 CA         16.2120   24.2350   14.6850 C.3       6 GLP5        0.0000 
     81 CA         15.8000   25.6825   10.1665 C.3       3 GLC5        0.0000 
     82 CA         17.6440   26.2860   10.8540 C.3       9 GLL5        0.0000 
     83 CA         14.1750   24.5830    9.9140 C.3       6 GLP5        0.0000 
     84 CA         15.8543   28.1612    8.6980 C.3       3 GLC5        0.0000 
     85 CA         17.2060   27.2780    9.9840 C.3       9 GLL5        0.0000 
     86 CA         15.9782   28.8836   13.3764 C.3       3 GLC5        0.0000 
     87 CA         14.2950   29.2980   14.1640 C.3       6 GLP5        0.0000 
     88 CA         20.9090   27.5682    6.2925 C.3       3 GLC5        0.0000 
     89 CA         19.9150   26.2700    7.9010 C.3       9 GLL5        0.0000 
     90 CA         22.1000   29.1220    5.3080 C.3       6 GLP5        0.0000 
     91 CA         20.4595   28.1628    5.5160 C.3       3 GLC5        0.0000 
     92 CA         19.6947   27.1313    3.6342 C.3       3 GLC5        0.0000 
     93 CA         18.6430   26.5690    5.7220 C.3       9 GLL5        0.0000 
     94 CA         20.7100   27.9140    2.1620 C.3       6 GLP5        0.0000 
@<TRIPOS>BOND
@<TRIPOS>SUBSTRUCTURE
     1 ALC1       42 GROUP        1 X    ALC  0     ROOT ALC X 1
     2 SEC2       12 GROUP        1 X    SEC  0     **** SEC X 2
     3 GLC5        1 GROUP        1 X    GLC  0     **** GLC X 6
     4 ALP1       44 GROUP        1 Y    ALP  0     ROOT ALP Y 8
     5 SEP2       14 GROUP        1 Y    SEP  0     **** SEP Y 9
     6 GLP5        3 GROUP        1 Y    GLP  0     **** GLP Y 13
     7 ALL1       43 GROUP        1 Z    ALL  0     ROOT ALL Z 15
     8 SEL2       13 GROUP        1 Z    SEL  0     **** SEL Z 16
     9 GLL5        2 GROUP        1 Z    GLL  0     **** GLL Z 20
@<TRIPOS>SET

