#    Name: 3gi6_D78_1_ligand
#    Modification time : Tue Mar 25 12:34:41 2014

@<TRIPOS>MOLECULE
3gi6_D78_1_ligand
   82    85     1     0     0
SMALL
NO_CHARGES


@<TRIPOS>ATOM
      1 O9         18.5300   33.2210   13.7050 O.2       1 D78200      0.0000 
      2 S8         18.0010   32.3800   14.7540 S.o2      1 D78200      0.0000 
      3 O10        17.1750   31.3540   14.2090 O.2       1 D78200      0.0000 
      4 C5         17.1370   33.2760   15.7910 C.ar      1 D78200      0.0000 
      5 C4         17.3800   34.6460   15.9350 C.ar      1 D78200      0.0000 
      6 C3         16.6490   35.4220   16.8430 C.ar      1 D78200      0.0000 
      7 C2         15.6580   34.8230   17.6420 C.ar      1 D78200      0.0000 
      8 O19        14.9130   35.5120   18.5650 O.3       1 D78200      0.0000 
      9 C18        15.0930   36.9090   18.8420 C.3       1 D78200      0.0000 
     10 C7         15.4150   33.4640   17.5030 C.ar      1 D78200      0.0000 
     11 C6         16.1470   32.6980   16.5880 C.ar      1 D78200      0.0000 
     12 N11        19.3170   31.7420   15.4770 N.pl3     1 D78200      0.0000 
     13 C12        20.0500   32.7400   16.2910 C.3       1 D78200      0.0000 
     14 C13        21.5460   32.3940   16.3420 C.3       1 D78200      0.0000 
     15 C14        22.1840   32.3320   14.9540 C.3       1 D78200      0.0000 
     16 C15        22.2870   33.3940   17.2170 C.3       1 D78200      0.0000 
     17 C16        19.0690   30.4740   16.1990 C.3       1 D78200      0.0000 
     18 C17        19.9100   29.3340   15.6160 C.3       1 D78200      0.0000 
     19 O18        19.8110   28.2180   16.5180 O.3       1 D78200      0.0000 
     20 C19        19.4550   29.0090   14.1890 C.3       1 D78200      0.0000 
     21 C32        18.1360   28.2200   14.1130 C.3       1 D78200      0.0000 
     22 C38        17.7940   27.8910   12.6640 C.ar      1 D78200      0.0000 
     23 C33        17.9350   26.5870   12.1800 C.ar      1 D78200      0.0000 
     24 C34        17.6440   26.2860   10.8540 C.ar      1 D78200      0.0000 
     25 C35        17.2060   27.2780    9.9840 C.ar      1 D78200      0.0000 
     26 C36        17.0630   28.5730   10.4560 C.ar      1 D78200      0.0000 
     27 C37        17.3580   28.8830   11.7890 C.ar      1 D78200      0.0000 
     28 N20        20.3670   28.1510   13.4250 N.am      1 D78200      0.0000 
     29 C21        21.0910   28.6000   12.3910 C.2       1 D78200      0.0000 
     30 O22        21.1500   29.7720   12.0350 O.2       1 D78200      0.0000 
     31 C29        21.8760   27.5810   11.6090 C.3       1 D78200      0.0000 
     32 O28        21.8370   26.2600   12.1800 O.3       1 D78200      0.0000 
     33 C26        21.4930   25.3600   11.1060 C.2       1 D78200      0.0000 
     34 O27        21.6150   24.1610   11.2980 O.2       1 D78200      0.0000 
     35 C25        21.2270   27.4750   10.2180 C.3       1 D78200      0.0000 
     36 N24        21.1100   26.0400   10.0130 N.am      1 D78200      0.0000 
     37 C43        20.7250   25.5220    8.7900 C.ar      1 D78200      0.0000 
     38 C44        21.1370   24.2520    8.3670 C.ar      1 D78200      0.0000 
     39 C45        20.7450   23.7380    7.1240 C.ar      1 D78200      0.0000 
     40 C40        19.9510   24.4880    6.2680 C.ar      1 D78200      0.0000 
     41 C42        19.9150   26.2700    7.9010 C.ar      1 D78200      0.0000 
     42 C41        19.5210   25.7590    6.6530 C.ar      1 D78200      0.0000 
     43 C46        18.6430   26.5690    5.7220 C.3       1 D78200      0.0000 
     44 F1         17.3830   26.4820    6.0880 F         1 D78200      0.0000 
     45 F2         18.7160   26.1280    4.4910 F         1 D78200      0.0000 
     46 F3         18.9950   27.8380    5.7260 F         1 D78200      0.0000 
     47 H          18.1132   35.0949   15.3603 H         1 D78200      0.0000 
     48 H          16.8336   36.4256   16.9276 H         1 D78200      0.0000 
     49 H          14.6888   33.0084   18.0772 H         1 D78200      0.0000 
     50 H          15.9498   31.6867   16.5021 H         1 D78200      0.0000 
     51 H          19.6662   32.7575   17.3124 H         1 D78200      0.0000 
     52 H          19.9423   33.7376   15.8621 H         1 D78200      0.0000 
     53 H          21.6468   31.4080   16.8068 H         1 D78200      0.0000 
     54 H          18.0128   30.1943   16.1288 H         1 D78200      0.0000 
     55 H          19.3215   30.5818   17.2589 H         1 D78200      0.0000 
     56 H          20.9388   29.6956   15.5712 H         1 D78200      0.0000 
     57 H          19.2930   29.9292   13.6305 H         1 D78200      0.0000 
     58 H          17.3404   28.8189   14.5473 H         1 D78200      0.0000 
     59 H          18.2419   27.2991   14.6796 H         1 D78200      0.0000 
     60 H          18.2589   25.8418   12.8165 H         1 D78200      0.0000 
     61 H          17.7541   25.3181   10.5129 H         1 D78200      0.0000 
     62 H          16.9928   27.0530    9.0093 H         1 D78200      0.0000 
     63 H          16.7364   29.3205    9.8239 H         1 D78200      0.0000 
     64 H          17.2509   29.8513   12.1214 H         1 D78200      0.0000 
     65 H          20.4169   27.1559   13.7419 H         1 D78200      0.0000 
     66 H          22.8769   27.9248   11.4626 H         1 D78200      0.0000 
     67 H          21.8799   27.9262    9.5063 H         1 D78200      0.0000 
     68 H          20.2735   27.9504   10.2539 H         1 D78200      0.0000 
     69 H          21.7414   23.6833    8.9830 H         1 D78200      0.0000 
     70 H          21.0524   22.7931    6.8481 H         1 D78200      0.0000 
     71 H          19.6782   24.1119    5.3520 H         1 D78200      0.0000 
     72 H          19.6081   27.2164    8.1823 H         1 D78200      0.0000 
     73 H          16.0166   37.1065   19.1706 H         1 D78200      0.0000 
     74 H          14.9450   37.4711   18.0282 H         1 D78200      0.0000 
     75 H          14.4571   37.2337   19.5421 H         1 D78200      0.0000 
     76 H          23.1567   32.1049   15.0022 H         1 D78200      0.0000 
     77 H          21.7499   31.6408   14.3763 H         1 D78200      0.0000 
     78 H          22.1104   33.2051   14.4721 H         1 D78200      0.0000 
     79 H          23.2656   33.1934   17.2633 H         1 D78200      0.0000 
     80 H          22.1953   34.3283   16.8726 H         1 D78200      0.0000 
     81 H          21.9428   33.3926   18.1559 H         1 D78200      0.0000 
     82 H          20.7105   28.1540   16.9501 H         1 D78200      0.0000 
@<TRIPOS>BOND
     1    2    1 2    
     2    3    2 2    
     3    4    2 1    
     4   12    2 1    
     5    5    4 ar   
     6   11    4 ar   
     7    6    5 ar   
     8   47    5 1    
     9    7    6 ar   
    10   48    6 1    
    11    8    7 1    
    12   10    7 ar   
    13    9    8 1    
    14   73    9 1    
    15   74    9 1    
    16   75    9 1    
    17   11   10 ar   
    18   49   10 1    
    19   50   11 1    
    20   13   12 1    
    21   17   12 1    
    22   14   13 1    
    23   51   13 1    
    24   52   13 1    
    25   15   14 1    
    26   16   14 1    
    27   53   14 1    
    28   76   15 1    
    29   77   15 1    
    30   78   15 1    
    31   79   16 1    
    32   80   16 1    
    33   81   16 1    
    34   18   17 1    
    35   54   17 1    
    36   55   17 1    
    37   19   18 1    
    38   20   18 1    
    39   56   18 1    
    40   82   19 1    
    41   21   20 1    
    42   28   20 1    
    43   57   20 1    
    44   22   21 1    
    45   58   21 1    
    46   59   21 1    
    47   23   22 ar   
    48   27   22 ar   
    49   24   23 ar   
    50   60   23 1    
    51   25   24 ar   
    52   61   24 1    
    53   26   25 ar   
    54   62   25 1    
    55   27   26 ar   
    56   63   26 1    
    57   64   27 1    
    58   29   28 am   
    59   65   28 1    
    60   30   29 2    
    61   31   29 1    
    62   32   31 1    
    63   35   31 1    
    64   66   31 1    
    65   33   32 1    
    66   34   33 2    
    67   36   33 am   
    68   36   35 1    
    69   67   35 1    
    70   68   35 1    
    71   37   36 1    
    72   38   37 ar   
    73   41   37 ar   
    74   39   38 ar   
    75   69   38 1    
    76   40   39 ar   
    77   70   39 1    
    78   42   40 ar   
    79   71   40 1    
    80   42   41 ar   
    81   72   41 1    
    82   43   42 1    
    83   44   43 1    
    84   45   43 1    
    85   46   43 1    
@<TRIPOS>SUBSTRUCTURE
     1 D78200      1 GROUP   
@<TRIPOS>SET

