#    Name: 3mzs_HC9_3_INTS_M
#    Modification time : Tue Mar 25 00:22:10 2014

@<TRIPOS>MOLECULE
3mzs_HC9_3_INTS_M
   76     0     3     0     0
SMALL
NO_CHARGES


@<TRIPOS>ATOM
      1 CA         43.5190   26.7775   69.8800 C.3       1 GLC5        0.0000 
      2 CA         44.6440   28.3120   68.8370 C.3       3 GLL5        0.0000 
      3 CA         42.3940   25.2430   70.9230 C.3       2 GLP5        0.0000 
      4 CA         45.9965   26.6195   69.2350 C.3       1 GLC5        0.0000 
      5 CA         47.3490   24.9270   69.6330 C.3       2 GLP5        0.0000 
      6 CA         43.9085   26.8355   70.9980 C.3       1 GLC5        0.0000 
      7 CA         44.3780   28.6470   70.3170 C.3       3 GLL5        0.0000 
      8 CA         43.4390   25.0240   71.6790 C.3       2 GLP5        0.0000 
      9 CA         45.1450   33.1150   69.6605 C.3       1 GLC5        0.0000 
     10 CA         45.1990   30.9160   70.0110 C.3       3 GLL5        0.0000 
     11 CA         45.0910   35.3140   69.3100 C.3       2 GLP5        0.0000 
     12 CA         47.4585   31.8610   69.9075 C.3       1 GLC5        0.0000 
     13 CA         46.5080   31.2790   67.9860 C.3       3 GLL5        0.0000 
     14 CA         48.4090   32.4430   71.8290 C.3       2 GLP5        0.0000 
     15 CA         45.7995   33.2965   68.6480 C.3       1 GLC5        0.0000 
     16 CA         42.7275   28.5350   65.2520 C.3       1 GLC5        0.0000 
     17 CA         44.6560   28.0800   65.7050 C.3       3 GLL5        0.0000 
     18 CA         40.7990   28.9900   64.7990 C.3       2 GLP5        0.0000 
     19 CA         44.8790   25.4860   64.2460 C.3       1 GLC5        0.0000 
     20 CA         45.4320   27.5310   64.4780 C.3       3 GLL5        0.0000 
     21 CA         44.3260   23.4410   64.0140 C.3       2 GLP5        0.0000 
     22 CA         48.4760   27.8280   64.6850 C.3       1 GLC5        0.0000 
     23 CA         46.9290   29.4500   64.5510 C.3       3 GLL5        0.0000 
     24 CA         50.0230   26.2060   64.8190 C.3       2 GLP5        0.0000 
     25 CA         48.2225   32.3050   63.9395 C.3       1 GLC5        0.0000 
     26 CA         47.5230   30.4020   63.5090 C.3       3 GLL5        0.0000 
     27 CA         48.9220   34.2080   64.3700 C.3       2 GLP5        0.0000 
     28 CA         49.4615   28.3215   63.4720 C.3       1 GLC5        0.0000 
     29 CA         47.9040   29.4930   62.3730 C.3       3 GLL5        0.0000 
     30 CA         51.0190   27.1500   64.5710 C.3       2 GLP5        0.0000 
     31 CA         48.5110   27.2405   63.6710 C.3       1 GLC5        0.0000 
     32 CA         46.9990   28.2750   62.5230 C.3       3 GLL5        0.0000 
     33 CA         43.0780   29.9000   63.6240 C.3       1 GLC5        0.0000 
     34 CA         44.8690   29.5530   63.0840 C.3       3 GLL5        0.0000 
     35 CA         41.2870   30.2470   64.1640 C.3       2 GLP5        0.0000 
     36 CA         42.0750   29.4455   66.1270 C.3       1 GLC5        0.0000 
     37 CA         43.3510   29.9010   67.4550 C.3       3 GLL5        0.0000 
     38 CA         41.9270   29.3090   68.6610 C.3       1 GLC5        0.0000 
     39 CA         40.5030   28.7170   69.8670 C.3       2 GLP5        0.0000 
     40 CA         46.4840   24.7445   62.0195 C.3       1 GLC5        0.0000 
     41 CA         45.5780   26.5230   61.1470 C.3       3 GLL5        0.0000 
     42 CA         47.3900   22.9660   62.8920 C.3       2 GLP5        0.0000 
     43 CA         44.8375   25.2205   59.8660 C.3       1 GLC5        0.0000 
     44 CA         44.0970   23.9180   58.5850 C.3       2 GLP5        0.0000 
     45 CA         43.6095   26.0990   61.5140 C.3       1 GLC5        0.0000 
     46 CA         41.6410   25.6750   61.8810 C.3       2 GLP5        0.0000 
     47 CA         44.9520   24.9820   62.5805 C.3       1 GLC5        0.0000 
     48 CA         47.9170   24.5920   61.5695 C.3       1 GLC5        0.0000 
     49 CA         48.4440   26.2180   60.2470 C.3       3 GLL5        0.0000 
     50 CA         50.3985   25.7345   63.3795 C.3       1 GLC5        0.0000 
     51 CA         50.7740   25.2630   61.9400 C.3       3 GLL5        0.0000 
     52 CA         51.1980   23.5150   62.9050 C.3       1 GLC5        0.0000 
     53 CA         51.6220   21.7670   63.8700 C.3       2 GLP5        0.0000 
     54 CA         49.0820   24.1145   62.4160 C.3       1 GLC5        0.0000 
     55 CA         52.5840   27.0130   60.8120 C.3       1 GLC5        0.0000 
     56 CA         52.3310   25.5610   60.0410 C.3       3 GLL5        0.0000 
     57 CA         52.8370   28.4650   61.5830 C.3       2 GLP5        0.0000 
     58 CA         54.0590   26.3370   59.1305 C.3       1 GLC5        0.0000 
     59 CA         55.7870   27.1130   58.2200 C.3       2 GLP5        0.0000 
     60 CA         42.5070   28.5983   69.7220 C.3       1 GLC5        0.0000 
     61 CA         46.8730   31.3507   71.1160 C.3       1 GLC5        0.0000 
     62 CA         45.4750   29.6010   70.7950 C.3       3 GLL5        0.0000 
     63 CA         48.0697   29.6787   67.7100 C.3       1 GLC5        0.0000 
     64 CA         49.2630   28.3300   68.0480 C.3       2 GLP5        0.0000 
     65 CA         46.3519   26.5619   66.2240 C.3       1 GLC5        0.0000 
     66 CA         45.5150   28.9490   66.6430 C.3       3 GLL5        0.0000 
     67 CA         47.4450   25.1010   67.1220 C.3       2 GLP5        0.0000 
     68 CA         47.8369   28.8990   66.7227 C.3       1 GLC5        0.0000 
     69 CA         49.5103   30.1382   62.3205 C.3       1 GLC5        0.0000 
     70 CA         51.3070   30.3290   61.7000 C.3       2 GLP5        0.0000 
     71 CA         49.0378   25.1085   58.2010 C.3       1 GLC5        0.0000 
     72 CA         48.9090   23.9650   56.3970 C.3       2 GLP5        0.0000 
     73 CA         52.1310   23.8332   59.1115 C.3       1 GLC5        0.0000 
     74 CA         52.6630   22.2390   57.9980 C.3       2 GLP5        0.0000 
     75 CA         51.7065   26.9958   61.2980 C.3       1 GLC5        0.0000 
     76 CA         49.8890   26.2860   59.7630 C.3       3 GLL5        0.0000 
@<TRIPOS>BOND
@<TRIPOS>SUBSTRUCTURE
     1 GLC5        1 GROUP        1 X    GLC  0     ROOT GLC X 6
     2 GLP5        3 GROUP        1 Y    GLP  0     ROOT GLP Y 13
     3 GLL5        2 GROUP        1 Z    GLL  0     ROOT GLL Z 20
@<TRIPOS>SET

