#    Name: 3mzs_HC9_3_ligand
#    Modification time : Tue Mar 25 00:22:10 2014

@<TRIPOS>MOLECULE
3mzs_HC9_3_ligand
   75    78     1     0     0
SMALL
NO_CHARGES


@<TRIPOS>ATOM
      1 C1         44.6440   28.3120   68.8370 C.3       1 HC9501      0.0000 
      2 O1         45.3640   29.7910   72.2280 O.3       1 HC9501      0.0000 
      3 C2         44.3780   28.6470   70.3170 C.3       1 HC9501      0.0000 
      4 O2         47.0820   27.8430   58.8540 O.3       1 HC9501      0.0000 
      5 C3         45.4750   29.6010   70.7950 C.3       1 HC9501      0.0000 
      6 C4         45.1990   30.9160   70.0110 C.3       1 HC9501      0.0000 
      7 C5         45.4070   30.7180   68.5140 C.2       1 HC9501      0.0000 
      8 C6         46.5080   31.2790   67.9860 C.2       1 HC9501      0.0000 
      9 C7         47.2450   30.7760   66.7580 C.3       1 HC9501      0.0000 
     10 C8         46.2700   30.0230   65.8450 C.3       1 HC9501      0.0000 
     11 C9         45.5150   28.9490   66.6430 C.3       1 HC9501      0.0000 
     12 C10        44.7480   29.4910   67.8550 C.3       1 HC9501      0.0000 
     13 C11        44.6560   28.0800   65.7050 C.3       1 HC9501      0.0000 
     14 C12        45.4320   27.5310   64.4780 C.3       1 HC9501      0.0000 
     15 C13        45.9900   28.6950   63.6170 C.3       1 HC9501      0.0000 
     16 C14        46.9290   29.4500   64.5510 C.3       1 HC9501      0.0000 
     17 C15        47.5230   30.4020   63.5090 C.3       1 HC9501      0.0000 
     18 C16        47.9040   29.4930   62.3730 C.3       1 HC9501      0.0000 
     19 C17        46.9990   28.2750   62.5230 C.3       1 HC9501      0.0000 
     20 C18        44.8690   29.5530   63.0840 C.3       1 HC9501      0.0000 
     21 C19        43.3510   29.9010   67.4550 C.3       1 HC9501      0.0000 
     22 C20        46.5350   27.7360   61.1490 C.3       1 HC9501      0.0000 
     23 C21        45.5780   26.5230   61.1470 C.3       1 HC9501      0.0000 
     24 C22        47.6630   27.5410   60.1380 C.3       1 HC9501      0.0000 
     25 C23        48.4440   26.2180   60.2470 C.3       1 HC9501      0.0000 
     26 C24        49.8890   26.2860   59.7630 C.3       1 HC9501      0.0000 
     27 C25        50.8670   25.2940   60.4090 C.3       1 HC9501      0.0000 
     28 C26        50.7740   25.2630   61.9400 C.3       1 HC9501      0.0000 
     29 C27        52.3310   25.5610   60.0410 C.3       1 HC9501      0.0000 
     30 H          43.8395   27.6265   68.4819 H         1 HC9501      0.0000 
     31 H          45.5848   27.7168   68.7751 H         1 HC9501      0.0000 
     32 H          44.4088   27.7410   70.8966 H         1 HC9501      0.0000 
     33 H          43.4185   29.1259   70.4051 H         1 HC9501      0.0000 
     34 H          46.4084   29.2203   70.4886 H         1 HC9501      0.0000 
     35 H          45.8752   31.6849   70.3776 H         1 HC9501      0.0000 
     36 H          44.1734   31.2232   70.2022 H         1 HC9501      0.0000 
     37 H          46.9480   32.1405   68.4095 H         1 HC9501      0.0000 
     38 H          48.0402   30.1034   67.0589 H         1 HC9501      0.0000 
     39 H          47.6641   31.6149   66.2140 H         1 HC9501      0.0000 
     40 H          45.5035   30.7627   65.5115 H         1 HC9501      0.0000 
     41 H          46.3112   28.2555   67.0498 H         1 HC9501      0.0000 
     42 H          43.8067   28.6739   65.3445 H         1 HC9501      0.0000 
     43 H          44.2529   27.2315   66.2721 H         1 HC9501      0.0000 
     44 H          44.7612   26.9333   63.8736 H         1 HC9501      0.0000 
     45 H          46.2562   26.9203   64.8248 H         1 HC9501      0.0000 
     46 H          47.7224   28.7367   64.8057 H         1 HC9501      0.0000 
     47 H          48.3850   30.8731   63.9132 H         1 HC9501      0.0000 
     48 H          46.7785   31.0931   63.1984 H         1 HC9501      0.0000 
     49 H          48.9242   29.1915   62.4659 H         1 HC9501      0.0000 
     50 H          47.7085   29.9681   61.4368 H         1 HC9501      0.0000 
     51 H          47.6634   27.4989   62.9965 H         1 HC9501      0.0000 
     52 H          45.9002   28.5965   60.6908 H         1 HC9501      0.0000 
     53 H          48.3974   28.3752   60.3708 H         1 HC9501      0.0000 
     54 H          47.9058   25.4447   59.6695 H         1 HC9501      0.0000 
     55 H          48.4317   25.8896   61.3021 H         1 HC9501      0.0000 
     56 H          50.2740   27.3160   59.9267 H         1 HC9501      0.0000 
     57 H          49.9063   26.1302   58.6624 H         1 HC9501      0.0000 
     58 H          50.6248   24.2820   60.0520 H         1 HC9501      0.0000 
     59 H          45.2127   30.3095   62.5276 H         1 HC9501      0.0000 
     60 H          44.2407   29.0284   62.5095 H         1 HC9501      0.0000 
     61 H          44.3259   29.9546   63.8214 H         1 HC9501      0.0000 
     62 H          43.3585   30.6671   66.8123 H         1 HC9501      0.0000 
     63 H          42.8564   29.1525   67.0132 H         1 HC9501      0.0000 
     64 H          42.8072   30.1859   68.2444 H         1 HC9501      0.0000 
     65 H          45.9879   25.7258   61.5902 H         1 HC9501      0.0000 
     66 H          44.7258   26.7215   61.6310 H         1 HC9501      0.0000 
     67 H          45.3302   26.2470   60.2183 H         1 HC9501      0.0000 
     68 H          51.4163   24.6079   62.3379 H         1 HC9501      0.0000 
     69 H          50.9783   26.1553   62.3426 H         1 HC9501      0.0000 
     70 H          49.8599   25.0033   62.2514 H         1 HC9501      0.0000 
     71 H          52.9480   24.9010   60.4696 H         1 HC9501      0.0000 
     72 H          52.4820   25.5053   59.0540 H         1 HC9501      0.0000 
     73 H          52.6271   26.4708   60.3319 H         1 HC9501      0.0000 
     74 H          45.4801   30.7743   72.3683 H         1 HC9501      0.0000 
     75 H          47.9335   28.1847   59.2519 H         1 HC9501      0.0000 
@<TRIPOS>BOND
     1    3    1 1    
     2   12    1 1    
     3   30    1 1    
     4   31    1 1    
     5    5    2 1    
     6   74    2 1    
     7    5    3 1    
     8   32    3 1    
     9   33    3 1    
    10   24    4 1    
    11   75    4 1    
    12    6    5 1    
    13   34    5 1    
    14    7    6 1    
    15   35    6 1    
    16   36    6 1    
    17    8    7 2    
    18   12    7 1    
    19    9    8 1    
    20   37    8 1    
    21   10    9 1    
    22   38    9 1    
    23   39    9 1    
    24   11   10 1    
    25   16   10 1    
    26   40   10 1    
    27   12   11 1    
    28   13   11 1    
    29   41   11 1    
    30   21   12 1    
    31   14   13 1    
    32   42   13 1    
    33   43   13 1    
    34   15   14 1    
    35   44   14 1    
    36   45   14 1    
    37   16   15 1    
    38   19   15 1    
    39   20   15 1    
    40   17   16 1    
    41   46   16 1    
    42   18   17 1    
    43   47   17 1    
    44   48   17 1    
    45   19   18 1    
    46   49   18 1    
    47   50   18 1    
    48   22   19 1    
    49   51   19 1    
    50   59   20 1    
    51   60   20 1    
    52   61   20 1    
    53   62   21 1    
    54   63   21 1    
    55   64   21 1    
    56   23   22 1    
    57   24   22 1    
    58   52   22 1    
    59   65   23 1    
    60   66   23 1    
    61   67   23 1    
    62   25   24 1    
    63   53   24 1    
    64   26   25 1    
    65   54   25 1    
    66   55   25 1    
    67   27   26 1    
    68   56   26 1    
    69   57   26 1    
    70   28   27 1    
    71   29   27 1    
    72   58   27 1    
    73   68   28 1    
    74   69   28 1    
    75   70   28 1    
    76   71   29 1    
    77   72   29 1    
    78   73   29 1    
@<TRIPOS>SUBSTRUCTURE
     1 HC9501      1 GROUP   
@<TRIPOS>SET

