#    Name: 4mx9_2E8_1_INTS_M
#    Modification time : Tue Mar 25 12:25:29 2014

@<TRIPOS>MOLECULE
4mx9_2E8_1_INTS_M
   93     0    12     0     0
SMALL
NO_CHARGES


@<TRIPOS>ATOM
      1 OD1        -4.0695  -16.2060  -26.0505 O.co2     3 ASC3        0.0000 
      2 OD1        -2.9660  -16.2190  -27.4460 O.co2    11 ASL3        0.0000 
      3 OD1        -5.1730  -16.1930  -24.6550 O.co2     7 ASP3        0.0000 
      4 CA         -1.7670  -14.2720  -28.7395 C.3       4 GLC5        0.0000 
      5 CA         -2.8470  -14.8650  -26.8830 C.3      12 GLL5        0.0000 
      6 CA         -0.6870  -13.6790  -30.5960 C.3       8 GLP5        0.0000 
      7 CA         -2.0565  -14.8840  -24.9280 C.3       4 GLC5        0.0000 
      8 CA         -1.2660  -14.9030  -22.9730 C.3       8 GLP5        0.0000 
      9 CA         -4.9795  -19.8560  -32.1145 C.3       4 GLC5        0.0000 
     10 CA         -3.7350  -19.2890  -30.3600 C.3      12 GLL5        0.0000 
     11 CA         -6.2240  -20.4230  -33.8690 C.3       8 GLP5        0.0000 
     12 CA         -2.9705  -18.8765  -32.2715 C.3       4 GLC5        0.0000 
     13 CA         -2.2060  -18.4640  -34.1830 C.3       8 GLP5        0.0000 
     14 CA         -4.4470  -23.0235  -32.6765 C.3       4 GLC5        0.0000 
     15 CA         -3.6560  -23.4320  -30.9020 C.3      12 GLL5        0.0000 
     16 CA         -5.2380  -22.6150  -34.4510 C.3       8 GLP5        0.0000 
     17 CA         -2.6010  -23.7345  -32.6190 C.3       4 GLC5        0.0000 
     18 CA         -1.5460  -24.0370  -34.3360 C.3       8 GLP5        0.0000 
     19 CA         -4.3530  -24.9670  -31.8945 C.3       4 GLC5        0.0000 
     20 CA         -5.0500  -26.5020  -32.8870 C.3       8 GLP5        0.0000 
     21 CA         -3.8365  -25.4165  -29.8870 C.3       4 GLC5        0.0000 
     22 CA         -4.0170  -27.4010  -28.8720 C.3       8 GLP5        0.0000 
     23 CA         -2.8330  -23.0350  -29.0065 C.3       4 GLC5        0.0000 
     24 CA         -2.0100  -22.6380  -27.1110 C.3       8 GLP5        0.0000 
     25 N          -2.9785  -25.5080  -30.6950 N.am      2 SEC2        0.0000 
     26 N          -2.4830  -23.9670  -31.2150 N.am     10 SEL2        0.0000 
     27 N          -3.4740  -27.0490  -30.1750 N.am      6 SEP2        0.0000 
     28 CA         -2.0460  -25.2685  -31.8995 C.3       4 GLC5        0.0000 
     29 CA         -1.4170  -23.2280  -31.3640 C.3      12 GLL5        0.0000 
     30 CA         -2.6750  -27.3090  -32.4350 C.3       8 GLP5        0.0000 
     31 O          -0.1475  -25.2655  -31.8795 O.2       1 ALC1        0.0000 
     32 O          -0.3040  -23.8430  -31.6730 O.2       9 ALL1        0.0000 
     33 O           0.0090  -26.6880  -32.0860 O.2       5 ALP1        0.0000 
     34 CA         -0.1740  -22.7650  -33.4075 C.3       4 GLC5        0.0000 
     35 CA          1.1980  -21.4930  -32.4790 C.3      12 GLL5        0.0000 
     36 CA          0.1330  -18.7900  -32.0680 C.3       4 GLC5        0.0000 
     37 CA          1.4420  -19.8440  -30.8190 C.3      12 GLL5        0.0000 
     38 CA         -1.1760  -17.7360  -33.3170 C.3       8 GLP5        0.0000 
     39 CA          1.1715  -19.5690  -28.9685 C.3       4 GLC5        0.0000 
     40 CA          0.9010  -19.2940  -27.1180 C.3       8 GLP5        0.0000 
     41 CA          2.7850  -20.4065  -29.1890 C.3       4 GLC5        0.0000 
     42 CA          2.7770  -19.7320  -31.1060 C.3      12 GLL5        0.0000 
     43 CA          2.7930  -21.0810  -27.2720 C.3       8 GLP5        0.0000 
     44 CA          6.0055  -19.7095  -33.8695 C.3       4 GLC5        0.0000 
     45 CA          4.6410  -20.3890  -32.3930 C.3      12 GLL5        0.0000 
     46 CA          7.3700  -19.0300  -35.3460 C.3       8 GLP5        0.0000 
     47 CA          6.0280  -18.8365  -32.2375 C.3       4 GLC5        0.0000 
     48 CA          7.4150  -17.2840  -32.0820 C.3       8 GLP5        0.0000 
     49 CA          6.1265  -22.7900  -32.2640 C.3       4 GLC5        0.0000 
     50 CA          7.2720  -21.4580  -32.6170 C.3      12 GLL5        0.0000 
     51 CA          4.9810  -24.1220  -31.9110 C.3       8 GLP5        0.0000 
     52 CA          7.4020  -22.8600  -34.0480 C.3       4 GLC5        0.0000 
     53 CA          7.5320  -24.2620  -35.4790 C.3       8 GLP5        0.0000 
     54 CA         10.7960  -21.8395  -32.5110 C.3       4 GLC5        0.0000 
     55 CA          8.7580  -21.3230  -32.9100 C.3      12 GLL5        0.0000 
     56 CA         12.8340  -22.3560  -32.1120 C.3       8 GLP5        0.0000 
     57 CA          9.3665  -22.9135  -33.9485 C.3       4 GLC5        0.0000 
     58 CA          9.9750  -24.5040  -34.9870 C.3       8 GLP5        0.0000 
     59 CA         -1.3387  -15.3560  -29.7280 C.3       4 GLC5        0.0000 
     60 CA         -2.0650  -17.6820  -29.2470 C.3      12 GLL5        0.0000 
     61 CA         -1.9735  -17.7550  -31.4337 C.3       4 GLC5        0.0000 
     62 CA         -0.5447  -18.1635  -27.9890 C.3       4 GLC5        0.0000 
     63 CA         -5.0645  -16.9588  -30.9907 C.3       4 GLC5        0.0000 
     64 CA         -3.4770  -17.8660  -29.8540 C.3      12 GLL5        0.0000 
     65 CA         -6.1410  -16.1770  -32.6780 C.3       8 GLP5        0.0000 
     66 CA         -1.8748  -21.2050  -32.6981 C.3       4 GLC5        0.0000 
     67 CA         -2.7060  -21.3860  -30.8340 C.3      12 GLL5        0.0000 
     68 CA         -1.9910  -19.9790  -34.2150 C.3       8 GLP5        0.0000 
     69 CA         -1.5008  -23.2960  -32.7998 C.3       4 GLC5        0.0000 
     70 CA         -1.4940  -21.8820  -31.1630 C.3      12 GLL5        0.0000 
     71 CA         -1.8842  -22.5345  -29.1461 C.3       4 GLC5        0.0000 
     72 CA         -0.5350  -20.5442  -33.0983 C.3       4 GLC5        0.0000 
     73 CA          0.6440  -20.7260  -31.4840 C.3      12 GLL5        0.0000 
     74 CA          2.5021  -18.4200  -32.1576 C.3       4 GLC5        0.0000 
     75 CA          3.3150  -20.4980  -32.0900 C.3      12 GLL5        0.0000 
     76 CA          2.2920  -16.6970  -32.7890 C.3       8 GLP5        0.0000 
     77 CA          4.9497  -22.4512  -32.3995 C.3       4 GLC5        0.0000 
     78 CA          4.3588  -23.1120  -32.9080 C.3       4 GLC5        0.0000 
     79 CA          3.0690  -22.1470  -33.7480 C.3      12 GLL5        0.0000 
     80 CA          3.4512  -24.1900  -34.4140 C.3       4 GLC5        0.0000 
     81 CA          4.4040  -22.0570  -34.0620 C.3      12 GLL5        0.0000 
     82 CA          3.1660  -26.2780  -34.9230 C.3       8 GLP5        0.0000 
     83 CA          6.1660  -22.9383  -34.6007 C.3       4 GLC5        0.0000 
     84 CA          5.1960  -21.1720  -33.3830 C.3      12 GLL5        0.0000 
     85 CA          5.5535  -21.1698  -35.2638 C.3       4 GLC5        0.0000 
     86 CA          6.3070  -20.7250  -36.8050 C.3       8 GLP5        0.0000 
     87 CA          7.6925  -20.2103  -34.0547 C.3       4 GLC5        0.0000 
     88 CA          8.8675  -19.7488  -32.7112 C.3       4 GLC5        0.0000 
     89 CA          9.7200  -18.1070  -32.6590 C.3       8 GLP5        0.0000 
     90 CA          2.9207  -22.3588  -31.4898 C.3       4 GLC5        0.0000 
     91 CA          3.4560  -24.0390  -30.9930 C.3       8 GLP5        0.0000 
     92 CA          3.3466  -19.9834  -34.4164 C.3       4 GLC5        0.0000 
     93 CA          2.9630  -18.3770  -35.4660 C.3       8 GLP5        0.0000 
@<TRIPOS>BOND
@<TRIPOS>SUBSTRUCTURE
     1 ALC1       31 GROUP        1 X    ALC  0     ROOT ALC X 1
     2 SEC2       25 GROUP        1 X    SEC  0     **** SEC X 2
     3 ASC3        1 GROUP        1 X    ASC  0     **** ASC X 3
     4 GLC5        4 GROUP        1 X    GLC  0     **** GLC X 6
     5 ALP1       33 GROUP        1 Y    ALP  0     ROOT ALP Y 8
     6 SEP2       27 GROUP        1 Y    SEP  0     **** SEP Y 9
     7 ASP3        3 GROUP        1 Y    ASP  0     **** ASP Y 10
     8 GLP5        6 GROUP        1 Y    GLP  0     **** GLP Y 13
     9 ALL1       32 GROUP        1 Z    ALL  0     ROOT ALL Z 15
    10 SEL2       26 GROUP        1 Z    SEL  0     **** SEL Z 16
    11 ASL3        2 GROUP        1 Z    ASL  0     **** ASL Z 17
    12 GLL5        5 GROUP        1 Z    GLL  0     **** GLL Z 20
@<TRIPOS>SET

