#    Name: 4mx9_2E8_1_ligand
#    Modification time : Tue Mar 25 12:25:30 2014

@<TRIPOS>MOLECULE
4mx9_2E8_1_ligand
   60    64     1     0     0
SMALL
NO_CHARGES


@<TRIPOS>ATOM
      1 CAL        -2.0650  -17.6820  -29.2470 C.3       1 2E8601      0.0000 
      2 CAN        -1.9160  -16.3840  -28.4730 C.3       1 2E8601      0.0000 
      3 NBD        -2.9660  -16.2190  -27.4460 N.4       1 2E8601      0.0000 
      4 CAB        -2.8470  -14.8650  -26.8830 C.3       1 2E8601      0.0000 
      5 CAO        -4.2730  -16.2700  -28.0820 C.3       1 2E8601      0.0000 
      6 CAM        -4.4990  -17.6150  -28.7530 C.3       1 2E8601      0.0000 
      7 CBC        -3.4770  -17.8660  -29.8540 C.3       1 2E8601      0.0000 
      8 CAP        -3.7350  -19.2890  -30.3600 C.3       1 2E8601      0.0000 
      9 NBE        -2.5730  -20.1040  -30.6940 N.pl3     1 2E8601      0.0000 
     10 NAS        -1.4240  -19.7530  -30.9040 N.2       1 2E8601      0.0000 
     11 C4         -2.7060  -21.3860  -30.8340 C.ar      1 2E8601      0.0000 
     12 N3         -3.7800  -22.1410  -30.7110 N.ar      1 2E8601      0.0000 
     13 C2         -3.6560  -23.4320  -30.9020 C.ar      1 2E8601      0.0000 
     14 N1         -2.4830  -23.9670  -31.2150 N.ar      1 2E8601      0.0000 
     15 C6         -1.4170  -23.2280  -31.3640 C.ar      1 2E8601      0.0000 
     16 NAC        -0.3040  -23.8430  -31.6730 N.pl3     1 2E8601      0.0000 
     17 C5         -1.4940  -21.8820  -31.1630 C.ar      1 2E8601      0.0000 
     18 CAX        -0.6790  -20.7930  -31.1870 C.2       1 2E8601      0.0000 
     19 CAV         0.6440  -20.7260  -31.4840 C.ar      1 2E8601      0.0000 
     20 CAJ         1.1980  -21.4930  -32.4790 C.ar      1 2E8601      0.0000 
     21 CAE         1.4420  -19.8440  -30.8190 C.ar      1 2E8601      0.0000 
     22 CAG         2.7770  -19.7320  -31.1060 C.ar      1 2E8601      0.0000 
     23 CAY         3.3150  -20.4980  -32.0900 C.ar      1 2E8601      0.0000 
     24 CAI         4.6410  -20.3890  -32.3930 C.ar      1 2E8601      0.0000 
     25 CAZ         2.5290  -21.3750  -32.7690 C.ar      1 2E8601      0.0000 
     26 CAF         3.0690  -22.1470  -33.7480 C.ar      1 2E8601      0.0000 
     27 CAD         4.4040  -22.0570  -34.0620 C.ar      1 2E8601      0.0000 
     28 CAU         5.1960  -21.1720  -33.3830 C.ar      1 2E8601      0.0000 
     29 OAT         6.4860  -21.0910  -33.7040 O.3       1 2E8601      0.0000 
     30 CAK         7.2720  -21.4580  -32.6170 C.3       1 2E8601      0.0000 
     31 CAA         8.7580  -21.3230  -32.9100 C.3       1 2E8601      0.0000 
     32 H          -1.8599  -18.5312  -28.5834 H         1 2E8601      0.0000 
     33 H          -1.3312  -17.7101  -30.0620 H         1 2E8601      0.0000 
     34 H          -1.9485  -15.5453  -29.1867 H         1 2E8601      0.0000 
     35 H          -0.9198  -16.3695  -28.0026 H         1 2E8601      0.0000 
     36 H          -2.8777  -16.9418  -26.6903 H         1 2E8601      0.0000 
     37 H          -4.3683  -15.4848  -28.8445 H         1 2E8601      0.0000 
     38 H          -5.0732  -16.1142  -27.3455 H         1 2E8601      0.0000 
     39 H          -5.5033  -17.6403  -29.1827 H         1 2E8601      0.0000 
     40 H          -4.4242  -18.4087  -28.0058 H         1 2E8601      0.0000 
     41 H          -3.6327  -17.1686  -30.6327 H         1 2E8601      0.0000 
     42 H          -4.4189  -19.2073  -31.2500 H         1 2E8601      0.0000 
     43 H          -4.3627  -19.8098  -29.5845 H         1 2E8601      0.0000 
     44 H          -4.5007  -24.0634  -30.8066 H         1 2E8601      0.0000 
     45 H          -0.3525  -24.8404  -31.7258 H         1 2E8601      0.0000 
     46 H           0.4929  -23.2592  -31.8280 H         1 2E8601      0.0000 
     47 H           0.6074  -22.1581  -33.0068 H         1 2E8601      0.0000 
     48 H           1.0295  -19.2379  -30.0727 H         1 2E8601      0.0000 
     49 H           3.3651  -19.0686  -30.5751 H         1 2E8601      0.0000 
     50 H           5.2398  -19.7157  -31.8797 H         1 2E8601      0.0000 
     51 H           2.4684  -22.8188  -34.2721 H         1 2E8601      0.0000 
     52 H           4.8023  -22.6524  -34.8032 H         1 2E8601      0.0000 
     53 H           7.0954  -22.5111  -32.3065 H         1 2E8601      0.0000 
     54 H           7.0599  -20.8405  -31.7168 H         1 2E8601      0.0000 
     55 H          -1.9511  -14.7139  -26.4652 H         1 2E8601      0.0000 
     56 H          -2.9670  -14.1602  -27.5822 H         1 2E8601      0.0000 
     57 H          -3.5328  -14.6955  -26.1752 H         1 2E8601      0.0000 
     58 H           9.3171  -21.5917  -32.1257 H         1 2E8601      0.0000 
     59 H           9.0383  -21.8963  -33.6799 H         1 2E8601      0.0000 
     60 H           9.0074  -20.3821  -33.1391 H         1 2E8601      0.0000 
@<TRIPOS>BOND
     1    2    1 1    
     2    7    1 1    
     3   32    1 1    
     4   33    1 1    
     5    3    2 1    
     6   34    2 1    
     7   35    2 1    
     8    4    3 1    
     9    5    3 1    
    10   36    3 1    
    11   55    4 1    
    12   56    4 1    
    13   57    4 1    
    14    6    5 1    
    15   37    5 1    
    16   38    5 1    
    17    7    6 1    
    18   39    6 1    
    19   40    6 1    
    20    8    7 1    
    21   41    7 1    
    22    9    8 1    
    23   42    8 1    
    24   43    8 1    
    25   10    9 1    
    26   11    9 1    
    27   18   10 2    
    28   12   11 ar   
    29   17   11 ar   
    30   13   12 ar   
    31   14   13 ar   
    32   44   13 1    
    33   15   14 ar   
    34   16   15 1    
    35   17   15 ar   
    36   45   16 1    
    37   46   16 1    
    38   18   17 1    
    39   19   18 1    
    40   20   19 ar   
    41   21   19 ar   
    42   25   20 ar   
    43   47   20 1    
    44   22   21 ar   
    45   48   21 1    
    46   23   22 ar   
    47   49   22 1    
    48   24   23 ar   
    49   25   23 ar   
    50   28   24 ar   
    51   50   24 1    
    52   26   25 ar   
    53   27   26 ar   
    54   51   26 1    
    55   28   27 ar   
    56   52   27 1    
    57   29   28 1    
    58   30   29 1    
    59   31   30 1    
    60   53   30 1    
    61   54   30 1    
    62   58   31 1    
    63   59   31 1    
    64   60   31 1    
@<TRIPOS>SUBSTRUCTURE
     1 2E8601      1 GROUP   
@<TRIPOS>SET

