#    Name: 4ein_NOH_2_INTS_M
#    Modification time : Mon Mar 24 17:59:37 2014

@<TRIPOS>MOLECULE
4ein_NOH_2_INTS_M
   72     0    12     0     0
SMALL
NO_CHARGES


@<TRIPOS>ATOM
      1 N         118.0540  -27.8945   18.1825 N.am      2 SEC2        0.0000 
      2 N         117.6790  -26.9770   17.0720 N.am     10 SEL2        0.0000 
      3 N         118.4290  -28.8120   19.2930 N.am      6 SEP2        0.0000 
      4 N         117.9950  -25.2895   17.0525 N.am      2 SEC2        0.0000 
      5 N         118.3110  -23.6020   17.0330 N.am      6 SEP2        0.0000 
      6 N         117.5595  -24.6345   16.2410 N.am      2 SEC2        0.0000 
      7 N         116.8080  -25.6670   15.4490 N.am     10 SEL2        0.0000 
      8 O         117.1965  -23.3250   14.4665 O.2       1 ALC1        0.0000 
      9 O         116.0810  -24.1530   13.8630 O.2       9 ALL1        0.0000 
     10 O         118.3120  -22.4970   15.0700 O.2       5 ALP1        0.0000 
     11 CA        114.0525  -29.4575   18.3590 C.3       4 GLC5        0.0000 
     12 CA        115.6560  -29.7480   17.0970 C.3      12 GLL5        0.0000 
     13 CA        112.4490  -29.1670   19.6210 C.3       8 GLP5        0.0000 
     14 CA        116.2425  -28.6485   18.8350 C.3       4 GLC5        0.0000 
     15 CA        116.8290  -27.5490   20.5730 C.3       8 GLP5        0.0000 
     16 CA        116.5465  -32.0215   18.6055 C.3       4 GLC5        0.0000 
     17 CA        115.5070  -31.2420   16.7940 C.3      12 GLL5        0.0000 
     18 CA        117.5860  -32.8010   20.4170 C.3       8 GLP5        0.0000 
     19 N         116.7305  -32.0260   18.2965 N.am      2 SEC2        0.0000 
     20 N         116.7460  -31.9500   16.9660 N.am     10 SEL2        0.0000 
     21 N         116.7150  -32.1020   19.6270 N.am      6 SEP2        0.0000 
     22 O         116.7760  -33.3290   16.8390 O.2       1 ALC1        0.0000 
     23 O         116.7460  -31.9500   16.9660 O.2       9 ALL1        0.0000 
     24 O         116.8060  -34.7080   16.7120 O.2       5 ALP1        0.0000 
     25 CA        113.4265  -29.1650   15.2790 C.3       4 GLC5        0.0000 
     26 CA        113.7750  -31.0570   14.9470 C.3      12 GLL5        0.0000 
     27 CA        113.0780  -27.2730   15.6110 C.3       8 GLP5        0.0000 
     28 N         113.4440  -33.4950   16.4555 N.am      2 SEC2        0.0000 
     29 N         113.0790  -32.2250   15.3700 N.am     10 SEL2        0.0000 
     30 N         113.8090  -34.7650   17.5410 N.am      6 SEP2        0.0000 
     31 N         113.2145  -33.4440   14.4565 N.am      2 SEC2        0.0000 
     32 N         113.3500  -34.6630   13.5430 N.am      6 SEP2        0.0000 
     33 NZ        112.6805  -34.2385   16.9380 N.4       3 LYC4        0.0000 
     34 NZ        111.5520  -33.7120   16.3350 N.4      11 LYL4        0.0000 
     35 NZ        113.7930  -34.5040   18.8300 N.4       7 LYP4        0.0000 
     36 NZ        112.4510  -34.1875   14.9390 N.4       3 LYC4        0.0000 
     37 NZ        112.4340  -35.5800   13.2310 N.4       7 LYP4        0.0000 
     38 N         112.1765  -33.7220   17.8205 N.am      2 SEC2        0.0000 
     39 N         111.5520  -33.7120   16.3350 N.am     10 SEL2        0.0000 
     40 N         112.8010  -33.7320   19.3060 N.am      6 SEP2        0.0000 
     41 N         112.6805  -34.2385   16.9380 N.am      2 SEC2        0.0000 
     42 N         111.4050  -34.6465   15.0995 N.am      2 SEC2        0.0000 
     43 N         111.2580  -35.5810   13.8640 N.am      6 SEP2        0.0000 
     44 N         112.4510  -34.1875   14.9390 N.am      2 SEC2        0.0000 
     45 NZ        109.4050  -32.0925   15.4090 N.4       3 LYC4        0.0000 
     46 NZ        110.6250  -31.4840   15.2880 N.4      11 LYL4        0.0000 
     47 NZ        108.0550  -33.1960   14.3020 N.4       7 LYP4        0.0000 
     48 NZ        110.1730  -30.1080   15.4850 N.4       3 LYC4        0.0000 
     49 NZ        109.2810  -28.6330   16.9340 N.4       7 LYP4        0.0000 
     50 N         109.4050  -32.0925   15.4090 N.am      2 SEC2        0.0000 
     51 N         110.6250  -31.4840   15.2880 N.am     10 SEL2        0.0000 
     52 N         108.1850  -32.7010   15.5300 N.am      6 SEP2        0.0000 
     53 N         109.8615  -32.3135   14.3805 N.am      2 SEC2        0.0000 
     54 N         109.0980  -33.1430   13.4730 N.am      6 SEP2        0.0000 
     55 N         110.0955  -30.5430   16.5570 N.am      2 SEC2        0.0000 
     56 N         109.5660  -29.6020   17.8260 N.am      6 SEP2        0.0000 
     57 N         110.1730  -30.1080   15.4850 N.am      2 SEC2        0.0000 
     58 N         109.7210  -28.7320   15.6820 N.am      6 SEP2        0.0000 
     59 NZ        112.3585  -32.5725   18.3700 N.4       3 LYC4        0.0000 
     60 NZ        111.9160  -31.4130   17.4340 N.4      11 LYL4        0.0000 
     61 NZ        110.7410  -30.5075   17.6300 N.4       3 LYC4        0.0000 
     62 N         112.3585  -32.5725   18.3700 N.am      2 SEC2        0.0000 
     63 N         111.9160  -31.4130   17.4340 N.am     10 SEL2        0.0000 
     64 N         110.7410  -30.5075   17.6300 N.am      2 SEC2        0.0000 
     65 N         112.6045  -30.8300   18.3200 N.am      2 SEC2        0.0000 
     66 N         113.2930  -30.2470   19.2060 N.am      6 SEP2        0.0000 
     67 CA        114.3097  -27.1740   14.7692 C.3       4 GLC5        0.0000 
     68 CA        115.6150  -27.6880   14.2040 C.3      12 GLL5        0.0000 
     69 CA        114.5697  -28.4032   16.0502 C.3       4 GLC5        0.0000 
     70 CA        116.4670  -29.3190   15.8820 C.3      12 GLL5        0.0000 
     71 CA        117.7021  -30.1924   17.0879 C.3       4 GLC5        0.0000 
     72 CA        119.6200  -29.9970   17.5340 C.3       8 GLP5        0.0000 
@<TRIPOS>BOND
@<TRIPOS>SUBSTRUCTURE
     1 ALC1        8 GROUP        1 X    ALC  0     ROOT ALC X 1
     2 SEC2        1 GROUP        1 X    SEC  0     **** SEC X 2
     3 LYC4       33 GROUP        1 X    LYC  0     **** LYC X 4
     4 GLC5       11 GROUP        1 X    GLC  0     **** GLC X 6
     5 ALP1       10 GROUP        1 Y    ALP  0     ROOT ALP Y 8
     6 SEP2        3 GROUP        1 Y    SEP  0     **** SEP Y 9
     7 LYP4       35 GROUP        1 Y    LYP  0     **** LYP Y 11
     8 GLP5       13 GROUP        1 Y    GLP  0     **** GLP Y 13
     9 ALL1        9 GROUP        1 Z    ALL  0     ROOT ALL Z 15
    10 SEL2        2 GROUP        1 Z    SEL  0     **** SEL Z 16
    11 LYL4       34 GROUP        1 Z    LYL  0     **** LYL Z 18
    12 GLL5       12 GROUP        1 Z    GLL  0     **** GLL Z 20
@<TRIPOS>SET

