#    Name: 4ein_NOH_2_ligand
#    Modification time : Mon Mar 24 17:59:37 2014

@<TRIPOS>MOLECULE
4ein_NOH_2_ligand
   32    33     1     0     0
SMALL
NO_CHARGES


@<TRIPOS>ATOM
      1 O2        117.6790  -26.9770   17.0720 O.2       1 NOH501      0.0000 
      2 C2        116.9950  -26.9000   16.0300 C.2       1 NOH501      0.0000 
      3 N3        116.8080  -25.6670   15.4490 N.2       1 NOH501      0.0000 
      4 C4        116.1120  -25.3660   14.2900 C.2       1 NOH501      0.0000 
      5 N4        116.0810  -24.1530   13.8630 N.pl3     1 NOH501      0.0000 
      6 O4        115.3420  -23.8090   12.6720 O.2       1 NOH501      0.0000 
      7 C5        115.4680  -26.4620   13.6510 C.2       1 NOH501      0.0000 
      8 C6        115.6150  -27.6880   14.2040 C.2       1 NOH501      0.0000 
      9 N1        116.3290  -27.9270   15.3960 N.am      1 NOH501      0.0000 
     10 C1'       116.4670  -29.3190   15.8820 C.3       1 NOH501      0.0000 
     11 C2'       115.6560  -29.7480   17.0970 C.3       1 NOH501      0.0000 
     12 C3'       115.5070  -31.2420   16.7940 C.3       1 NOH501      0.0000 
     13 O3'       116.7460  -31.9500   16.9660 O.3       1 NOH501      0.0000 
     14 O4'       116.1000  -30.2330   14.8200 O.3       1 NOH501      0.0000 
     15 C4'       115.2470  -31.2540   15.2990 C.3       1 NOH501      0.0000 
     16 C5'       113.7750  -31.0570   14.9470 C.3       1 NOH501      0.0000 
     17 O5'       113.0790  -32.2250   15.3700 O.3       1 NOH501      0.0000 
     18 P         111.6800  -32.1810   16.1410 P.3       1 NOH501      0.0000 
     19 OP1       111.5520  -33.7120   16.3350 O.co2     1 NOH501      0.0000 
     20 OP2       110.6250  -31.4840   15.2880 O.co2     1 NOH501      0.0000 
     21 OP3       111.9160  -31.4130   17.4340 O.co2     1 NOH501      0.0000 
     22 H         116.5719  -23.3601   14.3330 H         1 NOH501      0.0000 
     23 H         114.9248  -26.2959   12.8112 H         1 NOH501      0.0000 
     24 H         115.1789  -28.5286   13.7339 H         1 NOH501      0.0000 
     25 H         117.5327  -29.5166   16.1193 H         1 NOH501      0.0000 
     26 H         114.7172  -29.2886   17.0846 H         1 NOH501      0.0000 
     27 H         116.2168  -29.6177   17.9694 H         1 NOH501      0.0000 
     28 H         114.7015  -31.6392   17.2876 H         1 NOH501      0.0000 
     29 H         115.5789  -32.2231   14.9315 H         1 NOH501      0.0000 
     30 H         113.7047  -30.9051   13.8731 H         1 NOH501      0.0000 
     31 H         113.4248  -30.1642   15.4583 H         1 NOH501      0.0000 
     32 H         116.5136  -32.9137   16.8348 H         1 NOH501      0.0000 
@<TRIPOS>BOND
     1    2    1 2    
     2    3    2 1    
     3    9    2 am   
     4    4    3 2    
     5    5    4 1    
     6    7    4 1    
     7    6    5 1    
     8   22    5 1    
     9    8    7 2    
    10   23    7 1    
    11    9    8 1    
    12   24    8 1    
    13   10    9 1    
    14   11   10 1    
    15   14   10 1    
    16   25   10 1    
    17   12   11 1    
    18   26   11 1    
    19   27   11 1    
    20   13   12 1    
    21   15   12 1    
    22   28   12 1    
    23   32   13 1    
    24   15   14 1    
    25   16   15 1    
    26   29   15 1    
    27   17   16 1    
    28   30   16 1    
    29   31   16 1    
    30   18   17 1    
    31   19   18 ar   
    32   20   18 ar   
    33   21   18 ar   
@<TRIPOS>SUBSTRUCTURE
     1 NOH501      1 GROUP   
@<TRIPOS>SET

