#    Name: 3apd_MMY_1_INTS_M
#    Modification time : Mon Mar 24 17:58:57 2014

@<TRIPOS>MOLECULE
3apd_MMY_1_INTS_M
   76     0     9     0     0
SMALL
NO_CHARGES


@<TRIPOS>ATOM
      1 CA         49.3570   22.0895   31.0835 C.3       3 GLC5        0.0000 
      2 CA         48.7020   20.0630   31.3100 C.3       9 GLL5        0.0000 
      3 CA         50.0120   24.1160   30.8570 C.3       6 GLP5        0.0000 
      4 CA         45.7025   13.7445   32.2415 C.3       3 GLC5        0.0000 
      5 CA         45.4080   14.4860   30.6820 C.3       9 GLL5        0.0000 
      6 CA         45.9970   13.0030   33.8010 C.3       6 GLP5        0.0000 
      7 CA         45.3800   15.2290   29.4230 C.3       3 GLC5        0.0000 
      8 CA         45.3520   15.9720   28.1640 C.3       6 GLP5        0.0000 
      9 CA         45.8240   12.6635   31.6385 C.3       3 GLC5        0.0000 
     10 CA         45.6510   12.3240   29.4760 C.3       9 GLL5        0.0000 
     11 CA         44.5365   10.9660   30.3610 C.3       3 GLC5        0.0000 
     12 CA         43.4220    9.6080   31.2460 C.3       6 GLP5        0.0000 
     13 CA         44.1465   13.3340   28.2175 C.3       3 GLC5        0.0000 
     14 CA         42.6420   14.3440   26.9590 C.3       6 GLP5        0.0000 
     15 CA         45.0445   11.0725   26.9735 C.3       3 GLC5        0.0000 
     16 CA         46.3290   11.9750   28.1530 C.3       9 GLL5        0.0000 
     17 CA         43.7600   10.1700   25.7940 C.3       6 GLP5        0.0000 
     18 CA         47.7950   10.7685   29.1665 C.3       3 GLC5        0.0000 
     19 CA         49.2610    9.5620   30.1800 C.3       6 GLP5        0.0000 
     20 CA         47.2320   10.8900   26.6520 C.3       3 GLC5        0.0000 
     21 CA         48.1350    9.8050   25.1510 C.3       6 GLP5        0.0000 
     22 CA         46.1280   12.5990   26.3715 C.3       3 GLC5        0.0000 
     23 CA         45.9270   13.2230   24.5900 C.3       6 GLP5        0.0000 
     24 N          48.6230   11.0605   28.0690 N.am      2 SEC2        0.0000 
     25 N          47.7640   12.0190   28.3020 N.am      8 SEL2        0.0000 
     26 N          49.4820   10.1020   27.8360 N.am      5 SEP2        0.0000 
     27 CA         48.7250   12.0815   27.0260 C.3       3 GLC5        0.0000 
     28 CA         48.1750   13.3770   28.5880 C.3       9 GLL5        0.0000 
     29 CA         49.2750   10.7860   25.4640 C.3       6 GLP5        0.0000 
     30 CA         47.6415   13.6490   26.4940 C.3       3 GLC5        0.0000 
     31 CA         47.1080   13.9210   24.4000 C.3       6 GLP5        0.0000 
     32 CA         49.0440   14.3655   31.5935 C.3       3 GLC5        0.0000 
     33 CA         47.6980   13.7330   30.0000 C.3       9 GLL5        0.0000 
     34 CA         50.3900   14.9980   33.1870 C.3       6 GLP5        0.0000 
     35 CA         46.8475   13.3680   31.9005 C.3       3 GLC5        0.0000 
     36 CA         41.4120   14.2305   29.2935 C.3       3 GLC5        0.0000 
     37 CA         41.4590   13.4760   31.1830 C.3       9 GLL5        0.0000 
     38 CA         41.3650   14.9850   27.4040 C.3       6 GLP5        0.0000 
     39 CA         39.6650   14.5620   30.6070 C.3       3 GLC5        0.0000 
     40 CA         37.8710   15.6480   30.0310 C.3       6 GLP5        0.0000 
     41 CA         39.6410   13.7440   34.5410 C.3       3 GLC5        0.0000 
     42 CA         39.4570   13.7230   32.3160 C.3       9 GLL5        0.0000 
     43 CA         39.8250   13.7650   36.7660 C.3       6 GLP5        0.0000 
     44 CA         40.4675   12.2560   32.8165 C.3       3 GLC5        0.0000 
     45 CA         41.4780   10.7890   33.3170 C.3       6 GLP5        0.0000 
     46 CA         38.6640   14.6855   31.1735 C.3       3 GLC5        0.0000 
     47 O          37.6250   13.9185   33.7900 O.2       1 ALC1        0.0000 
     48 O          38.2090   13.3120   32.5330 O.2       7 ALL1        0.0000 
     49 O          37.0410   14.5250   35.0470 O.2       4 ALP1        0.0000 
     50 N          39.5515   15.3985   34.3375 N.am      2 SEC2        0.0000 
     51 N          39.9340   14.7940   32.9780 N.am      8 SEL2        0.0000 
     52 N          39.1690   16.0030   35.6970 N.am      5 SEP2        0.0000 
     53 CA         40.4970   14.4970   34.7730 C.3       3 GLC5        0.0000 
     54 CA         41.1690   15.2290   32.7800 C.3       9 GLL5        0.0000 
     55 CA         39.5200   15.4385   31.4055 C.3       3 GLC5        0.0000 
     56 CA         46.5075   17.3783   33.5187 C.3       3 GLC5        0.0000 
     57 CA         46.4180   18.5890   31.6880 C.3       9 GLL5        0.0000 
     58 CA         45.9790   16.4880   35.3220 C.3       6 GLP5        0.0000 
     59 CA         45.9498   19.9498   29.8022 C.3       3 GLC5        0.0000 
     60 CA         45.4940   20.6230   28.0400 C.3       6 GLP5        0.0000 
     61 CA         44.8770   16.2165   29.9235 C.3       3 GLC5        0.0000 
     62 CA         45.0570   16.6410   31.5230 C.3       9 GLL5        0.0000 
     63 CA         44.0885   15.6003   29.7868 C.3       3 GLC5        0.0000 
     64 CA         43.2940   14.9940   31.5750 C.3       9 GLL5        0.0000 
     65 CA         42.3000   16.9490   28.7260 C.3       6 GLP5        0.0000 
     66 CA         45.6710   14.0607   28.4892 C.3       3 GLC5        0.0000 
     67 CA         49.4967   12.3720   30.0190 C.3       3 GLC5        0.0000 
     68 CA         51.0570   11.1890   30.7440 C.3       6 GLP5        0.0000 
     69 CA         46.6442   14.7635   28.7290 C.3       3 GLC5        0.0000 
     70 CA         44.9225   14.3652   32.7150 C.3       3 GLC5        0.0000 
     71 CA         42.4695   15.8670   30.2210 C.3       3 GLC5        0.0000 
     72 CA         41.4616   12.7082   32.7335 C.3       3 GLC5        0.0000 
     73 CA         41.9840   14.5760   31.8570 C.3       9 GLL5        0.0000 
     74 CA         44.9729   16.8603   33.6917 C.3       3 GLC5        0.0000 
     75 CA         43.7470   16.2810   31.8430 C.3       9 GLL5        0.0000 
     76 CA         43.1334   17.0907   30.3937 C.3       3 GLC5        0.0000 
@<TRIPOS>BOND
@<TRIPOS>SUBSTRUCTURE
     1 ALC1       47 GROUP        1 X    ALC  0     ROOT ALC X 1
     2 SEC2       24 GROUP        1 X    SEC  0     **** SEC X 2
     3 GLC5        1 GROUP        1 X    GLC  0     **** GLC X 6
     4 ALP1       49 GROUP        1 Y    ALP  0     ROOT ALP Y 8
     5 SEP2       26 GROUP        1 Y    SEP  0     **** SEP Y 9
     6 GLP5        3 GROUP        1 Y    GLP  0     **** GLP Y 13
     7 ALL1       48 GROUP        1 Z    ALL  0     ROOT ALL Z 15
     8 SEL2       25 GROUP        1 Z    SEL  0     **** SEL Z 16
     9 GLL5        2 GROUP        1 Z    GLL  0     **** GLL Z 20
@<TRIPOS>SET

