#    Name: 3apd_MMY_1_ligand
#    Modification time : Mon Mar 24 17:58:57 2014

@<TRIPOS>MOLECULE
3apd_MMY_1_ligand
   48    52     1     0     0
SMALL
NO_CHARGES


@<TRIPOS>ATOM
      1 C1         47.6540   17.9480   31.7430 C.ar      1 MMY1        0.0000 
      2 C2         48.8060   18.6980   31.5510 C.ar      1 MMY1        0.0000 
      3 C3         48.7020   20.0630   31.3100 C.ar      1 MMY1        0.0000 
      4 N4         47.5140   20.6490   31.2670 N.ar      1 MMY1        0.0000 
      5 C5         46.3930   19.9640   31.4410 C.ar      1 MMY1        0.0000 
      6 C6         46.4180   18.5890   31.6880 C.ar      1 MMY1        0.0000 
      7 N7         45.2680   17.9170   31.8680 N.pl3     1 MMY1        0.0000 
      8 C8         44.0470   18.5600   32.4030 C.3       1 MMY1        0.0000 
      9 C9         43.0160   17.4480   32.4770 C.3       1 MMY1        0.0000 
     10 C10        43.7470   16.2810   31.8430 C.ar      1 MMY1        0.0000 
     11 C11        45.0570   16.6410   31.5230 C.ar      1 MMY1        0.0000 
     12 N12        45.8600   15.7240   30.9510 N.ar      1 MMY1        0.0000 
     13 C13        45.4080   14.4860   30.6820 C.ar      1 MMY1        0.0000 
     14 N14        46.2400   13.5370   30.0770 N.3       1 MMY1        0.0000 
     15 C15        45.6510   12.3240   29.4760 C.3       1 MMY1        0.0000 
     16 C16        46.3290   11.9750   28.1530 C.3       1 MMY1        0.0000 
     17 O17        47.7640   12.0190   28.3020 O.3       1 MMY1        0.0000 
     18 C18        48.1750   13.3770   28.5880 C.3       1 MMY1        0.0000 
     19 C19        47.6980   13.7330   30.0000 C.3       1 MMY1        0.0000 
     20 N20        44.1470   14.1400   30.9800 N.ar      1 MMY1        0.0000 
     21 C21        43.2940   14.9940   31.5750 C.ar      1 MMY1        0.0000 
     22 C22        41.9840   14.5760   31.8570 C.ar      1 MMY1        0.0000 
     23 C23        41.4590   13.4760   31.1830 C.ar      1 MMY1        0.0000 
     24 N24        40.2280   13.0750   31.4230 N.ar      1 MMY1        0.0000 
     25 C25        39.4570   13.7230   32.3160 C.ar      1 MMY1        0.0000 
     26 N26        38.2090   13.3120   32.5330 N.pl3     1 MMY1        0.0000 
     27 N29        39.9340   14.7940   32.9780 N.ar      1 MMY1        0.0000 
     28 C30        41.1690   15.2290   32.7800 C.ar      1 MMY1        0.0000 
     29 H          47.7086   16.9451   31.9214 H         1 MMY1        0.0000 
     30 H          49.7273   18.2494   31.5865 H         1 MMY1        0.0000 
     31 H          49.5815   20.6043   31.1657 H         1 MMY1        0.0000 
     32 H          45.4580   20.4315   31.3987 H         1 MMY1        0.0000 
     33 H          43.6960   19.3231   31.7374 H         1 MMY1        0.0000 
     34 H          44.2207   18.9465   33.3875 H         1 MMY1        0.0000 
     35 H          42.1684   17.7026   31.8978 H         1 MMY1        0.0000 
     36 H          42.7924   17.2298   33.4875 H         1 MMY1        0.0000 
     37 H          44.5805   12.4709   29.2882 H         1 MMY1        0.0000 
     38 H          45.7575   11.4697   30.1555 H         1 MMY1        0.0000 
     39 H          45.9843   12.6900   27.3972 H         1 MMY1        0.0000 
     40 H          45.9896   10.9773   27.8517 H         1 MMY1        0.0000 
     41 H          47.7297   14.0837   27.8928 H         1 MMY1        0.0000 
     42 H          49.2564   13.4810   28.5605 H         1 MMY1        0.0000 
     43 H          48.2126   13.0900   30.7093 H         1 MMY1        0.0000 
     44 H          47.9601   14.7685   30.2007 H         1 MMY1        0.0000 
     45 H          42.0708   12.9908   30.4917 H         1 MMY1        0.0000 
     46 H          37.7451   12.8850   31.7568 H         1 MMY1        0.0000 
     47 H          37.8482   13.4674   33.4526 H         1 MMY1        0.0000 
     48 H          41.5548   16.0430   33.2897 H         1 MMY1        0.0000 
@<TRIPOS>BOND
     1    2    1 ar   
     2    6    1 ar   
     3   29    1 1    
     4    3    2 ar   
     5   30    2 1    
     6    4    3 ar   
     7   31    3 1    
     8    5    4 ar   
     9    6    5 ar   
    10   32    5 1    
    11    7    6 1    
    12    8    7 1    
    13   11    7 1    
    14    9    8 1    
    15   33    8 1    
    16   34    8 1    
    17   10    9 1    
    18   35    9 1    
    19   36    9 1    
    20   11   10 ar   
    21   21   10 ar   
    22   12   11 ar   
    23   13   12 ar   
    24   14   13 1    
    25   20   13 ar   
    26   15   14 1    
    27   19   14 1    
    28   16   15 1    
    29   37   15 1    
    30   38   15 1    
    31   17   16 1    
    32   39   16 1    
    33   40   16 1    
    34   18   17 1    
    35   19   18 1    
    36   41   18 1    
    37   42   18 1    
    38   43   19 1    
    39   44   19 1    
    40   21   20 ar   
    41   22   21 1    
    42   23   22 ar   
    43   28   22 ar   
    44   24   23 ar   
    45   45   23 1    
    46   25   24 ar   
    47   26   25 1    
    48   27   25 ar   
    49   46   26 1    
    50   47   26 1    
    51   28   27 ar   
    52   48   28 1    
@<TRIPOS>SUBSTRUCTURE
     1 MMY1        1 GROUP   
@<TRIPOS>SET

