#    Name: 4g1c_CNA_1_INTS_M
#    Modification time : Mon Mar 24 21:09:36 2014

@<TRIPOS>MOLECULE
4g1c_CNA_1_INTS_M
  122     0     9     0     0
SMALL
NO_CHARGES


@<TRIPOS>ATOM
      1 N          20.5330    6.0425   20.9460 N.am      2 SEC2        0.0000 
      2 N          20.0420    7.2080   20.4450 N.am      8 SEL2        0.0000 
      3 N          21.0240    4.8770   21.4470 N.am      5 SEP2        0.0000 
      4 N          21.8945    8.2915   18.7945 N.am      2 SEC2        0.0000 
      5 N          20.5230    8.3430   18.1370 N.am      8 SEL2        0.0000 
      6 N          23.2660    8.2400   19.4520 N.am      5 SEP2        0.0000 
      7 N          20.2805    7.6460   16.8915 N.am      2 SEC2        0.0000 
      8 N          20.0380    6.9490   15.6460 N.am      5 SEP2        0.0000 
      9 N          19.7735    8.9465   17.1740 N.am      2 SEC2        0.0000 
     10 N          19.0240    9.5500   16.2110 N.am      5 SEP2        0.0000 
     11 N          18.6860    8.2675   17.2830 N.am      2 SEC2        0.0000 
     12 N          18.3480    6.9850   18.3550 N.am      8 SEL2        0.0000 
     13 CA         18.4030    5.5975   20.7850 C.3       3 GLC5        0.0000 
     14 CA         17.7910    5.7540   18.8040 C.3       9 GLL5        0.0000 
     15 CA         19.0150    5.4410   22.7660 C.3       6 GLP5        0.0000 
     16 CA         16.7595    4.8680   20.3960 C.3       3 GLC5        0.0000 
     17 CA         15.7280    3.9820   21.9880 C.3       6 GLP5        0.0000 
     18 CA         15.9620    6.5130   18.7335 C.3       3 GLC5        0.0000 
     19 CA         14.1330    7.2720   18.6630 C.3       6 GLP5        0.0000 
     20 CA         18.0235    7.1850   17.1345 C.3       3 GLC5        0.0000 
     21 CA         18.2560    8.6160   15.4650 C.3       6 GLP5        0.0000 
     22 CA         18.2530    3.1615   18.9725 C.3       3 GLC5        0.0000 
     23 CA         17.8450    4.7770   17.6280 C.3       9 GLL5        0.0000 
     24 CA         18.6610    1.5460   20.3170 C.3       6 GLP5        0.0000 
     25 CA         19.3155    3.1590   17.4255 C.3       3 GLC5        0.0000 
     26 CA         20.7860    1.5410   17.2230 C.3       6 GLP5        0.0000 
     27 N          17.9830    3.8720   14.7910 N.am      2 SEC2        0.0000 
     28 N          17.2610    4.9200   15.2820 N.am      8 SEL2        0.0000 
     29 N          18.7050    2.8240   14.3000 N.am      5 SEP2        0.0000 
     30 O          16.9720    3.4040   14.5960 O.2       1 ALC1        0.0000 
     31 O          17.2610    4.9200   15.2820 O.2       7 ALL1        0.0000 
     32 O          16.6830    1.8880   13.9100 O.2       4 ALP1        0.0000 
     33 O          15.8635    2.6875   14.8250 O.2       1 ALC1        0.0000 
     34 O          15.0440    3.4870   15.7400 O.2       7 ALL1        0.0000 
     35 CA         17.6905    2.1815   18.8320 C.3       3 GLC5        0.0000 
     36 CA         16.7200    2.8170   17.3470 C.3       9 GLL5        0.0000 
     37 CA         18.7530    2.1790   17.2850 C.3       3 GLC5        0.0000 
     38 CA         15.9185   -0.4685   20.6275 C.3       3 GLC5        0.0000 
     39 CA         16.2800   -0.6140   18.5220 C.3       9 GLL5        0.0000 
     40 CA         15.5570   -0.3230   22.7330 C.3       6 GLP5        0.0000 
     41 CA         16.3580   -3.6355   17.8050 C.3       3 GLC5        0.0000 
     42 CA         16.6380   -1.9040   18.5670 C.3       9 GLL5        0.0000 
     43 CA         16.0780   -5.3670   17.0430 C.3       6 GLP5        0.0000 
     44 CA         18.6595   -2.7440   18.9125 C.3       3 GLC5        0.0000 
     45 CA         20.6810   -3.5840   19.2580 C.3       6 GLP5        0.0000 
     46 O          16.5625   -3.9875   19.8825 O.2       1 ALC1        0.0000 
     47 O          15.9300   -2.7010   19.3730 O.2       7 ALL1        0.0000 
     48 O          17.1950   -5.2740   20.3920 O.2       4 ALP1        0.0000 
     49 N          18.0675   -3.7160   17.6275 N.am      2 SEC2        0.0000 
     50 N          17.6580   -2.3710   17.8410 N.am      8 SEL2        0.0000 
     51 N          18.4770   -5.0610   17.4140 N.am      5 SEP2        0.0000 
     52 CA         18.5060    0.0285   18.6635 C.3       3 GLC5        0.0000 
     53 CA         18.3510   -1.4890   17.0100 C.3       9 GLL5        0.0000 
     54 CA         19.5685    0.0260   17.1165 C.3       3 GLC5        0.0000 
     55 CA         18.4090   -1.0265   15.2310 C.3       3 GLC5        0.0000 
     56 CA         18.4670   -0.5640   13.4520 C.3       6 GLP5        0.0000 
     57 CA         16.2090   -1.8385   16.4630 C.3       3 GLC5        0.0000 
     58 CA         14.0670   -2.1880   15.9160 C.3       6 GLP5        0.0000 
     59 CA         17.2145   -3.4280   17.0265 C.3       3 GLC5        0.0000 
     60 CA         19.5800   -2.8745   17.2960 C.3       3 GLC5        0.0000 
     61 CA         20.8090   -4.2600   17.5820 C.3       6 GLP5        0.0000 
     62 CA         18.8665    0.9045   17.4905 C.3       3 GLC5        0.0000 
     63 CA         16.9470    0.2680   17.7580 C.3       9 GLL5        0.0000 
     64 N          18.8310    9.3385   17.8830 N.am      2 SEC2        0.0000 
     65 N          18.6380    9.1270   19.5550 N.am      8 SEL2        0.0000 
     66 N          15.9465    8.0495   22.1530 N.am      2 SEC2        0.0000 
     67 N          16.9020    7.9340   21.1660 N.am      8 SEL2        0.0000 
     68 N          14.9910    8.1650   23.1400 N.am      5 SEP2        0.0000 
     69 CA         20.4165   13.3405   22.5500 C.3       3 GLC5        0.0000 
     70 CA         20.4710   11.2080   22.4620 C.3       9 GLL5        0.0000 
     71 CA         20.3620   15.4730   22.6380 C.3       6 GLP5        0.0000 
     72 N          24.5165   10.9595   22.5585 N.am      2 SEC2        0.0000 
     73 N          22.8550   10.5850   22.1920 N.am      8 SEL2        0.0000 
     74 N          26.1780   11.3340   22.9250 N.am      5 SEP2        0.0000 
     75 CA         20.0885    7.2110   22.7705 C.3       3 GLC5        0.0000 
     76 CA         21.1620    8.9810   22.7750 C.3       9 GLL5        0.0000 
     77 N          22.7700    8.1550   21.0725 N.am      2 SEC2        0.0000 
     78 N          22.2740    8.0700   22.6930 N.am      8 SEL2        0.0000 
     79 O          22.6390    6.6590   23.1935 O.2       1 ALC1        0.0000 
     80 O          22.2740    8.0700   22.6930 O.2       7 ALL1        0.0000 
     81 O          23.0040    5.2480   23.6940 O.2       4 ALP1        0.0000 
     82 CA         22.9530    6.8890   25.5270 C.3       3 GLC5        0.0000 
     83 CA         20.9500    7.5240   25.6550 C.3       9 GLL5        0.0000 
     84 CA         24.9560    6.2540   25.3990 C.3       6 GLP5        0.0000 
     85 N          23.5320    6.3955   27.6245 N.am      2 SEC2        0.0000 
     86 N          22.1260    5.8100   27.5520 N.am      8 SEL2        0.0000 
     87 N          24.9380    6.9810   27.6970 N.am      5 SEP2        0.0000 
     88 O          21.4245    3.3565   27.4200 O.2       1 ALC1        0.0000 
     89 O          20.5420    4.3260   26.9430 O.2       7 ALL1        0.0000 
     90 O          22.3070    2.3870   27.8970 O.2       4 ALP1        0.0000 
     91 O          19.3790    3.8130   26.2220 O.2       1 ALC1        0.0000 
     92 O          18.2160    3.3000   25.5010 O.2       4 ALP1        0.0000 
     93 CA         18.3155    4.9325   27.7995 C.3       3 GLC5        0.0000 
     94 CA         18.9040    6.5940   26.5400 C.3       9 GLL5        0.0000 
     95 CA         17.7270    3.2710   29.0590 C.3       6 GLP5        0.0000 
     96 CA         16.7280    6.7110   24.7865 C.3       3 GLC5        0.0000 
     97 CA         18.1790    7.6060   25.9070 C.3       9 GLL5        0.0000 
     98 CA         15.2770    5.8160   23.6660 C.3       6 GLP5        0.0000 
     99 CA         17.0940    9.5945   24.1650 C.3       3 GLC5        0.0000 
    100 CA         18.8340    8.5830   25.1440 C.3       9 GLL5        0.0000 
    101 CA         15.3540   10.6060   23.1860 C.3       6 GLP5        0.0000 
    102 CA         19.6325    5.2198   17.3220 C.3       3 GLC5        0.0000 
    103 CA         21.4470    5.1740   16.4280 C.3       6 GLP5        0.0000 
    104 CA         18.2115    6.2595   15.9075 C.3       3 GLC5        0.0000 
    105 CA         19.1520    7.6320   14.7100 C.3       6 GLP5        0.0000 
    106 CA         15.1650    5.8535   17.7140 C.3       3 GLC5        0.0000 
    107 CA         16.6970    4.9970   16.5820 C.3       9 GLL5        0.0000 
    108 CA         17.6820    0.5252   19.2341 C.3       3 GLC5        0.0000 
    109 CA         15.3850   -1.3417   17.0336 C.3       3 GLC5        0.0000 
    110 CA         18.4052   11.4787   23.3690 C.3       3 GLC5        0.0000 
    111 CA         19.1340   11.1410   21.6840 C.3       9 GLL5        0.0000 
    112 CA         17.0080   11.7830   24.6650 C.3       6 GLP5        0.0000 
    113 CA         19.1285   11.0875   24.9722 C.3       3 GLC5        0.0000 
    114 CA         20.2370   10.8470   23.9390 C.3       9 GLL5        0.0000 
    115 CA         17.6410   11.9750   25.8820 C.3       6 GLP5        0.0000 
    116 CA         23.3032    8.8878   21.8257 C.3       3 GLC5        0.0000 
    117 CA         25.2920    8.1930   21.3020 C.3       6 GLP5        0.0000 
    118 CA         20.9879   11.6756   20.2912 C.3       3 GLC5        0.0000 
    119 CA         21.4670   10.1840   21.9240 C.3       9 GLL5        0.0000 
    120 CA         21.3410   12.6720   18.5840 C.3       6 GLP5        0.0000 
    121 CA         19.8193    6.2415   24.4012 C.3       3 GLC5        0.0000 
    122 CA         18.8514    6.6413   24.2249 C.3       3 GLC5        0.0000 
@<TRIPOS>BOND
@<TRIPOS>SUBSTRUCTURE
     1 ALC1       30 GROUP        1 X    ALC  0     ROOT ALC X 1
     2 SEC2        1 GROUP        1 X    SEC  0     **** SEC X 2
     3 GLC5       13 GROUP        1 X    GLC  0     **** GLC X 6
     4 ALP1       32 GROUP        1 Y    ALP  0     ROOT ALP Y 8
     5 SEP2        3 GROUP        1 Y    SEP  0     **** SEP Y 9
     6 GLP5       15 GROUP        1 Y    GLP  0     **** GLP Y 13
     7 ALL1       31 GROUP        1 Z    ALL  0     ROOT ALL Z 15
     8 SEL2        2 GROUP        1 Z    SEL  0     **** SEL Z 16
     9 GLL5       14 GROUP        1 Z    GLL  0     **** GLL Z 20
@<TRIPOS>SET

