#    Name: 4g1c_CNA_1_ligand
#    Modification time : Mon Mar 24 21:09:36 2014

@<TRIPOS>MOLECULE
4g1c_CNA_1_ligand
   72    76     1     0     0
SMALL
NO_CHARGES


@<TRIPOS>ATOM
      1 PA         19.5140    7.8540   19.1180 P.3       1 CNA402      0.0000 
      2 O1A        20.0420    7.2080   20.4450 O.co2     1 CNA402      0.0000 
      3 O2A        20.5230    8.3430   18.1370 O.co2     1 CNA402      0.0000 
      4 O5B        18.3480    6.9850   18.3550 O.3       1 CNA402      0.0000 
      5 C5B        17.7910    5.7540   18.8040 C.3       1 CNA402      0.0000 
      6 C4B        17.8450    4.7770   17.6280 C.3       1 CNA402      0.0000 
      7 O4B        17.6930    3.4640   18.1970 O.3       1 CNA402      0.0000 
      8 C3B        16.6970    4.9970   16.5820 C.3       1 CNA402      0.0000 
      9 O3B        17.2610    4.9200   15.2820 O.3       1 CNA402      0.0000 
     10 C2B        15.6970    3.8730   16.9480 C.3       1 CNA402      0.0000 
     11 O2B        15.0440    3.4870   15.7400 O.3       1 CNA402      0.0000 
     12 C1B        16.7200    2.8170   17.3470 C.3       1 CNA402      0.0000 
     13 N9A        16.3260    1.4440   17.8390 N.pl3     1 CNA402      0.0000 
     14 C8A        15.3850    1.3230   18.7800 C.2       1 CNA402      0.0000 
     15 N7A        15.3230    0.0480   19.1650 N.2       1 CNA402      0.0000 
     16 C5A        16.2800   -0.6140   18.5220 C.ar      1 CNA402      0.0000 
     17 C6A        16.6380   -1.9040   18.5670 C.ar      1 CNA402      0.0000 
     18 N6A        15.9300   -2.7010   19.3730 N.pl3     1 CNA402      0.0000 
     19 N1A        17.6580   -2.3710   17.8410 N.ar      1 CNA402      0.0000 
     20 C2A        18.3510   -1.4890   17.0100 C.ar      1 CNA402      0.0000 
     21 N3A        17.9670   -0.1400   16.9830 N.ar      1 CNA402      0.0000 
     22 C4A        16.9470    0.2680   17.7580 C.ar      1 CNA402      0.0000 
     23 O3         18.6380    9.1270   19.5550 O.3       1 CNA402      0.0000 
     24 PN         17.5720    9.1970   20.7360 P.3       1 CNA402      0.0000 
     25 O1N        16.5530   10.3140   20.1950 O.co2     1 CNA402      0.0000 
     26 O2N        16.9020    7.9340   21.1660 O.co2     1 CNA402      0.0000 
     27 O5D        18.3980    9.9290   21.9720 O.3       1 CNA402      0.0000 
     28 C5D        19.1340   11.1410   21.6840 C.3       1 CNA402      0.0000 
     29 C4D        20.4710   11.2080   22.4620 C.3       1 CNA402      0.0000 
     30 C4'        20.2370   10.8470   23.9390 C.3       1 CNA402      0.0000 
     31 C3D        21.4670   10.1840   21.9240 C.3       1 CNA402      0.0000 
     32 O3D        22.8550   10.5850   22.1920 O.3       1 CNA402      0.0000 
     33 C2D        21.1620    8.9810   22.7750 C.3       1 CNA402      0.0000 
     34 O2D        22.2740    8.0700   22.6930 O.3       1 CNA402      0.0000 
     35 C1D        20.9950    9.5530   24.1860 C.3       1 CNA402      0.0000 
     36 N1N        20.2420    8.5580   25.0220 N.pl3     1 CNA402      0.0000 
     37 C2N        20.9500    7.5240   25.6550 C.ar      1 CNA402      0.0000 
     38 C3N        20.2970    6.5600   26.4180 C.ar      1 CNA402      0.0000 
     39 C7N        21.0520    5.5560   27.0190 C.2       1 CNA402      0.0000 
     40 O7N        22.1260    5.8100   27.5520 O.2       1 CNA402      0.0000 
     41 N7N        20.5420    4.3260   26.9430 N.am      1 CNA402      0.0000 
     42 C4N        18.9040    6.5940   26.5400 C.ar      1 CNA402      0.0000 
     43 C5N        18.1790    7.6060   25.9070 C.ar      1 CNA402      0.0000 
     44 C6N        18.8340    8.5830   25.1440 C.ar      1 CNA402      0.0000 
     45 H          16.7520    5.8587   19.1029 H         1 CNA402      0.0000 
     46 H          18.3585    5.3215   19.6230 H         1 CNA402      0.0000 
     47 H          18.7827    4.8703   17.1331 H         1 CNA402      0.0000 
     48 H          16.2565    5.9317   16.8233 H         1 CNA402      0.0000 
     49 H          15.1381    4.1557   17.7259 H         1 CNA402      0.0000 
     50 H          17.3187    2.6272   16.3522 H         1 CNA402      0.0000 
     51 H          14.8353    2.0484   19.1267 H         1 CNA402      0.0000 
     52 H          16.4252   -3.4702   19.7770 H         1 CNA402      0.0000 
     53 H          14.9686   -2.4566   19.4998 H         1 CNA402      0.0000 
     54 H          19.1222   -1.8160   16.4323 H         1 CNA402      0.0000 
     55 H          18.5527   12.0372   21.9527 H         1 CNA402      0.0000 
     56 H          19.3739   11.2199   20.6119 H         1 CNA402      0.0000 
     57 H          20.8822   12.1769   22.4010 H         1 CNA402      0.0000 
     58 H          19.1910   10.6958   24.1040 H         1 CNA402      0.0000 
     59 H          20.6294   11.6253   24.5590 H         1 CNA402      0.0000 
     60 H          21.2686    9.9759   20.9332 H         1 CNA402      0.0000 
     61 H          20.2491    8.5612   22.4629 H         1 CNA402      0.0000 
     62 H          21.9494    9.7618   24.5722 H         1 CNA402      0.0000 
     63 H          21.9792    7.4820   25.5490 H         1 CNA402      0.0000 
     64 H          19.6610    4.2429   26.4771 H         1 CNA402      0.0000 
     65 H          21.0864    3.5975   27.3587 H         1 CNA402      0.0000 
     66 H          18.4192    5.8802   27.0907 H         1 CNA402      0.0000 
     67 H          17.1541    7.6370   26.0000 H         1 CNA402      0.0000 
     68 H          18.2977    9.3158   24.6738 H         1 CNA402      0.0000 
     69 H          16.6795    4.2755   14.7855 H         1 CNA402      0.0000 
     70 H          15.7383    2.9922   15.2174 H         1 CNA402      0.0000 
     71 H          23.2228    9.8658   22.7815 H         1 CNA402      0.0000 
     72 H          21.9717    7.2486   23.1766 H         1 CNA402      0.0000 
@<TRIPOS>BOND
     1    2    1 ar   
     2    3    1 ar   
     3    4    1 1    
     4   23    1 1    
     5    5    4 1    
     6    6    5 1    
     7   45    5 1    
     8   46    5 1    
     9    7    6 1    
    10    8    6 1    
    11   47    6 1    
    12   12    7 1    
    13    9    8 1    
    14   10    8 1    
    15   48    8 1    
    16   69    9 1    
    17   11   10 1    
    18   12   10 1    
    19   49   10 1    
    20   70   11 1    
    21   13   12 1    
    22   50   12 1    
    23   14   13 1    
    24   22   13 1    
    25   15   14 2    
    26   51   14 1    
    27   16   15 1    
    28   17   16 ar   
    29   22   16 ar   
    30   18   17 1    
    31   19   17 ar   
    32   52   18 1    
    33   53   18 1    
    34   20   19 ar   
    35   21   20 ar   
    36   54   20 1    
    37   22   21 ar   
    38   24   23 1    
    39   25   24 ar   
    40   26   24 ar   
    41   27   24 1    
    42   28   27 1    
    43   29   28 1    
    44   55   28 1    
    45   56   28 1    
    46   30   29 1    
    47   31   29 1    
    48   57   29 1    
    49   35   30 1    
    50   58   30 1    
    51   59   30 1    
    52   32   31 1    
    53   33   31 1    
    54   60   31 1    
    55   71   32 1    
    56   34   33 1    
    57   35   33 1    
    58   61   33 1    
    59   72   34 1    
    60   36   35 1    
    61   62   35 1    
    62   37   36 ar   
    63   44   36 ar   
    64   38   37 ar   
    65   63   37 1    
    66   39   38 1    
    67   42   38 ar   
    68   40   39 2    
    69   41   39 am   
    70   64   41 1    
    71   65   41 1    
    72   43   42 ar   
    73   66   42 1    
    74   44   43 ar   
    75   67   43 1    
    76   68   44 1    
@<TRIPOS>SUBSTRUCTURE
     1 CNA402      1 GROUP   
@<TRIPOS>SET

