#    Name: 1ek5_NAD_1_INTS_M
#    Modification time : Tue Mar 25 00:02:27 2014

@<TRIPOS>MOLECULE
1ek5_NAD_1_INTS_M
   99     0    12     0     0
SMALL
NO_CHARGES


@<TRIPOS>ATOM
      1 NZ         -1.7330   18.0940   56.3435 N.4       3 LYC4        0.0000 
      2 NZ         -3.3720   17.2520   55.8680 N.4      11 LYL4        0.0000 
      3 NZ         -0.0940   18.9360   56.8190 N.4       7 LYP4        0.0000 
      4 N          -3.7130   18.4635   56.6140 N.am      2 SEC2        0.0000 
      5 N          -3.3720   17.2520   55.8680 N.am     10 SEL2        0.0000 
      6 N          -4.0540   19.6750   57.3600 N.am      6 SEP2        0.0000 
      7 N          -3.1115   18.5075   52.2335 N.am      2 SEC2        0.0000 
      8 N          -3.0210   18.3310   53.6600 N.am     10 SEL2        0.0000 
      9 N          -3.2020   18.6840   50.8070 N.am      6 SEP2        0.0000 
     10 CA         -6.4860   13.4710   53.1750 C.3       4 GLC5        0.0000 
     11 CA         -5.7590   14.7770   54.3320 C.3      12 GLL5        0.0000 
     12 CA         -7.2130   12.1650   52.0180 C.3       8 GLP5        0.0000 
     13 O          -8.1510   15.5460   53.1640 O.2       1 ALC1        0.0000 
     14 O          -7.4070   16.3550   53.7600 O.2       9 ALL1        0.0000 
     15 O          -8.8950   14.7370   52.5680 O.2       5 ALP1        0.0000 
     16 CA         -8.3575   15.5785   57.9060 C.3       4 GLC5        0.0000 
     17 CA         -7.3070   15.4070   56.0120 C.3      12 GLL5        0.0000 
     18 CA         -9.4080   15.7500   59.8000 C.3       8 GLP5        0.0000 
     19 N          -8.5880   17.0910   56.9835 N.am      2 SEC2        0.0000 
     20 N          -8.5790   16.0390   56.1400 N.am     10 SEL2        0.0000 
     21 N          -8.5970   18.1430   57.8270 N.am      6 SEP2        0.0000 
     22 O          -9.4225   15.6615   55.1730 O.2       1 ALC1        0.0000 
     23 O          -8.5790   16.0390   56.1400 O.2       9 ALL1        0.0000 
     24 O         -10.2660   15.2840   54.2060 O.2       5 ALP1        0.0000 
     25 CA         -7.3770   13.0790   53.7680 C.3       4 GLC5        0.0000 
     26 CA         -7.5410   13.9930   55.5180 C.3      12 GLL5        0.0000 
     27 CA        -11.2275   11.5715   57.8400 C.3       4 GLC5        0.0000 
     28 CA         -9.4490   10.4060   58.1130 C.3      12 GLL5        0.0000 
     29 CA        -13.0060   12.7370   57.5670 C.3       8 GLP5        0.0000 
     30 CA        -11.4990    9.5475   57.8435 C.3       4 GLC5        0.0000 
     31 CA        -13.5490    8.6890   57.5740 C.3       8 GLP5        0.0000 
     32 CA         -9.1560    8.4455   57.8170 C.3       4 GLC5        0.0000 
     33 CA         -8.8630    6.4850   57.5210 C.3       8 GLP5        0.0000 
     34 O         -10.6385    9.0805   59.6115 O.2       1 ALC1        0.0000 
     35 O          -9.5040    9.7640   59.2780 O.2       9 ALL1        0.0000 
     36 O         -11.7730    8.3970   59.9450 O.2       5 ALP1        0.0000 
     37 N         -11.0195    8.5500   57.1380 N.am      2 SEC2        0.0000 
     38 N         -10.2660   10.0040   57.1010 N.am     10 SEL2        0.0000 
     39 N         -11.7730    7.0960   57.1750 N.am      6 SEP2        0.0000 
     40 CA        -10.9890   11.7350   54.4215 C.3       4 GLC5        0.0000 
     41 CA        -10.2380   10.6710   55.9100 C.3      12 GLL5        0.0000 
     42 CA        -11.7400   12.7990   52.9330 C.3       8 GLP5        0.0000 
     43 CA        -11.6220   11.7040   56.7385 C.3       4 GLC5        0.0000 
     44 CA        -11.8935    9.6800   56.7420 C.3       4 GLC5        0.0000 
     45 CA         -9.9315    8.5480   55.5135 C.3       4 GLC5        0.0000 
     46 CA         -9.6250    6.4250   55.1170 C.3       8 GLP5        0.0000 
     47 CA         -8.4435    9.9075   55.2940 C.3       4 GLC5        0.0000 
     48 CA         -6.6490    9.1440   54.6780 C.3       8 GLP5        0.0000 
     49 N         -10.8870   12.4910   55.4110 N.am      2 SEC2        0.0000 
     50 N          -9.4680   11.6530   55.5860 N.am     10 SEL2        0.0000 
     51 N         -12.3060   13.3290   55.2360 N.am      6 SEP2        0.0000 
     52 N          -0.7515   17.8045   55.6680 N.am      2 SEC2        0.0000 
     53 N          -1.4090   16.6730   54.5170 N.am     10 SEL2        0.0000 
     54 N          -0.0940   18.9360   56.8190 N.am      6 SEP2        0.0000 
     55 N          -0.9410   16.9940   50.8015 N.am      2 SEC2        0.0000 
     56 N          -0.9140   16.7090   52.1400 N.am     10 SEL2        0.0000 
     57 N          -0.9680   17.2790   49.4630 N.am      6 SEP2        0.0000 
     58 CA         -1.9605   12.3140   52.3600 C.3       4 GLC5        0.0000 
     59 CA         -0.9440   13.5360   53.7450 C.3      12 GLL5        0.0000 
     60 CA         -2.9770   11.0920   50.9750 C.3       8 GLP5        0.0000 
     61 CA         -0.3970   14.4895   55.6555 C.3       4 GLC5        0.0000 
     62 CA          0.1500   15.4430   57.5660 C.3       8 GLP5        0.0000 
     63 CA          1.2905   13.3540   56.8570 C.3       4 GLC5        0.0000 
     64 CA          1.4600   12.1920   55.4330 C.3      12 GLL5        0.0000 
     65 CA          1.1210   14.5160   58.2810 C.3       8 GLP5        0.0000 
     66 CA          2.8460   12.1435   57.0995 C.3       4 GLC5        0.0000 
     67 CA          4.2320   12.0950   58.7660 C.3       8 GLP5        0.0000 
     68 N           3.1405   11.7060   56.8935 N.am      2 SEC2        0.0000 
     69 N           2.0810   11.3640   56.4250 N.am     10 SEL2        0.0000 
     70 N           4.2000   12.0480   57.3620 N.am      6 SEP2        0.0000 
     71 N           2.1375   10.0075   56.2155 N.am      2 SEC2        0.0000 
     72 N           2.1940    8.6510   56.0060 N.am      6 SEP2        0.0000 
     73 CA          2.4085   13.7080   52.4470 C.3       4 GLC5        0.0000 
     74 CA          2.2360   12.2340   54.1210 C.3      12 GLL5        0.0000 
     75 CA          2.5810   15.1820   50.7730 C.3       8 GLP5        0.0000 
     76 CA          3.6565   12.2535   52.5300 C.3       4 GLC5        0.0000 
     77 CA          5.0770   12.2730   50.9390 C.3       8 GLP5        0.0000 
     78 CA          2.1610   14.4855   56.3335 C.3       4 GLC5        0.0000 
     79 CA          3.2010   14.4550   54.3860 C.3      12 GLL5        0.0000 
     80 CA          4.7885   16.5535   53.1520 C.3       4 GLC5        0.0000 
     81 CA          4.3230   15.1840   54.6770 C.3      12 GLL5        0.0000 
     82 CA          5.2540   17.9230   51.6270 C.3       8 GLP5        0.0000 
     83 CA          6.1455   16.2390   53.4735 C.3       4 GLC5        0.0000 
     84 CA          5.6320   14.6830   54.7070 C.3      12 GLL5        0.0000 
     85 CA          6.6590   17.7950   52.2400 C.3       8 GLP5        0.0000 
     86 CA         -5.7250   16.5392   52.8985 C.3       4 GLC5        0.0000 
     87 CA         -5.2960   17.7030   51.2240 C.3       8 GLP5        0.0000 
     88 CA         -6.5775   17.1707   56.6115 C.3       4 GLC5        0.0000 
     89 CA         -6.5490   15.9740   54.8140 C.3      12 GLL5        0.0000 
     90 CA         -6.2270   18.6510   57.8100 C.3       8 GLP5        0.0000 
     91 CA         -7.6233   10.4383   55.9522 C.3       4 GLC5        0.0000 
     92 CA         -8.6220   12.0030   56.5920 C.3      12 GLL5        0.0000 
     93 CA         -1.3010   10.9230   53.1000 C.3       4 GLC5        0.0000 
     94 CA          0.1210   11.5900   54.9710 C.3      12 GLL5        0.0000 
     95 CA         -2.6430    9.8800   51.8880 C.3       8 GLP5        0.0000 
     96 CA          3.1715   15.0008   52.6523 C.3       4 GLC5        0.0000 
     97 CA          6.3498   11.6412   55.3328 C.3       4 GLC5        0.0000 
     98 CA          4.6910   12.5090   54.1930 C.3      12 GLL5        0.0000 
     99 CA          7.4960   10.3580   56.3340 C.3       8 GLP5        0.0000 
@<TRIPOS>BOND
@<TRIPOS>SUBSTRUCTURE
     1 ALC1       13 GROUP        1 X    ALC  0     ROOT ALC X 1
     2 SEC2        4 GROUP        1 X    SEC  0     **** SEC X 2
     3 LYC4        1 GROUP        1 X    LYC  0     **** LYC X 4
     4 GLC5       10 GROUP        1 X    GLC  0     **** GLC X 6
     5 ALP1       15 GROUP        1 Y    ALP  0     ROOT ALP Y 8
     6 SEP2        6 GROUP        1 Y    SEP  0     **** SEP Y 9
     7 LYP4        3 GROUP        1 Y    LYP  0     **** LYP Y 11
     8 GLP5       12 GROUP        1 Y    GLP  0     **** GLP Y 13
     9 ALL1       14 GROUP        1 Z    ALL  0     ROOT ALL Z 15
    10 SEL2        5 GROUP        1 Z    SEL  0     **** SEL Z 16
    11 LYL4        2 GROUP        1 Z    LYL  0     **** LYL Z 18
    12 GLL5       11 GROUP        1 Z    GLL  0     **** GLL Z 20
@<TRIPOS>SET

