#    Name: 1ek5_NAD_1_ligand
#    Modification time : Tue Mar 25 00:02:27 2014

@<TRIPOS>MOLECULE
1ek5_NAD_1_ligand
   70    74     1     0     0
SMALL
NO_CHARGES


@<TRIPOS>ATOM
      1 PA         -2.8930   17.0810   54.4710 P.3       1 NAD400      0.0000 
      2 O1A        -3.3720   17.2520   55.8680 O.co2     1 NAD400      0.0000 
      3 O2A        -3.0210   18.3310   53.6600 O.co2     1 NAD400      0.0000 
      4 O5B        -3.8500   15.9750   53.8510 O.3       1 NAD400      0.0000 
      5 C5B        -4.2700   14.7950   54.5630 C.3       1 NAD400      0.0000 
      6 C4B        -5.7590   14.7770   54.3320 C.3       1 NAD400      0.0000 
      7 O4B        -6.3420   13.6340   54.9700 O.3       1 NAD400      0.0000 
      8 C3B        -6.5490   15.9740   54.8140 C.3       1 NAD400      0.0000 
      9 O3B        -7.4070   16.3550   53.7600 O.3       1 NAD400      0.0000 
     10 C2B        -7.3070   15.4070   56.0120 C.3       1 NAD400      0.0000 
     11 O2B        -8.5790   16.0390   56.1400 O.3       1 NAD400      0.0000 
     12 C1B        -7.5410   13.9930   55.5180 C.3       1 NAD400      0.0000 
     13 N9A        -7.7150   13.0480   56.6110 N.pl3     1 NAD400      0.0000 
     14 C8A        -7.0920   13.0360   57.8410 C.2       1 NAD400      0.0000 
     15 N7A        -7.5860   12.0770   58.6450 N.2       1 NAD400      0.0000 
     16 C5A        -8.5730   11.4620   57.8610 C.ar      1 NAD400      0.0000 
     17 C6A        -9.4490   10.4060   58.1130 C.ar      1 NAD400      0.0000 
     18 N6A        -9.5040    9.7640   59.2780 N.pl3     1 NAD400      0.0000 
     19 N1A       -10.2660   10.0040   57.1010 N.ar      1 NAD400      0.0000 
     20 C2A       -10.2380   10.6710   55.9100 C.ar      1 NAD400      0.0000 
     21 N3A        -9.4680   11.6530   55.5860 N.ar      1 NAD400      0.0000 
     22 C4A        -8.6220   12.0030   56.5920 C.ar      1 NAD400      0.0000 
     23 O3         -1.4090   16.6730   54.5170 O.3       1 NAD400      0.0000 
     24 PN         -0.4100   16.0820   53.3990 P.3       1 NAD400      0.0000 
     25 O1N         0.9580   16.5550   53.7250 O.co2     1 NAD400      0.0000 
     26 O2N        -0.9140   16.7090   52.1400 O.co2     1 NAD400      0.0000 
     27 O5D        -0.2540   14.5480   53.0740 O.3       1 NAD400      0.0000 
     28 C5D        -0.9440   13.5360   53.7450 C.3       1 NAD400      0.0000 
     29 C4D        -0.0390   12.3420   53.6530 C.3       1 NAD400      0.0000 
     30 O4D         1.2830   12.7960   53.2470 O.3       1 NAD400      0.0000 
     31 C3D         0.1210   11.5900   54.9710 C.3       1 NAD400      0.0000 
     32 O3D         0.1850   10.1870   54.7240 O.3       1 NAD400      0.0000 
     33 C2D         1.4600   12.1920   55.4330 C.3       1 NAD400      0.0000 
     34 O2D         2.0810   11.3640   56.4250 O.3       1 NAD400      0.0000 
     35 C1D         2.2360   12.2340   54.1210 C.3       1 NAD400      0.0000 
     36 N1N         3.4230   13.0970   54.2150 N.pl3     1 NAD400      0.0000 
     37 C2N         3.2010   14.4550   54.3860 C.ar      1 NAD400      0.0000 
     38 C3N         4.3230   15.1840   54.6770 C.ar      1 NAD400      0.0000 
     39 C7N         4.1880   16.6630   54.9620 C.2       1 NAD400      0.0000 
     40 O7N         5.2870   17.1680   55.2220 O.2       1 NAD400      0.0000 
     41 N7N         3.0310   17.3770   54.8920 N.am      1 NAD400      0.0000 
     42 C4N         5.6320   14.6830   54.7070 C.ar      1 NAD400      0.0000 
     43 C5N         5.7160   13.3400   54.4700 C.ar      1 NAD400      0.0000 
     44 C6N         4.6910   12.5090   54.1930 C.ar      1 NAD400      0.0000 
     45 H          -4.0805   14.8761   55.6123 H         1 NAD400      0.0000 
     46 H          -3.8416   13.9074   54.1479 H         1 NAD400      0.0000 
     47 H          -5.9417   14.6829   53.2433 H         1 NAD400      0.0000 
     48 H          -5.8824   16.7079   55.1346 H         1 NAD400      0.0000 
     49 H          -6.7124   15.3961   56.8373 H         1 NAD400      0.0000 
     50 H          -8.3273   13.9699   54.8412 H         1 NAD400      0.0000 
     51 H          -6.3734   13.6620   58.0844 H         1 NAD400      0.0000 
     52 H          -8.8892   10.0965   59.9931 H         1 NAD400      0.0000 
     53 H         -10.1552    9.0071   59.3330 H         1 NAD400      0.0000 
     54 H         -10.9610   10.3101   55.1661 H         1 NAD400      0.0000 
     55 H          -1.8849   13.2881   53.2722 H         1 NAD400      0.0000 
     56 H          -1.1044   13.7627   54.7906 H         1 NAD400      0.0000 
     57 H          -0.4221   11.6550   52.9120 H         1 NAD400      0.0000 
     58 H          -0.6299   11.9083   55.6203 H         1 NAD400      0.0000 
     59 H           1.2723   13.1850   55.7430 H         1 NAD400      0.0000 
     60 H           2.4770   11.2433   53.8487 H         1 NAD400      0.0000 
     61 H           2.2950   14.8592   54.3021 H         1 NAD400      0.0000 
     62 H           3.1061   18.3562   55.0805 H         1 NAD400      0.0000 
     63 H           2.2080   16.8594   54.6582 H         1 NAD400      0.0000 
     64 H           6.4118   15.2640   54.8852 H         1 NAD400      0.0000 
     65 H           6.7089   12.9057   54.5103 H         1 NAD400      0.0000 
     66 H           4.8043   11.5356   53.9832 H         1 NAD400      0.0000 
     67 H          -7.5143   15.5313   53.2031 H         1 NAD400      0.0000 
     68 H          -9.1101   15.7121   55.3583 H         1 NAD400      0.0000 
     69 H           0.9126    9.8519   55.3226 H         1 NAD400      0.0000 
     70 H           1.8450   11.7872   57.2998 H         1 NAD400      0.0000 
@<TRIPOS>BOND
     1    2    1 ar   
     2    3    1 ar   
     3    4    1 1    
     4   23    1 1    
     5    5    4 1    
     6    6    5 1    
     7   45    5 1    
     8   46    5 1    
     9    7    6 1    
    10    8    6 1    
    11   47    6 1    
    12   12    7 1    
    13    9    8 1    
    14   10    8 1    
    15   48    8 1    
    16   67    9 1    
    17   11   10 1    
    18   12   10 1    
    19   49   10 1    
    20   68   11 1    
    21   13   12 1    
    22   50   12 1    
    23   14   13 1    
    24   22   13 1    
    25   15   14 2    
    26   51   14 1    
    27   16   15 1    
    28   17   16 ar   
    29   22   16 ar   
    30   18   17 1    
    31   19   17 ar   
    32   52   18 1    
    33   53   18 1    
    34   20   19 ar   
    35   21   20 ar   
    36   54   20 1    
    37   22   21 ar   
    38   24   23 1    
    39   25   24 ar   
    40   26   24 ar   
    41   27   24 1    
    42   28   27 1    
    43   29   28 1    
    44   55   28 1    
    45   56   28 1    
    46   30   29 1    
    47   31   29 1    
    48   57   29 1    
    49   35   30 1    
    50   32   31 1    
    51   33   31 1    
    52   58   31 1    
    53   69   32 1    
    54   34   33 1    
    55   35   33 1    
    56   59   33 1    
    57   70   34 1    
    58   36   35 1    
    59   60   35 1    
    60   37   36 ar   
    61   44   36 ar   
    62   38   37 ar   
    63   61   37 1    
    64   39   38 1    
    65   42   38 ar   
    66   40   39 2    
    67   41   39 am   
    68   62   41 1    
    69   63   41 1    
    70   43   42 ar   
    71   64   42 1    
    72   44   43 ar   
    73   65   43 1    
    74   66   44 1    
@<TRIPOS>SUBSTRUCTURE
     1 NAD400      1 GROUP   
@<TRIPOS>SET

