#    Name: 3w2r_W2R_1_INTS_M
#    Modification time : Tue Mar 25 02:06:19 2014

@<TRIPOS>MOLECULE
3w2r_W2R_1_INTS_M
  117     0     6     0     0
SMALL
NO_CHARGES


@<TRIPOS>ATOM
      1 CA          4.8660   11.3825   48.7910 C.3       2 GLC5        0.0000 
      2 CA          4.6750   10.7990   46.8950 C.3       6 GLL5        0.0000 
      3 CA          5.0570   11.9660   50.6870 C.3       4 GLP5        0.0000 
      4 CA          9.2460    7.9995   46.4350 C.3       2 GLC5        0.0000 
      5 CA          9.3050    8.3340   48.1570 C.3       6 GLL5        0.0000 
      6 CA          9.1870    7.6650   44.7130 C.3       4 GLP5        0.0000 
      7 CA         11.1315    7.4335   47.8110 C.3       2 GLC5        0.0000 
      8 CA         12.9580    6.5330   47.4650 C.3       4 GLP5        0.0000 
      9 CA         10.4680    8.6445   49.8555 C.3       2 GLC5        0.0000 
     10 CA         11.6310    8.9550   51.5540 C.3       4 GLP5        0.0000 
     11 CA          8.6300    9.0290   49.6080 C.3       2 GLC5        0.0000 
     12 CA          7.9550    9.7240   51.0590 C.3       4 GLP5        0.0000 
     13 CA          9.9105    7.0075   50.4775 C.3       2 GLC5        0.0000 
     14 CA          8.3420    6.5280   49.0090 C.3       6 GLL5        0.0000 
     15 CA         11.4790    7.4870   51.9460 C.3       4 GLP5        0.0000 
     16 CA          8.1485    8.1260   50.0340 C.3       2 GLC5        0.0000 
     17 CA          6.7745    5.2305   47.2960 C.3       2 GLC5        0.0000 
     18 CA          7.1150    6.9990   48.5740 C.3       6 GLL5        0.0000 
     19 CA          6.4340    3.4620   46.0180 C.3       4 GLP5        0.0000 
     20 CA          6.8220    7.4770   50.3685 C.3       2 GLC5        0.0000 
     21 CA          6.5290    7.9550   52.1630 C.3       4 GLP5        0.0000 
     22 CA          7.8945   12.7200   45.1675 C.3       2 GLC5        0.0000 
     23 CA          6.3930   11.1810   44.7670 C.3       6 GLL5        0.0000 
     24 CA          9.3960   14.2590   45.5680 C.3       4 GLP5        0.0000 
     25 CA          5.9445    7.5515   46.0945 C.3       2 GLC5        0.0000 
     26 CA          7.0290    8.1880   47.8800 C.3       6 GLL5        0.0000 
     27 CA          4.8600    6.9150   44.3090 C.3       4 GLP5        0.0000 
     28 CA          7.4920    8.9560   49.4695 C.3       2 GLC5        0.0000 
     29 CA          0.5620   21.3500   39.6965 C.3       2 GLC5        0.0000 
     30 CA         -0.7060   19.6670   39.2140 C.3       6 GLL5        0.0000 
     31 CA          1.8300   23.0330   40.1790 C.3       4 GLP5        0.0000 
     32 CA         -2.6270   18.1480   41.0245 C.3       2 GLC5        0.0000 
     33 CA         -1.4180   19.3690   40.5060 C.3       6 GLL5        0.0000 
     34 CA         -3.8360   16.9270   41.5430 C.3       4 GLP5        0.0000 
     35 CA          0.7060   21.2300   40.9120 C.3       2 GLC5        0.0000 
     36 CA         -0.4180   19.4270   41.6450 C.3       6 GLL5        0.0000 
     37 CA          2.3140   20.5605   40.1575 C.3       2 GLC5        0.0000 
     38 CA          1.4260   18.7470   40.1680 C.3       6 GLL5        0.0000 
     39 CA          3.2020   22.3740   40.1470 C.3       4 GLP5        0.0000 
     40 CA          3.3305   19.0045   41.0520 C.3       2 GLC5        0.0000 
     41 CA          5.2350   19.2620   41.9360 C.3       4 GLP5        0.0000 
     42 CA          0.9735   16.6040   40.1775 C.3       2 GLC5        0.0000 
     43 CA          0.6770   18.4010   41.4380 C.3       6 GLL5        0.0000 
     44 CA          1.2700   14.8070   38.9170 C.3       4 GLP5        0.0000 
     45 CA          5.5945    4.7560   47.3595 C.3       2 GLC5        0.0000 
     46 CA          4.7550    6.0500   48.7010 C.3       6 GLL5        0.0000 
     47 CA          4.8075    6.4825   46.5050 C.3       2 GLC5        0.0000 
     48 CA          2.1380   11.5905   49.1375 C.3       2 GLC5        0.0000 
     49 CA          2.3010    9.6130   49.5660 C.3       6 GLL5        0.0000 
     50 CA          1.9750   13.5680   48.7090 C.3       4 GLP5        0.0000 
     51 CA          2.5210    9.9000   52.1230 C.3       2 GLC5        0.0000 
     52 CA          3.0480    8.6650   50.4530 C.3       6 GLL5        0.0000 
     53 CA          1.9940   11.1350   53.7930 C.3       4 GLP5        0.0000 
     54 CA          4.7885    8.3100   51.3080 C.3       2 GLC5        0.0000 
     55 N          10.8925    6.9270   49.3155 N.am      1 SEC2        0.0000 
     56 N           9.4960    7.1960   48.8190 N.am      5 SEL2        0.0000 
     57 N          12.2890    6.6580   49.8120 N.am      3 SEP2        0.0000 
     58 N           1.5155   14.9640   42.9260 N.am      1 SEC2        0.0000 
     59 N           2.0300   16.1120   42.3630 N.am      5 SEL2        0.0000 
     60 N           1.0010   13.8160   43.4890 N.am      3 SEP2        0.0000 
     61 CA          8.3240    9.5405   44.0690 C.3       2 GLC5        0.0000 
     62 CA          7.4610   11.4160   43.4250 C.3       6 GLL5        0.0000 
     63 CA          7.3955   12.8425   41.6975 C.3       2 GLC5        0.0000 
     64 CA          7.3300   14.2690   39.9700 C.3       4 GLP5        0.0000 
     65 CA          8.9280   12.4430   43.8695 C.3       2 GLC5        0.0000 
     66 CA         10.3950   13.4700   44.3140 C.3       4 GLP5        0.0000 
     67 CA          6.9405   15.6457   47.5245 C.3       2 GLC5        0.0000 
     68 CA          5.7160   14.8610   45.9700 C.3       6 GLL5        0.0000 
     69 CA          8.2950   15.8030   48.8170 C.3       4 GLP5        0.0000 
     70 CA          6.8085   16.0697   45.4333 C.3       2 GLC5        0.0000 
     71 CA          5.4560   16.1160   46.4940 C.3       6 GLL5        0.0000 
     72 CA          8.6250   15.6260   44.6950 C.3       4 GLP5        0.0000 
     73 CA          3.8165    9.9602   45.2413 C.3       2 GLC5        0.0000 
     74 CA          4.5450   11.9180   46.1060 C.3       6 GLL5        0.0000 
     75 CA          3.0230    8.5620   43.9820 C.3       4 GLP5        0.0000 
     76 CA          3.2925   12.4632   47.6048 C.3       2 GLC5        0.0000 
     77 CA          7.0055   15.1375   45.0475 C.3       2 GLC5        0.0000 
     78 CA          4.1015   14.7385   46.9525 C.3       2 GLC5        0.0000 
     79 CA          2.8170   14.8280   48.5050 C.3       4 GLP5        0.0000 
     80 CA          3.8338   12.2018   43.9680 C.3       2 GLC5        0.0000 
     81 CA          2.6910   12.3930   42.3600 C.3       4 GLP5        0.0000 
     82 CA          6.9445    4.3085   47.8327 C.3       2 GLC5        0.0000 
     83 CA          6.7800    5.0150   49.6240 C.3       6 GLL5        0.0000 
     84 CA          9.5305    5.0482   48.1255 C.3       2 GLC5        0.0000 
     85 CA          8.1300    5.2950   49.6710 C.3       6 GLL5        0.0000 
     86 CA         10.8250    4.1850   46.9110 C.3       4 GLP5        0.0000 
     87 CA          7.7275    4.3195   51.4898 C.3       2 GLC5        0.0000 
     88 CA          8.0000    3.4840   53.3320 C.3       4 GLP5        0.0000 
     89 CA          6.9920    6.5550   50.9053 C.3       2 GLC5        0.0000 
     90 CA          3.6412   13.6135   43.4360 C.3       2 GLC5        0.0000 
     91 CA          5.0560   14.4370   44.8300 C.3       6 GLL5        0.0000 
     92 CA          5.3765   17.1899   43.7390 C.3       2 GLC5        0.0000 
     93 CA          4.1270   15.2310   44.1940 C.3       6 GLL5        0.0000 
     94 CA          6.5920   18.4180   42.7390 C.3       4 GLP5        0.0000 
     95 CA          4.9207   15.2355   42.5050 C.3       2 GLC5        0.0000 
     96 CA          5.2500   15.6370   40.4980 C.3       4 GLP5        0.0000 
     97 CA          5.4750    8.4400   45.2067 C.3       2 GLC5        0.0000 
     98 CA          6.5170   10.0600   45.5680 C.3       6 GLL5        0.0000 
     99 CA          7.8210    9.1427   44.9403 C.3       2 GLC5        0.0000 
    100 CA          8.1295    7.6293   46.4700 C.3       2 GLC5        0.0000 
    101 CA          3.6220   15.6609   46.9751 C.3       2 GLC5        0.0000 
    102 CA          4.4618   10.1020   44.4442 C.3       2 GLC5        0.0000 
    103 CA          5.4080   12.1030   45.0460 C.3       6 GLL5        0.0000 
    104 CA          5.7450   11.2508   42.6450 C.3       2 GLC5        0.0000 
    105 CA          4.5630   11.2030   41.1940 C.3       4 GLP5        0.0000 
    106 CA          0.3795   19.4320   37.0875 C.3       2 GLC5        0.0000 
    107 CA          0.4580   18.6950   39.0020 C.3       6 GLL5        0.0000 
    108 CA          0.8830   19.6830   35.0670 C.3       4 GLP5        0.0000 
    109 CA         -1.6430   20.9125   41.7922 C.3       2 GLC5        0.0000 
    110 CA         -2.3680   22.4270   42.5090 C.3       4 GLP5        0.0000 
    111 CA          1.8555   17.4400   38.5005 C.3       2 GLC5        0.0000 
    112 CA          2.7690   16.1590   37.4160 C.3       4 GLP5        0.0000 
    113 CA         -1.0478   17.7635   42.4237 C.3       2 GLC5        0.0000 
    114 CA         -2.2250   16.6130   43.3060 C.3       4 GLP5        0.0000 
    115 CA          5.4385    7.1415   50.7150 C.3       2 GLC5        0.0000 
    116 CA          3.9410    6.6060   49.8330 C.3       6 GLL5        0.0000 
    117 CA          3.8658   10.5525   50.3483 C.3       2 GLC5        0.0000 
@<TRIPOS>BOND
@<TRIPOS>SUBSTRUCTURE
     1 SEC2       55 GROUP        1 X    SEC  0     ROOT SEC X 2
     2 GLC5        1 GROUP        1 X    GLC  0     **** GLC X 6
     3 SEP2       57 GROUP        1 Y    SEP  0     ROOT SEP Y 9
     4 GLP5        3 GROUP        1 Y    GLP  0     **** GLP Y 13
     5 SEL2       56 GROUP        1 Z    SEL  0     ROOT SEL Z 16
     6 GLL5        2 GROUP        1 Z    GLL  0     **** GLL Z 20
@<TRIPOS>SET

