#    Name: 3w2r_W2R_1_ligand
#    Modification time : Tue Mar 25 02:06:19 2014

@<TRIPOS>MOLECULE
3w2r_W2R_1_ligand
   73    77     1     0     0
SMALL
NO_CHARGES


@<TRIPOS>ATOM
      1 C1          5.4560   16.1160   46.4940 C.ar      1 W2R1101     0.0000 
      2 C2          4.5280   16.9110   45.8490 C.ar      1 W2R1101     0.0000 
      3 C3          4.6750   10.7990   46.8950 C.ar      1 W2R1101     0.0000 
      4 C4          5.7160   14.8610   45.9700 C.ar      1 W2R1101     0.0000 
      5 C5          4.5450   11.9180   46.1060 C.ar      1 W2R1101     0.0000 
      6 C6          8.1300    5.2950   49.6710 C.2       1 W2R1101     0.0000 
      7 C7          4.1270   15.2310   44.1940 C.ar      1 W2R1101     0.0000 
      8 C8          6.5170   10.0600   45.5680 C.ar      1 W2R1101     0.0000 
      9 C9          6.7800    5.0150   49.6240 C.2       1 W2R1101     0.0000 
     10 C10         9.3050    8.3340   48.1570 C.ar      1 W2R1101     0.0000 
     11 C11         8.3420    6.5280   49.0090 C.ar      1 W2R1101     0.0000 
     12 C12         7.1150    6.9990   48.5740 C.ar      1 W2R1101     0.0000 
     13 C13         3.8620   16.4740   44.7190 C.ar      1 W2R1101     0.0000 
     14 C14         5.6630    9.8700   46.6410 C.ar      1 W2R1101     0.0000 
     15 C15         5.0560   14.4370   44.8300 C.ar      1 W2R1101     0.0000 
     16 C16         5.4080   12.1030   45.0460 C.ar      1 W2R1101     0.0000 
     17 C17         6.3930   11.1810   44.7670 C.ar      1 W2R1101     0.0000 
     18 C18         7.0290    8.1880   47.8800 C.ar      1 W2R1101     0.0000 
     19 C19         2.1950   17.1610   42.9610 C.2       1 W2R1101     0.0000 
     20 C20        -0.7060   19.6670   39.2140 C.3       1 W2R1101     0.0000 
     21 C21        -1.4180   19.3690   40.5060 C.3       1 W2R1101     0.0000 
     22 C22         0.4580   18.6950   39.0020 C.3       1 W2R1101     0.0000 
     23 C23        -0.4180   19.4270   41.6450 C.3       1 W2R1101     0.0000 
     24 C24         1.4260   18.7470   40.1680 C.3       1 W2R1101     0.0000 
     25 C25         0.6770   18.4010   41.4380 C.3       1 W2R1101     0.0000 
     26 C26         4.7550    6.0500   48.7010 C.3       1 W2R1101     0.0000 
     27 C27         3.9410    6.6060   49.8330 C.3       1 W2R1101     0.0000 
     28 C28         2.3010    9.6130   49.5660 C.3       1 W2R1101     0.0000 
     29 C29         3.0480    8.6650   50.4530 C.3       1 W2R1101     0.0000 
     30 N30         9.4960    7.1960   48.8190 N.ar      1 W2R1101     0.0000 
     31 N31         8.1730    8.8550   47.6800 N.ar      1 W2R1101     0.0000 
     32 N32         6.1830    6.0500   48.9590 N.pl3     1 W2R1101     0.0000 
     33 N33         5.7890    8.7040   47.4220 N.pl3     1 W2R1101     0.0000 
     34 N34         2.9300   17.3440   44.1180 N.am      1 W2R1101     0.0000 
     35 N35         1.5540   18.3230   42.5940 N.am      1 W2R1101     0.0000 
     36 O36         2.0300   16.1120   42.3630 O.2       1 W2R1101     0.0000 
     37 O37         1.5420    8.8190   48.6810 O.3       1 W2R1101     0.0000 
     38 O38         5.3030   13.2140   44.2270 O.3       1 W2R1101     0.0000 
     39 O39         4.0050    8.0080   49.6250 O.3       1 W2R1101     0.0000 
     40 CL1         7.4610   11.4160   43.4250 Cl        1 W2R1101     0.0000 
     41 H           5.9353   16.4422   47.3302 H         1 W2R1101     0.0000 
     42 H           4.3251   17.8622   46.2227 H         1 W2R1101     0.0000 
     43 H           4.0248   10.6502   47.6893 H         1 W2R1101     0.0000 
     44 H           6.4009   14.2431   46.4291 H         1 W2R1101     0.0000 
     45 H           3.8116   12.6116   46.3030 H         1 W2R1101     0.0000 
     46 H           8.8075    4.7718   50.0683 H         1 W2R1101     0.0000 
     47 H           3.6477   14.9034   43.3535 H         1 W2R1101     0.0000 
     48 H           7.2498    9.3613   45.3650 H         1 W2R1101     0.0000 
     49 H           6.3551    4.2505   49.9853 H         1 W2R1101     0.0000 
     50 H          10.2194    8.9392   47.9741 H         1 W2R1101     0.0000 
     51 H          -0.3157   20.6848   39.2319 H         1 W2R1101     0.0000 
     52 H          -1.3996   19.5730   38.3782 H         1 W2R1101     0.0000 
     53 H          -1.8573   18.3781   40.4638 H         1 W2R1101     0.0000 
     54 H          -2.1975   20.1043   40.6745 H         1 W2R1101     0.0000 
     55 H           0.9792   18.9610   38.0823 H         1 W2R1101     0.0000 
     56 H           0.0622   17.6844   38.9006 H         1 W2R1101     0.0000 
     57 H          -0.9298   19.2265   42.5856 H         1 W2R1101     0.0000 
     58 H           0.0217   20.4228   41.6893 H         1 W2R1101     0.0000 
     59 H           1.8399   19.7441   40.2506 H         1 W2R1101     0.0000 
     60 H           2.2224   18.0308   40.0094 H         1 W2R1101     0.0000 
     61 H           0.1848   17.4336   41.2740 H         1 W2R1101     0.0000 
     62 H           4.5281    6.6382   47.7849 H         1 W2R1101     0.0000 
     63 H           4.4008    5.0173   48.4895 H         1 W2R1101     0.0000 
     64 H           4.3935    6.3120   50.7626 H         1 W2R1101     0.0000 
     65 H           2.9373    6.2291   49.7562 H         1 W2R1101     0.0000 
     66 H           3.0223   10.2359   49.0407 H         1 W2R1101     0.0000 
     67 H           1.6725   10.2466   50.1888 H         1 W2R1101     0.0000 
     68 H           2.3424    7.9626   50.8867 H         1 W2R1101     0.0000 
     69 H           3.5253    9.2318   51.2469 H         1 W2R1101     0.0000 
     70 H           4.9167    8.1836   47.6825 H         1 W2R1101     0.0000 
     71 H           2.7742   18.2858   44.6434 H         1 W2R1101     0.0000 
     72 H           1.6817   19.1951   43.1444 H         1 W2R1101     0.0000 
     73 H           0.6835    9.3169   48.5583 H         1 W2R1101     0.0000 
@<TRIPOS>BOND
     1    2    1 ar   
     2    4    1 ar   
     3   41    1 1    
     4   13    2 ar   
     5   42    2 1    
     6    5    3 ar   
     7   14    3 ar   
     8   43    3 1    
     9   15    4 ar   
    10   44    4 1    
    11   16    5 ar   
    12   45    5 1    
    13    9    6 2    
    14   11    6 1    
    15   46    6 1    
    16   13    7 ar   
    17   15    7 ar   
    18   47    7 1    
    19   14    8 ar   
    20   17    8 ar   
    21   48    8 1    
    22   32    9 1    
    23   49    9 1    
    24   30   10 ar   
    25   31   10 ar   
    26   50   10 1    
    27   12   11 ar   
    28   30   11 ar   
    29   18   12 ar   
    30   32   12 1    
    31   34   13 1    
    32   33   14 1    
    33   38   15 1    
    34   17   16 ar   
    35   38   16 1    
    36   40   17 1    
    37   31   18 ar   
    38   33   18 1    
    39   34   19 am   
    40   35   19 am   
    41   36   19 2    
    42   21   20 1    
    43   22   20 1    
    44   51   20 1    
    45   52   20 1    
    46   23   21 1    
    47   53   21 1    
    48   54   21 1    
    49   24   22 1    
    50   55   22 1    
    51   56   22 1    
    52   25   23 1    
    53   57   23 1    
    54   58   23 1    
    55   25   24 1    
    56   59   24 1    
    57   60   24 1    
    58   35   25 1    
    59   61   25 1    
    60   27   26 1    
    61   32   26 1    
    62   62   26 1    
    63   63   26 1    
    64   39   27 1    
    65   64   27 1    
    66   65   27 1    
    67   29   28 1    
    68   37   28 1    
    69   66   28 1    
    70   67   28 1    
    71   39   29 1    
    72   68   29 1    
    73   69   29 1    
    74   70   33 1    
    75   71   34 1    
    76   72   35 1    
    77   73   37 1    
@<TRIPOS>SUBSTRUCTURE
     1 W2R1101     1 GROUP   
@<TRIPOS>SET

