#    Name: 1krv_147_1_INTS_M
#    Modification time : Tue Mar 25 10:33:17 2014

@<TRIPOS>MOLECULE
1krv_147_1_INTS_M
   39     0     9     0     0
SMALL
NO_CHARGES


@<TRIPOS>ATOM
      1 CA        -43.2905  -20.0025   -8.8045 C.3       3 GLC5        0.0000 
      2 CA        -44.1810  -20.3950  -10.4980 C.3       9 GLL5        0.0000 
      3 CA        -42.4000  -19.6100   -7.1110 C.3       6 GLP5        0.0000 
      4 O         -47.1670  -21.1725  -11.1565 O.2       1 ALC1        0.0000 
      5 O         -45.9130  -22.1450  -10.6440 O.2       7 ALL1        0.0000 
      6 O         -48.4210  -20.2000  -11.6690 O.2       4 ALP1        0.0000 
      7 O         -46.4565  -21.7190  -11.7960 O.2       1 ALC1        0.0000 
      8 O         -47.0000  -21.2930  -12.9480 O.2       4 ALP1        0.0000 
      9 CA        -42.9320  -24.7655  -11.4645 C.3       3 GLC5        0.0000 
     10 CA        -43.5020  -22.7850  -11.0410 C.3       9 GLL5        0.0000 
     11 CA        -42.3620  -26.7460  -11.8880 C.3       6 GLP5        0.0000 
     12 N         -42.7215  -24.8635  -11.5720 N.am      2 SEC2        0.0000 
     13 N         -43.9290  -24.0210  -11.7100 N.am      8 SEL2        0.0000 
     14 N         -41.5140  -25.7060  -11.4340 N.am      5 SEP2        0.0000 
     15 O         -43.9970  -23.6510  -13.0380 O.2       1 ALC1        0.0000 
     16 O         -43.9290  -24.0210  -11.7100 O.2       7 ALL1        0.0000 
     17 O         -44.0650  -23.2810  -14.3660 O.2       4 ALP1        0.0000 
     18 CA        -40.7535  -22.9620  -12.7080 C.3       3 GLC5        0.0000 
     19 CA        -42.1430  -22.2230  -11.6760 C.3       9 GLL5        0.0000 
     20 CA        -39.3640  -23.7010  -13.7400 C.3       6 GLP5        0.0000 
     21 O         -42.1655  -22.5410  -14.1125 O.2       1 ALC1        0.0000 
     22 O         -42.3220  -21.8450  -13.0640 O.2       7 ALL1        0.0000 
     23 O         -42.0090  -23.2370  -15.1610 O.2       4 ALP1        0.0000 
     24 CA        -42.0545  -20.2540   -9.0165 C.3       3 GLC5        0.0000 
     25 CA        -41.7090  -20.8980  -10.9220 C.3       9 GLL5        0.0000 
     26 CA        -39.8700  -22.0170  -12.6280 C.3       3 GLC5        0.0000 
     27 CA        -40.3760  -20.3330  -11.5160 C.3       9 GLL5        0.0000 
     28 CA        -38.8615  -19.1500  -12.1445 C.3       3 GLC5        0.0000 
     29 CA        -37.3470  -17.9670  -12.7730 C.3       6 GLP5        0.0000 
     30 CA        -43.8687  -19.7260  -12.1758 C.3       3 GLC5        0.0000 
     31 CA        -43.3250  -18.4050  -13.5020 C.3       6 GLP5        0.0000 
     32 CA        -42.2380  -19.6759  -12.4548 C.3       3 GLC5        0.0000 
     33 CA        -43.9983  -17.9773  -11.8405 C.3       3 GLC5        0.0000 
     34 CA        -44.1420  -17.0690  -10.2700 C.3       9 GLL5        0.0000 
     35 CA        -42.3843  -15.5425   -9.7680 C.3       3 GLC5        0.0000 
     36 CA        -40.5790  -14.6540   -9.5700 C.3       6 GLP5        0.0000 
     37 CA        -45.0453  -14.1273  -10.5117 C.3       3 GLC5        0.0000 
     38 CA        -44.2370  -15.7930   -9.6620 C.3       9 GLL5        0.0000 
     39 CA        -45.2530  -12.6240  -11.7720 C.3       6 GLP5        0.0000 
@<TRIPOS>BOND
@<TRIPOS>SUBSTRUCTURE
     1 ALC1        4 GROUP        1 X    ALC  0     ROOT ALC X 1
     2 SEC2       12 GROUP        1 X    SEC  0     **** SEC X 2
     3 GLC5        1 GROUP        1 X    GLC  0     **** GLC X 6
     4 ALP1        6 GROUP        1 Y    ALP  0     ROOT ALP Y 8
     5 SEP2       14 GROUP        1 Y    SEP  0     **** SEP Y 9
     6 GLP5        3 GROUP        1 Y    GLP  0     **** GLP Y 13
     7 ALL1        5 GROUP        1 Z    ALL  0     ROOT ALL Z 15
     8 SEL2       13 GROUP        1 Z    SEL  0     **** SEL Z 16
     9 GLL5        2 GROUP        1 Z    GLL  0     **** GLL Z 20
@<TRIPOS>SET

