#    Name: 1krv_147_1_ligand
#    Modification time : Tue Mar 25 10:33:18 2014

@<TRIPOS>MOLECULE
1krv_147_1_ligand
   36    37     1     0     0
SMALL
NO_CHARGES


@<TRIPOS>ATOM
      1 C1        -44.1810  -20.3950  -10.4980 C.3       1 147206      0.0000 
      2 C2        -44.6440  -21.6990  -11.2010 C.3       1 147206      0.0000 
      3 O2        -45.9130  -22.1450  -10.6440 O.3       1 147206      0.0000 
      4 C3        -43.5020  -22.7850  -11.0410 C.3       1 147206      0.0000 
      5 O3        -43.9290  -24.0210  -11.7100 O.3       1 147206      0.0000 
      6 C4        -42.1430  -22.2230  -11.6760 C.3       1 147206      0.0000 
      7 O4        -42.3220  -21.8450  -13.0640 O.3       1 147206      0.0000 
      8 C5        -41.7090  -20.8980  -10.9220 C.3       1 147206      0.0000 
      9 C6        -40.3760  -20.3330  -11.5160 C.3       1 147206      0.0000 
     10 O6        -39.9030  -19.1200  -10.8690 O.3       1 147206      0.0000 
     11 O5        -42.8720  -19.9160  -11.0410 O.3       1 147206      0.0000 
     12 O1'       -45.2270  -19.4340  -10.6540 O.3       1 147206      0.0000 
     13 C1'       -45.2010  -18.0300  -10.0880 C.ar      1 147206      0.0000 
     14 C2'       -44.1420  -17.0690  -10.2700 C.ar      1 147206      0.0000 
     15 C3'       -44.2370  -15.7930   -9.6620 C.ar      1 147206      0.0000 
     16 C4'       -45.4380  -15.4680   -8.8410 C.ar      1 147206      0.0000 
     17 C5'       -46.4830  -16.3560   -8.6440 C.ar      1 147206      0.0000 
     18 C6'       -46.4000  -17.6400   -9.2500 C.ar      1 147206      0.0000 
     19 N1'       -45.4000  -14.0750   -8.2390 N.pl3     1 147206      0.0000 
     20 O2'       -46.4340  -13.4510   -8.1670 O.2       1 147206      0.0000 
     21 O3'       -44.3250  -13.7160   -7.7030 O.2       1 147206      0.0000 
     22 H         -44.0590  -20.6487   -9.4415 H         1 147206      0.0000 
     23 H         -44.7280  -21.4833  -12.2565 H         1 147206      0.0000 
     24 H         -43.3385  -22.9320   -9.9989 H         1 147206      0.0000 
     25 H         -41.3816  -22.9366  -11.5408 H         1 147206      0.0000 
     26 H         -41.5604  -21.1541   -9.8927 H         1 147206      0.0000 
     27 H         -40.5513  -20.1680  -12.5978 H         1 147206      0.0000 
     28 H         -39.6242  -21.1442  -11.4456 H         1 147206      0.0000 
     29 H         -43.3360  -17.3163  -10.8336 H         1 147206      0.0000 
     30 H         -43.5249  -15.0960   -9.7623 H         1 147206      0.0000 
     31 H         -47.2919  -16.1136   -8.0863 H         1 147206      0.0000 
     32 H         -47.1311  -18.3293   -9.1432 H         1 147206      0.0000 
     33 H         -46.5925  -21.9335  -11.3465 H         1 147206      0.0000 
     34 H         -44.0042  -23.7789  -12.6773 H         1 147206      0.0000 
     35 H         -42.0809  -22.6620  -13.5878 H         1 147206      0.0000 
     36 H         -39.1377  -18.8081  -11.4320 H         1 147206      0.0000 
@<TRIPOS>BOND
     1    2    1 1    
     2   11    1 1    
     3   12    1 1    
     4   22    1 1    
     5    3    2 1    
     6    4    2 1    
     7   23    2 1    
     8   33    3 1    
     9    5    4 1    
    10    6    4 1    
    11   24    4 1    
    12   34    5 1    
    13    7    6 1    
    14    8    6 1    
    15   25    6 1    
    16   35    7 1    
    17    9    8 1    
    18   11    8 1    
    19   26    8 1    
    20   10    9 1    
    21   27    9 1    
    22   28    9 1    
    23   36   10 1    
    24   13   12 1    
    25   14   13 ar   
    26   18   13 ar   
    27   15   14 ar   
    28   29   14 1    
    29   16   15 ar   
    30   30   15 1    
    31   17   16 ar   
    32   19   16 1    
    33   18   17 ar   
    34   31   17 1    
    35   32   18 1    
    36   20   19 2    
    37   21   19 2    
@<TRIPOS>SUBSTRUCTURE
     1 147206      1 GROUP   
@<TRIPOS>SET

