#    Name: 4jlw_NAD_1_INTS_M
#    Modification time : Tue Mar 25 06:03:11 2014

@<TRIPOS>MOLECULE
4jlw_NAD_1_INTS_M
  101     0     9     0     0
SMALL
NO_CHARGES


@<TRIPOS>ATOM
      1 N          38.1365  -20.2750    0.7890 N.am      2 SEC2        0.0000 
      2 N          36.9520  -19.2960    0.8810 N.am      8 SEL2        0.0000 
      3 N          39.3210  -21.2540    0.6970 N.am      5 SEP2        0.0000 
      4 CA         35.6330  -24.9975    2.5570 C.3       3 GLC5        0.0000 
      5 CA         35.9010  -23.7340    0.9070 C.3       9 GLL5        0.0000 
      6 CA         35.3650  -26.2610    4.2070 C.3       6 GLP5        0.0000 
      7 CA         37.0550  -22.6580    2.4160 C.3       3 GLC5        0.0000 
      8 CA         38.2090  -21.5820    3.9250 C.3       6 GLP5        0.0000 
      9 N          38.7365  -22.6845    0.6060 N.am      2 SEC2        0.0000 
     10 N          38.1520  -24.1150    0.5150 N.am      8 SEL2        0.0000 
     11 O          38.4300  -25.7615    0.3170 O.2       1 ALC1        0.0000 
     12 O          38.1520  -24.1150    0.5150 O.2       7 ALL1        0.0000 
     13 O          38.7080  -27.4080    0.1190 O.2       4 ALP1        0.0000 
     14 O          38.3985  -25.1505    1.2385 O.2       1 ALC1        0.0000 
     15 O          38.6450  -26.1860    1.9620 O.2       4 ALP1        0.0000 
     16 O          38.2275  -26.4175   -0.7590 O.2       1 ALC1        0.0000 
     17 O          37.7470  -25.4270   -1.6370 O.2       7 ALL1        0.0000 
     18 CA         35.6710  -26.0310    2.0570 C.3       3 GLC5        0.0000 
     19 CA         35.9770  -25.8010   -0.0930 C.3       9 GLL5        0.0000 
     20 CA         34.1520  -26.2240    0.9145 C.3       3 GLC5        0.0000 
     21 CA         32.3270  -26.6470    1.9220 C.3       6 GLP5        0.0000 
     22 N          32.9225  -28.2305   -3.2905 N.am      2 SEC2        0.0000 
     23 N          33.7460  -27.9170   -2.0710 N.am      8 SEL2        0.0000 
     24 N          32.0990  -28.5440   -4.5100 N.am      5 SEP2        0.0000 
     25 CA         32.7040  -27.1805   -0.6160 C.3       3 GLC5        0.0000 
     26 CA         33.8780  -28.6220   -0.9580 C.3       9 GLL5        0.0000 
     27 CA         31.5300  -25.7390   -0.2740 C.3       6 GLP5        0.0000 
     28 CA         34.0640  -29.0265   -3.1415 C.3       3 GLC5        0.0000 
     29 CA         34.2500  -29.4310   -5.3250 C.3       6 GLP5        0.0000 
     30 CA         35.1825  -30.6385   -1.5410 C.3       3 GLC5        0.0000 
     31 CA         33.3650  -29.8710   -0.4650 C.3       9 GLL5        0.0000 
     32 CA         37.0000  -31.4060   -2.6170 C.3       6 GLP5        0.0000 
     33 CA         32.8460  -28.2590    0.7285 C.3       3 GLC5        0.0000 
     34 CA         33.3985  -32.0120   -0.8430 C.3       3 GLC5        0.0000 
     35 CA         33.4320  -34.1530   -1.2210 C.3       6 GLP5        0.0000 
     36 CA         31.5990  -29.7015    0.2145 C.3       3 GLC5        0.0000 
     37 CA         29.8330  -29.5320    0.8940 C.3       6 GLP5        0.0000 
     38 O          32.2630  -30.8410   -2.5160 O.2       1 ALC1        0.0000 
     39 O          32.5480  -30.5660   -1.2440 O.2       7 ALL1        0.0000 
     40 O          31.9780  -31.1160   -3.7880 O.2       4 ALP1        0.0000 
     41 CA         33.2610  -29.5315    3.1995 C.3       3 GLC5        0.0000 
     42 CA         34.5040  -29.5810    1.5240 C.3       9 GLL5        0.0000 
     43 CA         32.0180  -29.4820    4.8750 C.3       6 GLP5        0.0000 
     44 CA         34.9345  -27.9210    2.8655 C.3       3 GLC5        0.0000 
     45 CA         36.4050  -29.6645    1.7370 C.3       3 GLC5        0.0000 
     46 CA         38.3060  -29.7480    1.9500 C.3       6 GLP5        0.0000 
     47 CA         33.4155  -28.1140    1.7230 C.3       3 GLC5        0.0000 
     48 CA         36.5350  -28.8295    0.9445 C.3       3 GLC5        0.0000 
     49 CA         34.7640  -27.9110   -0.0610 C.3       9 GLL5        0.0000 
     50 CA         33.5455  -27.2790    0.9305 C.3       3 GLC5        0.0000 
     51 N          34.7125  -16.1490    2.2110 N.am      2 SEC2        0.0000 
     52 N          34.8070  -17.3010    3.0540 N.am      8 SEL2        0.0000 
     53 N          34.6180  -14.9970    1.3680 N.am      5 SEP2        0.0000 
     54 N          35.8435  -19.3915    5.4520 N.am      2 SEC2        0.0000 
     55 N          35.7500  -19.4720    4.1000 N.am      8 SEL2        0.0000 
     56 N          35.9370  -19.3110    6.8040 N.am      5 SEP2        0.0000 
     57 CA         33.0905  -19.7960    4.9720 C.3       3 GLC5        0.0000 
     58 CA         32.7580  -20.2290    3.1150 C.3       9 GLL5        0.0000 
     59 CA         33.4230  -19.3630    6.8290 C.3       6 GLP5        0.0000 
     60 CA         29.4640  -20.8445    3.4970 C.3       3 GLC5        0.0000 
     61 CA         31.2540  -19.9610    2.8720 C.3       9 GLL5        0.0000 
     62 CA         27.6740  -21.7280    4.1220 C.3       6 GLP5        0.0000 
     63 O          29.9900  -19.3260   -0.3035 O.2       1 ALC1        0.0000 
     64 O          29.9160  -19.9180    0.9570 O.2       7 ALL1        0.0000 
     65 O          30.0640  -18.7340   -1.5640 O.2       4 ALP1        0.0000 
     66 CA         32.2390  -16.9295    1.2540 C.3       3 GLC5        0.0000 
     67 CA         30.4180  -17.8950    2.1020 C.3       9 GLL5        0.0000 
     68 CA         34.0600  -15.9640    0.4060 C.3       6 GLP5        0.0000 
     69 CA         30.5455  -16.0750    1.0755 C.3       3 GLC5        0.0000 
     70 CA         30.6730  -14.2550    0.0490 C.3       6 GLP5        0.0000 
     71 N          29.5470  -15.9865    1.6145 N.am      2 SEC2        0.0000 
     72 N          29.5870  -17.4330    1.0710 N.am      8 SEL2        0.0000 
     73 N          29.5070  -14.5400    2.1580 N.am      5 SEP2        0.0000 
     74 O          29.8255  -18.0835   -0.2465 O.2       1 ALC1        0.0000 
     75 O          29.5870  -17.4330    1.0710 O.2       7 ALL1        0.0000 
     76 CA         28.6385  -20.0585    3.6925 C.3       3 GLC5        0.0000 
     77 CA         29.6030  -18.3890    3.2630 C.3       9 GLL5        0.0000 
     78 CA         27.9550  -19.5715    4.5575 C.3       3 GLC5        0.0000 
     79 CA         28.2360  -17.4150    4.9930 C.3       9 GLL5        0.0000 
     80 N          25.1725  -15.3625    8.3840 N.am      2 SEC2        0.0000 
     81 N          26.1680  -15.4740    7.2140 N.am      8 SEL2        0.0000 
     82 N          24.1770  -15.2510    9.5540 N.am      5 SEP2        0.0000 
     83 O          26.5830  -18.7165    6.5580 O.2       1 ALC1        0.0000 
     84 O          26.2690  -17.6670    7.1960 O.2       7 ALL1        0.0000 
     85 O          26.8970  -19.7660    5.9200 O.2       4 ALP1        0.0000 
     86 CA         36.0600  -28.6663   -1.7837 C.3       3 GLC5        0.0000 
     87 CA         37.7990  -29.0660   -3.0580 C.3       6 GLP5        0.0000 
     88 CA         30.1822  -18.0067    0.0110 C.3       3 GLC5        0.0000 
     89 CA         30.9730  -19.1980    1.6060 C.3       9 GLL5        0.0000 
     90 CA         29.6690  -17.4670   -1.8320 C.3       6 GLP5        0.0000 
     91 CA         28.1553  -18.2715    1.8473 C.3       3 GLC5        0.0000 
     92 CA         26.3000  -18.4010    1.0120 C.3       6 GLP5        0.0000 
     93 CA         28.7867  -17.2602    7.2878 C.3       3 GLC5        0.0000 
     94 CA         29.4350  -17.5650    9.0640 C.3       6 GLP5        0.0000 
     95 CA         29.5530  -16.6050    7.5213 C.3       3 GLC5        0.0000 
     96 CA         29.0790  -15.6190    6.3420 C.3       9 GLL5        0.0000 
     97 CA         31.5912  -14.8755    4.3857 C.3       3 GLC5        0.0000 
     98 CA         30.2630  -15.6710    5.6150 C.3       9 GLL5        0.0000 
     99 CA         32.8490  -13.6210    3.6750 C.3       6 GLP5        0.0000 
    100 CA         31.8027  -17.0235    5.7622 C.3       3 GLC5        0.0000 
    101 CA         33.2720  -17.9170    6.4280 C.3       6 GLP5        0.0000 
@<TRIPOS>BOND
@<TRIPOS>SUBSTRUCTURE
     1 ALC1       11 GROUP        1 X    ALC  0     ROOT ALC X 1
     2 SEC2        1 GROUP        1 X    SEC  0     **** SEC X 2
     3 GLC5        4 GROUP        1 X    GLC  0     **** GLC X 6
     4 ALP1       13 GROUP        1 Y    ALP  0     ROOT ALP Y 8
     5 SEP2        3 GROUP        1 Y    SEP  0     **** SEP Y 9
     6 GLP5        6 GROUP        1 Y    GLP  0     **** GLP Y 13
     7 ALL1       12 GROUP        1 Z    ALL  0     ROOT ALL Z 15
     8 SEL2        2 GROUP        1 Z    SEL  0     **** SEL Z 16
     9 GLL5        5 GROUP        1 Z    GLL  0     **** GLL Z 20
@<TRIPOS>SET

