#    Name: 4jlw_NAD_1_ligand
#    Modification time : Tue Mar 25 06:03:11 2014

@<TRIPOS>MOLECULE
4jlw_NAD_1_ligand
   70    74     1     0     0
SMALL
NO_CHARGES


@<TRIPOS>ATOM
      1 PA         35.6560  -19.9970    0.7510 P.3       1 NAD403      0.0000 
      2 O1A        36.9520  -19.2960    0.8810 O.co2     1 NAD403      0.0000 
      3 O2A        34.8600  -20.0170   -0.4940 O.co2     1 NAD403      0.0000 
      4 O5B        35.9820  -21.5340    1.0120 O.3       1 NAD403      0.0000 
      5 C5B        35.0170  -22.5210    0.8030 C.3       1 NAD403      0.0000 
      6 C4B        35.9010  -23.7340    0.9070 C.3       1 NAD403      0.0000 
      7 O4B        35.1810  -24.9350    0.7000 O.3       1 NAD403      0.0000 
      8 C3B        36.9770  -23.7130   -0.1480 C.3       1 NAD403      0.0000 
      9 O3B        38.1520  -24.1150    0.5150 O.3       1 NAD403      0.0000 
     10 C2B        36.5970  -24.8370   -1.0700 C.3       1 NAD403      0.0000 
     11 O2B        37.7470  -25.4270   -1.6370 O.3       1 NAD403      0.0000 
     12 C1B        35.9770  -25.8010   -0.0930 C.3       1 NAD403      0.0000 
     13 N9A        35.1030  -26.8190   -0.6910 N.pl3     1 NAD403      0.0000 
     14 C8A        34.4990  -26.8100   -1.8980 C.2       1 NAD403      0.0000 
     15 N7A        33.7460  -27.9170   -2.0710 N.2       1 NAD403      0.0000 
     16 C5A        33.8780  -28.6220   -0.9580 C.ar      1 NAD403      0.0000 
     17 C6A        33.3650  -29.8710   -0.4650 C.ar      1 NAD403      0.0000 
     18 N6A        32.5480  -30.5660   -1.2440 N.pl3     1 NAD403      0.0000 
     19 N1A        33.7030  -30.2880    0.7510 N.ar      1 NAD403      0.0000 
     20 C2A        34.5040  -29.5810    1.5240 C.ar      1 NAD403      0.0000 
     21 N3A        35.0300  -28.4160    1.1410 N.ar      1 NAD403      0.0000 
     22 C4A        34.7640  -27.9110   -0.0610 C.ar      1 NAD403      0.0000 
     23 O3         34.6070  -19.5480    1.8550 O.3       1 NAD403      0.0000 
     24 PN         34.8150  -18.7690    3.2240 P.3       1 NAD403      0.0000 
     25 O1N        34.8070  -17.3010    3.0540 O.co2     1 NAD403      0.0000 
     26 O2N        35.7500  -19.4720    4.1000 O.co2     1 NAD403      0.0000 
     27 O5D        33.3770  -19.1200    3.6990 O.3       1 NAD403      0.0000 
     28 C5D        32.7580  -20.2290    3.1150 C.3       1 NAD403      0.0000 
     29 C4D        31.2540  -19.9610    2.8720 C.3       1 NAD403      0.0000 
     30 O4D        30.5190  -19.2670    3.8860 O.3       1 NAD403      0.0000 
     31 C3D        30.9730  -19.1980    1.6060 C.3       1 NAD403      0.0000 
     32 O3D        29.9160  -19.9180    0.9570 O.3       1 NAD403      0.0000 
     33 C2D        30.4180  -17.8950    2.1020 C.3       1 NAD403      0.0000 
     34 O2D        29.5870  -17.4330    1.0710 O.3       1 NAD403      0.0000 
     35 C1D        29.6030  -18.3890    3.2630 C.3       1 NAD403      0.0000 
     36 N1N        29.3890  -17.4180    4.2900 N.pl3     1 NAD403      0.0000 
     37 C2N        28.2360  -17.4150    4.9930 C.ar      1 NAD403      0.0000 
     38 C3N        28.0410  -16.4960    6.0300 C.ar      1 NAD403      0.0000 
     39 C7N        26.7550  -16.4850    6.8390 C.2       1 NAD403      0.0000 
     40 O7N        26.1680  -15.4740    7.2140 O.2       1 NAD403      0.0000 
     41 N7N        26.2690  -17.6670    7.1960 N.am      1 NAD403      0.0000 
     42 C4N        29.0790  -15.6190    6.3420 C.ar      1 NAD403      0.0000 
     43 C5N        30.2630  -15.6710    5.6150 C.ar      1 NAD403      0.0000 
     44 C6N        30.4040  -16.5890    4.5780 C.ar      1 NAD403      0.0000 
     45 H          34.5939  -22.4921   -0.1697 H         1 NAD403      0.0000 
     46 H          34.2898  -22.5641    1.5746 H         1 NAD403      0.0000 
     47 H          36.3885  -23.7402    1.8724 H         1 NAD403      0.0000 
     48 H          37.0133  -22.8251   -0.6243 H         1 NAD403      0.0000 
     49 H          35.8759  -24.5150   -1.7408 H         1 NAD403      0.0000 
     50 H          36.7466  -26.2334    0.5008 H         1 NAD403      0.0000 
     51 H          34.5946  -26.0930   -2.5626 H         1 NAD403      0.0000 
     52 H          32.6946  -30.4737   -2.2289 H         1 NAD403      0.0000 
     53 H          31.8590  -31.1197   -0.7763 H         1 NAD403      0.0000 
     54 H          34.7453  -29.9496    2.4962 H         1 NAD403      0.0000 
     55 H          32.8207  -21.1321    3.7463 H         1 NAD403      0.0000 
     56 H          33.1947  -20.4931    2.1364 H         1 NAD403      0.0000 
     57 H          30.7644  -20.9655    2.7163 H         1 NAD403      0.0000 
     58 H          31.8148  -19.0728    1.0575 H         1 NAD403      0.0000 
     59 H          31.1693  -17.2859    2.4035 H         1 NAD403      0.0000 
     60 H          28.7590  -18.8826    2.9545 H         1 NAD403      0.0000 
     61 H          27.4776  -18.0888    4.7799 H         1 NAD403      0.0000 
     62 H          26.8110  -18.4642    6.9299 H         1 NAD403      0.0000 
     63 H          25.4047  -17.6537    7.6988 H         1 NAD403      0.0000 
     64 H          28.9683  -14.9412    7.1024 H         1 NAD403      0.0000 
     65 H          31.0353  -15.0315    5.8428 H         1 NAD403      0.0000 
     66 H          31.2901  -16.6136    4.0493 H         1 NAD403      0.0000 
     67 H          37.9251  -24.9947    0.9330 H         1 NAD403      0.0000 
     68 H          38.0368  -26.1177   -0.9745 H         1 NAD403      0.0000 
     69 H          29.7942  -19.4605    0.0762 H         1 NAD403      0.0000 
     70 H          29.8228  -17.9941    0.2776 H         1 NAD403      0.0000 
@<TRIPOS>BOND
     1    2    1 ar   
     2    3    1 ar   
     3    4    1 1    
     4   23    1 1    
     5    5    4 1    
     6    6    5 1    
     7   45    5 1    
     8   46    5 1    
     9    7    6 1    
    10    8    6 1    
    11   47    6 1    
    12   12    7 1    
    13    9    8 1    
    14   10    8 1    
    15   48    8 1    
    16   67    9 1    
    17   11   10 1    
    18   12   10 1    
    19   49   10 1    
    20   68   11 1    
    21   13   12 1    
    22   50   12 1    
    23   14   13 1    
    24   22   13 1    
    25   15   14 2    
    26   51   14 1    
    27   16   15 1    
    28   17   16 ar   
    29   22   16 ar   
    30   18   17 1    
    31   19   17 ar   
    32   52   18 1    
    33   53   18 1    
    34   20   19 ar   
    35   21   20 ar   
    36   54   20 1    
    37   22   21 ar   
    38   24   23 1    
    39   25   24 ar   
    40   26   24 ar   
    41   27   24 1    
    42   28   27 1    
    43   29   28 1    
    44   55   28 1    
    45   56   28 1    
    46   30   29 1    
    47   31   29 1    
    48   57   29 1    
    49   35   30 1    
    50   32   31 1    
    51   33   31 1    
    52   58   31 1    
    53   69   32 1    
    54   34   33 1    
    55   35   33 1    
    56   59   33 1    
    57   70   34 1    
    58   36   35 1    
    59   60   35 1    
    60   37   36 ar   
    61   44   36 ar   
    62   38   37 ar   
    63   61   37 1    
    64   39   38 1    
    65   42   38 ar   
    66   40   39 2    
    67   41   39 am   
    68   62   41 1    
    69   63   41 1    
    70   43   42 ar   
    71   64   42 1    
    72   44   43 ar   
    73   65   43 1    
    74   66   44 1    
@<TRIPOS>SUBSTRUCTURE
     1 NAD403      1 GROUP   
@<TRIPOS>SET

