#    Name: 3fiu_AMP_3_INTS_M
#    Modification time : Tue Mar 25 05:10:08 2014

@<TRIPOS>MOLECULE
3fiu_AMP_3_INTS_M
   45     0    12     0     0
SMALL
NO_CHARGES


@<TRIPOS>ATOM
      1 Zn        -20.4050   14.2805  103.9260 Zn        3 ZIC7        0.0000 
      2 Zn        -20.6670   13.4650  103.3280 Zn       11 ZIL7        0.0000 
      3 Zn        -20.1430   15.0960  104.5240 Zn        7 ZIP7        0.0000 
      4 Zn        -21.4680   15.1830  100.5930 Zn        3 ZIC7        0.0000 
      5 Zn        -21.4340   14.2900  100.9970 Zn       11 ZIL7        0.0000 
      6 Zn        -21.5020   16.0760  100.1890 Zn        7 ZIP7        0.0000 
      7 O         -16.1790   14.5685  103.5775 O.2       1 ALC1        0.0000 
      8 O         -16.5540   14.9690  102.4180 O.2       9 ALL1        0.0000 
      9 O         -15.8040   14.1680  104.7370 O.2       5 ALP1        0.0000 
     10 O         -13.5915   14.9970  100.3930 O.2       1 ALC1        0.0000 
     11 O         -14.3100   14.0750  101.0440 O.2       9 ALL1        0.0000 
     12 O         -12.8730   15.9190   99.7420 O.2       5 ALP1        0.0000 
     13 CA        -16.5745   15.8355   95.8760 C.3       4 GLC5        0.0000 
     14 CA        -16.2830   14.2550   94.8340 C.3      12 GLL5        0.0000 
     15 CA        -16.8660   17.4160   96.9180 C.3       8 GLP5        0.0000 
     16 CA        -14.9130   13.6330   93.3305 C.3       4 GLC5        0.0000 
     17 CA        -13.5430   13.0110   91.8270 C.3       8 GLP5        0.0000 
     18 N         -14.1420   14.4600   93.5575 N.am      2 SEC2        0.0000 
     19 N         -14.9670   14.5490   94.7380 N.am     10 SEL2        0.0000 
     20 N         -13.3170   14.3710   92.3770 N.am      6 SEP2        0.0000 
     21 CA        -12.7445   14.4870   97.0955 C.3       4 GLC5        0.0000 
     22 CA        -14.0980   14.4230   95.7600 C.3      12 GLL5        0.0000 
     23 CA        -11.3910   14.5510   98.4310 C.3       8 GLP5        0.0000 
     24 CA        -13.6585   16.1415   96.7430 C.3       4 GLC5        0.0000 
     25 CA        -13.2190   17.8600   97.7260 C.3       8 GLP5        0.0000 
     26 CA        -15.4820   15.9195   96.3390 C.3       4 GLC5        0.0000 
     27 CA        -13.0460   15.3760   94.2875 C.3       4 GLC5        0.0000 
     28 CA        -11.9940   16.3290   92.8150 C.3       8 GLP5        0.0000 
     29 CA        -13.6325   13.1770   94.3130 C.3       4 GLC5        0.0000 
     30 CA        -13.1670   11.9310   92.8660 C.3       8 GLP5        0.0000 
     31 CA        -14.8610   12.4390   95.6885 C.3       4 GLC5        0.0000 
     32 CA        -15.6240   10.4550   95.6170 C.3       8 GLP5        0.0000 
     33 CA        -17.2093   10.7822  102.1220 C.3       4 GLC5        0.0000 
     34 CA        -16.8990   12.7910  101.5640 C.3      12 GLL5        0.0000 
     35 CA        -16.8250    8.9660  102.4480 C.3       8 GLP5        0.0000 
     36 CA        -16.9770   15.4650   99.3115 C.3       4 GLC5        0.0000 
     37 CA        -16.7520   14.2650  101.2000 C.3      12 GLL5        0.0000 
     38 CA        -17.8110   16.7010   97.8780 C.3       8 GLP5        0.0000 
     39 CA        -15.3795   16.0250  101.1710 C.3       4 GLC5        0.0000 
     40 CA        -15.5340   14.1930  100.2900 C.3      12 GLL5        0.0000 
     41 CA        -14.6160   17.8210  101.5970 C.3       8 GLP5        0.0000 
     42 CA        -17.0480   15.1848   97.2690 C.3       4 GLC5        0.0000 
     43 CA        -15.7840   13.6040   97.1940 C.3      12 GLL5        0.0000 
     44 CA        -15.8916   12.1270   95.9770 C.3       4 GLC5        0.0000 
     45 CA        -16.7860   13.7330   96.1260 C.3      12 GLL5        0.0000 
@<TRIPOS>BOND
@<TRIPOS>SUBSTRUCTURE
     1 ALC1        7 GROUP        1 X    ALC  0     ROOT ALC X 1
     2 SEC2       18 GROUP        1 X    SEC  0     **** SEC X 2
     3 ZIC7        1 GROUP        1 X    ZIC  0     **** ZIC X 5
     4 GLC5       13 GROUP        1 X    GLC  0     **** GLC X 6
     5 ALP1        9 GROUP        1 Y    ALP  0     ROOT ALP Y 8
     6 SEP2       20 GROUP        1 Y    SEP  0     **** SEP Y 9
     7 ZIP7        3 GROUP        1 Y    ZIP  0     **** ZIP Y 12
     8 GLP5       15 GROUP        1 Y    GLP  0     **** GLP Y 13
     9 ALL1        8 GROUP        1 Z    ALL  0     ROOT ALL Z 15
    10 SEL2       19 GROUP        1 Z    SEL  0     **** SEL Z 16
    11 ZIL7        2 GROUP        1 Z    ZIL  0     **** ZIL Z 19
    12 GLL5       14 GROUP        1 Z    GLL  0     **** GLL Z 20
@<TRIPOS>SET

