#    Name: 3fiu_AMP_3_ligand
#    Modification time : Tue Mar 25 05:10:08 2014

@<TRIPOS>MOLECULE
3fiu_AMP_3_ligand
   35    37     1     0     0
SMALL
NO_CHARGES


@<TRIPOS>ATOM
      1 P         -20.7950   13.2240  101.8170 P.3       1 AMP3001     0.0000 
      2 O1P       -20.6670   13.4650  103.3280 O.co2     1 AMP3001     0.0000 
      3 O2P       -21.3120   11.8370  101.4990 O.co2     1 AMP3001     0.0000 
      4 O3P       -21.4340   14.2900  100.9970 O.co2     1 AMP3001     0.0000 
      5 O5'       -19.2800   13.0930  101.2660 O.3       1 AMP3001     0.0000 
      6 C5'       -18.2880   12.4060  102.0280 C.3       1 AMP3001     0.0000 
      7 C4'       -16.8990   12.7910  101.5640 C.3       1 AMP3001     0.0000 
      8 O4'       -16.6220   12.1000  100.3640 O.3       1 AMP3001     0.0000 
      9 C3'       -16.7520   14.2650  101.2000 C.3       1 AMP3001     0.0000 
     10 O3'       -16.5540   14.9690  102.4180 O.3       1 AMP3001     0.0000 
     11 C2'       -15.5340   14.1930  100.2900 C.3       1 AMP3001     0.0000 
     12 O2'       -14.3100   14.0750  101.0440 O.3       1 AMP3001     0.0000 
     13 C1'       -15.7600   12.8730   99.5560 C.3       1 AMP3001     0.0000 
     14 N9        -16.4370   13.1320   98.2550 N.pl3     1 AMP3001     0.0000 
     15 C8        -17.7510   12.9520   97.9440 C.2       1 AMP3001     0.0000 
     16 N7        -17.9790   13.3120   96.6380 N.2       1 AMP3001     0.0000 
     17 C5        -16.7860   13.7330   96.1260 C.ar      1 AMP3001     0.0000 
     18 C6        -16.2830   14.2550   94.8340 C.ar      1 AMP3001     0.0000 
     19 N6        -17.1290   14.4180   93.7690 N.pl3     1 AMP3001     0.0000 
     20 N1        -14.9670   14.5490   94.7380 N.ar      1 AMP3001     0.0000 
     21 C2        -14.0980   14.4230   95.7600 C.ar      1 AMP3001     0.0000 
     22 N3        -14.4860   13.9630   96.9700 N.ar      1 AMP3001     0.0000 
     23 C4        -15.7840   13.6040   97.1940 C.ar      1 AMP3001     0.0000 
     24 H         -18.3887   11.3140  101.9297 H         1 AMP3001     0.0000 
     25 H         -18.3664   12.6442  103.1001 H         1 AMP3001     0.0000 
     26 H         -16.1802   12.5501  102.3158 H         1 AMP3001     0.0000 
     27 H         -17.5919   14.5397  100.6485 H         1 AMP3001     0.0000 
     28 H         -15.5520   14.9684   99.6042 H         1 AMP3001     0.0000 
     29 H         -14.8248   12.4041   99.4012 H         1 AMP3001     0.0000 
     30 H         -18.4299   12.6194   98.5500 H         1 AMP3001     0.0000 
     31 H         -18.0912   14.2012   93.9342 H         1 AMP3001     0.0000 
     32 H         -16.7103   14.7395   92.9197 H         1 AMP3001     0.0000 
     33 H         -13.0891   14.6897   95.6137 H         1 AMP3001     0.0000 
     34 H         -16.2683   14.2723  103.0760 H         1 AMP3001     0.0000 
     35 H         -13.8830   14.9774  100.9870 H         1 AMP3001     0.0000 
@<TRIPOS>BOND
     1    2    1 ar   
     2    3    1 ar   
     3    4    1 ar   
     4    5    1 1    
     5    6    5 1    
     6    7    6 1    
     7   24    6 1    
     8   25    6 1    
     9    8    7 1    
    10    9    7 1    
    11   26    7 1    
    12   13    8 1    
    13   10    9 1    
    14   11    9 1    
    15   27    9 1    
    16   34   10 1    
    17   12   11 1    
    18   13   11 1    
    19   28   11 1    
    20   35   12 1    
    21   14   13 1    
    22   29   13 1    
    23   15   14 1    
    24   23   14 1    
    25   16   15 2    
    26   30   15 1    
    27   17   16 1    
    28   18   17 ar   
    29   23   17 ar   
    30   19   18 1    
    31   20   18 ar   
    32   31   19 1    
    33   32   19 1    
    34   21   20 ar   
    35   22   21 ar   
    36   33   21 1    
    37   23   22 ar   
@<TRIPOS>SUBSTRUCTURE
     1 AMP3001     1 GROUP   
@<TRIPOS>SET

