#    Name: 3b3n_JI2_2_INTS_M
#    Modification time : Mon Mar 24 18:51:25 2014

@<TRIPOS>MOLECULE
3b3n_JI2_2_INTS_M
   30     0     9     0     0
SMALL
NO_CHARGES


@<TRIPOS>ATOM
      1 O           9.9050   -3.1900   59.1375 O.2       1 ALC1        0.0000 
      2 O          10.6610   -2.1970   58.6050 O.2       7 ALL1        0.0000 
      3 O           9.1490   -4.1830   59.6700 O.2       4 ALP1        0.0000 
      4 O          11.3345   -2.6485   57.5020 O.2       1 ALC1        0.0000 
      5 O          12.0080   -3.1000   56.3990 O.2       4 ALP1        0.0000 
      6 CA          9.3005   -1.0855   61.9045 C.3       3 GLC5        0.0000 
      7 CA         10.3870   -0.4070   60.2190 C.3       9 GLL5        0.0000 
      8 CA          8.2140   -1.7640   63.5900 C.3       6 GLP5        0.0000 
      9 CA         12.2130   -0.8590   61.1025 C.3       3 GLC5        0.0000 
     10 CA         10.8860    0.8640   60.7150 C.3       9 GLL5        0.0000 
     11 CA         13.5400   -2.5820   61.4900 C.3       6 GLP5        0.0000 
     12 CA         13.4390    2.9110   60.4865 C.3       3 GLC5        0.0000 
     13 CA         12.0590    1.4940   60.1100 C.3       9 GLL5        0.0000 
     14 CA         14.8190    4.3280   60.8630 C.3       6 GLP5        0.0000 
     15 CA         13.1165   -0.8990   60.2470 C.3       3 GLC5        0.0000 
     16 CA         12.6930    0.7840   59.0040 C.3       9 GLL5        0.0000 
     17 N          12.9085   -1.0370   57.5835 N.am      2 SEC2        0.0000 
     18 N          12.1750   -0.4250   58.5640 N.am      8 SEL2        0.0000 
     19 N          13.6420   -1.6490   56.6030 N.am      5 SEP2        0.0000 
     20 CA         14.5225   -1.6425   60.1670 C.3       3 GLC5        0.0000 
     21 CA         15.5050   -0.7030   58.8440 C.3       9 GLL5        0.0000 
     22 CA         15.5455   -2.5330   58.8005 C.3       3 GLC5        0.0000 
     23 CA         15.5860   -4.3630   58.7570 C.3       6 GLP5        0.0000 
     24 CA         14.3770    2.8315   59.5750 C.3       3 GLC5        0.0000 
     25 CA         13.9350    1.3350   58.2870 C.3       9 GLL5        0.0000 
     26 CA         11.4860   -1.9450   60.8115 C.3       3 GLC5        0.0000 
     27 CA         11.0770   -1.0350   59.1110 C.3       9 GLL5        0.0000 
     28 CA         12.2400   -3.1690   61.9580 C.3       6 GLP5        0.0000 
     29 CA         15.3658    2.7025   59.6850 C.3       3 GLC5        0.0000 
     30 CA         15.3100    0.8480   58.9280 C.3       9 GLL5        0.0000 
@<TRIPOS>BOND
@<TRIPOS>SUBSTRUCTURE
     1 ALC1        1 GROUP        1 X    ALC  0     ROOT ALC X 1
     2 SEC2       17 GROUP        1 X    SEC  0     **** SEC X 2
     3 GLC5        6 GROUP        1 X    GLC  0     **** GLC X 6
     4 ALP1        3 GROUP        1 Y    ALP  0     ROOT ALP Y 8
     5 SEP2       19 GROUP        1 Y    SEP  0     **** SEP Y 9
     6 GLP5        8 GROUP        1 Y    GLP  0     **** GLP Y 13
     7 ALL1        2 GROUP        1 Z    ALL  0     ROOT ALL Z 15
     8 SEL2       18 GROUP        1 Z    SEL  0     **** SEL Z 16
     9 GLL5        7 GROUP        1 Z    GLL  0     **** GLL Z 20
@<TRIPOS>SET

