#    Name: 3b3n_JI2_2_ligand
#    Modification time : Mon Mar 24 18:51:25 2014

@<TRIPOS>MOLECULE
3b3n_JI2_2_ligand
   37    38     1     0     0
SMALL
NO_CHARGES


@<TRIPOS>ATOM
      1 C6         11.0770   -1.0350   59.1110 C.ar      1 JI2800      0.0000 
      2 N6         10.6610   -2.1970   58.6050 N.pl3     1 JI2800      0.0000 
      3 C5         10.3870   -0.4070   60.2190 C.ar      1 JI2800      0.0000 
      4 C4         10.8860    0.8640   60.7150 C.ar      1 JI2800      0.0000 
      5 C3         12.0590    1.4940   60.1100 C.ar      1 JI2800      0.0000 
      6 C2         12.6930    0.7840   59.0040 C.ar      1 JI2800      0.0000 
      7 N1         12.1750   -0.4250   58.5640 N.ar      1 JI2800      0.0000 
      8 N1'        16.0150   -0.9620   57.4540 N.4       1 JI2800      0.0000 
      9 C2'        16.4580    0.3430   56.8560 C.3       1 JI2800      0.0000 
     10 C3'        16.5150    1.3060   58.0860 C.3       1 JI2800      0.0000 
     11 C4'        15.3100    0.8480   58.9280 C.3       1 JI2800      0.0000 
     12 C5'        15.5050   -0.7030   58.8440 C.3       1 JI2800      0.0000 
     13 C7         13.9350    1.3350   58.2870 C.3       1 JI2800      0.0000 
     14 N8         16.4210    2.7260   57.6120 N.3       1 JI2800      0.0000 
     15 C9         17.6940    3.4820   57.4760 C.3       1 JI2800      0.0000 
     16 C10        17.4370    4.9750   57.2210 C.3       1 JI2800      0.0000 
     17 N11        16.3200    5.4440   58.1050 N.4       1 JI2800      0.0000 
     18 H          11.1695   -2.5402   57.8153 H         1 JI2800      0.0000 
     19 H           9.8780   -2.6203   59.0609 H         1 JI2800      0.0000 
     20 H           9.5876   -0.8357   60.6332 H         1 JI2800      0.0000 
     21 H          10.4199    1.3217   61.4872 H         1 JI2800      0.0000 
     22 H          12.4029    2.3550   60.4342 H         1 JI2800      0.0000 
     23 H          15.7383    0.7115   56.1734 H         1 JI2800      0.0000 
     24 H          17.4305    0.2623   56.4467 H         1 JI2800      0.0000 
     25 H          17.4048    1.1040   58.6063 H         1 JI2800      0.0000 
     26 H          15.4207    1.1595   59.9025 H         1 JI2800      0.0000 
     27 H          16.2254   -0.9910   59.5732 H         1 JI2800      0.0000 
     28 H          14.5597   -1.1691   58.9953 H         1 JI2800      0.0000 
     29 H          13.9258    2.4276   58.3167 H         1 JI2800      0.0000 
     30 H          13.9290    1.0199   57.2404 H         1 JI2800      0.0000 
     31 H          18.2837    3.0866   56.6420 H         1 JI2800      0.0000 
     32 H          18.2923    3.3864   58.3885 H         1 JI2800      0.0000 
     33 H          17.1717    5.1100   56.1780 H         1 JI2800      0.0000 
     34 H          18.3447    5.5273   57.4389 H         1 JI2800      0.0000 
     35 H          16.6579    5.7776   58.9851 H         1 JI2800      0.0000 
     36 H          15.8042    6.1916   57.6867 H         1 JI2800      0.0000 
     37 H          15.6681    4.7113   58.3000 H         1 JI2800      0.0000 
@<TRIPOS>BOND
     1    2    1 1    
     2    3    1 ar   
     3    7    1 ar   
     4   18    2 1    
     5   19    2 1    
     6    4    3 ar   
     7   20    3 1    
     8    5    4 ar   
     9   21    4 1    
    10    6    5 ar   
    11   22    5 1    
    12    7    6 ar   
    13   13    6 1    
    14    9    8 1    
    15   12    8 1    
    16   10    9 1    
    17   23    9 1    
    18   24    9 1    
    19   11   10 1    
    20   14   10 1    
    21   25   10 1    
    22   12   11 1    
    23   13   11 1    
    24   26   11 1    
    25   27   12 1    
    26   28   12 1    
    27   29   13 1    
    28   30   13 1    
    29   15   14 1    
    30   16   15 1    
    31   31   15 1    
    32   32   15 1    
    33   17   16 1    
    34   33   16 1    
    35   34   16 1    
    36   35   17 1    
    37   36   17 1    
    38   37   17 1    
@<TRIPOS>SUBSTRUCTURE
     1 JI2800      1 GROUP   
@<TRIPOS>SET

