#    Name: 1d9i_00P_1_INTS_M
#    Modification time : Mon Mar 24 21:35:05 2014

@<TRIPOS>MOLECULE
1d9i_00P_1_INTS_M
   70     0    12     0     0
SMALL
NO_CHARGES


@<TRIPOS>ATOM
      1 CA         14.9590   -9.6770   19.2280 C.3       4 GLC5        0.0000 
      2 CA         14.6340  -11.3620   20.5950 C.3      12 GLL5        0.0000 
      3 CA         15.2840   -7.9920   17.8610 C.3       8 GLP5        0.0000 
      4 OD1         9.1305  -12.6655   25.1930 O.co2     3 ASC3        0.0000 
      5 OD1        10.3290  -12.8470   24.1710 O.co2    11 ASL3        0.0000 
      6 OD1         7.9320  -12.4840   26.2150 O.co2     7 ASP3        0.0000 
      7 OD1         9.1885  -11.5515   25.1360 O.co2     3 ASC3        0.0000 
      8 OD1         8.0480  -10.2560   26.1010 O.co2     7 ASP3        0.0000 
      9 O           8.9810  -12.1295   23.4285 O.2       1 ALC1        0.0000 
     10 O          10.3290  -12.8470   24.1710 O.2       9 ALL1        0.0000 
     11 O           7.6330  -11.4120   22.6860 O.2       5 ALP1        0.0000 
     12 O          10.3005  -14.2975   24.0345 O.2       1 ALC1        0.0000 
     13 O          10.2720  -15.7480   23.8980 O.2       5 ALP1        0.0000 
     14 O          10.5435  -11.6605   24.9610 O.2       1 ALC1        0.0000 
     15 O          10.7580  -10.4740   25.7510 O.2       5 ALP1        0.0000 
     16 CA         14.6945  -10.8375   23.7240 C.3       4 GLC5        0.0000 
     17 CA         13.0620  -10.6940   22.5400 C.3      12 GLL5        0.0000 
     18 CA         16.3270  -10.9810   24.9080 C.3       8 GLP5        0.0000 
     19 CA         10.2830   -9.5820   22.8730 C.3       4 GLC5        0.0000 
     20 CA         11.6930  -10.9390   23.2670 C.3      12 GLL5        0.0000 
     21 CA          8.8730   -8.2250   22.4790 C.3       8 GLP5        0.0000 
     22 CA         12.0250   -9.0285   22.7255 C.3       4 GLC5        0.0000 
     23 CA         12.3570   -7.1180   22.1840 C.3       8 GLP5        0.0000 
     24 CA         11.4980  -12.8785   19.0770 C.3       4 GLC5        0.0000 
     25 CA         12.4150  -12.6670   20.9440 C.3      12 GLL5        0.0000 
     26 CA         10.5810  -13.0900   17.2100 C.3       8 GLP5        0.0000 
     27 N          15.6380  -13.4030   24.5980 N.am      2 SEC2        0.0000 
     28 N          16.4570  -14.1480   23.6930 N.am     10 SEL2        0.0000 
     29 N          14.8190  -12.6580   25.5030 N.am      6 SEP2        0.0000 
     30 CA         22.1720  -14.8615   20.8525 C.3       4 GLC5        0.0000 
     31 CA         20.4440  -14.5980   21.2530 C.3      12 GLL5        0.0000 
     32 CA         23.9000  -15.1250   20.4520 C.3       8 GLP5        0.0000 
     33 CA         19.8065  -15.5275   20.0065 C.3       4 GLC5        0.0000 
     34 CA         19.1690  -16.4570   18.7600 C.3       8 GLP5        0.0000 
     35 CA         21.7080  -14.5345   19.7825 C.3       4 GLC5        0.0000 
     36 CA         20.1380  -13.4830   20.2800 C.3      12 GLL5        0.0000 
     37 CA         23.2780  -15.5860   19.2850 C.3       8 GLP5        0.0000 
     38 CA         17.8390  -12.1665   23.4420 C.3       4 GLC5        0.0000 
     39 CA         17.9940  -12.8890   21.5140 C.3      12 GLL5        0.0000 
     40 CA         17.6840  -11.4440   25.3700 C.3       8 GLP5        0.0000 
     41 CA         17.0575  -14.6910   26.9920 C.3       4 GLC5        0.0000 
     42 CA         16.9020  -16.4020   25.7390 C.3      12 GLL5        0.0000 
     43 CA         17.2130  -12.9800   28.2450 C.3       8 GLP5        0.0000 
     44 CA         15.3450  -14.8800   26.0175 C.3       4 GLC5        0.0000 
     45 CA         13.7880  -13.3580   26.2960 C.3       8 GLP5        0.0000 
     46 CA         15.8935  -16.9695   27.2710 C.3       4 GLC5        0.0000 
     47 CA         14.8850  -17.5370   28.8030 C.3       8 GLP5        0.0000 
     48 CA         12.7307   -9.0560   22.0023 C.3       4 GLC5        0.0000 
     49 CA         10.0895  -11.8680   21.7647 C.3       4 GLC5        0.0000 
     50 CA          8.6360  -12.0360   20.2790 C.3       8 GLP5        0.0000 
     51 CA         12.6655  -12.5290   24.7733 C.3       4 GLC5        0.0000 
     52 CA         11.3930  -12.4610   23.2340 C.3      12 GLL5        0.0000 
     53 CA          9.8390  -13.9328   22.0240 C.3       4 GLC5        0.0000 
     54 CA          8.4310  -15.2260   21.5460 C.3       8 GLP5        0.0000 
     55 CA         10.1970  -12.3893   20.8180 C.3       4 GLC5        0.0000 
     56 CA         11.1010  -12.8180   21.7700 C.3      12 GLL5        0.0000 
     57 CA         19.5503  -14.3392   19.0832 C.3       4 GLC5        0.0000 
     58 CA         19.0090  -12.7640   20.4130 C.3      12 GLL5        0.0000 
     59 CA         19.5270  -15.5550   17.8200 C.3       8 GLP5        0.0000 
     60 CA         18.9169  -11.4276   19.7986 C.3       4 GLC5        0.0000 
     61 CA         19.0500   -9.8490   18.6670 C.3       8 GLP5        0.0000 
     62 CA         19.8634  -11.6191   22.0731 C.3       4 GLC5        0.0000 
     63 CA         20.9430  -10.2320   23.2160 C.3       8 GLP5        0.0000 
     64 CA         23.0643  -13.5247   27.3740 C.3       4 GLC5        0.0000 
     65 CA         21.4520  -14.6360   27.1510 C.3      12 GLL5        0.0000 
     66 CA         24.3610  -12.3410   28.2130 C.3       8 GLP5        0.0000 
     67 CA         21.4517  -15.5838   28.0490 C.3       4 GLC5        0.0000 
     68 CA         21.1360  -16.4590   29.5630 C.3       8 GLP5        0.0000 
     69 CA         20.6505  -16.2241   27.8137 C.3       4 GLC5        0.0000 
     70 CA         19.7060  -16.1130   26.4360 C.3      12 GLL5        0.0000 
@<TRIPOS>BOND
@<TRIPOS>SUBSTRUCTURE
     1 ALC1        9 GROUP        1 X    ALC  0     ROOT ALC X 1
     2 SEC2       27 GROUP        1 X    SEC  0     **** SEC X 2
     3 ASC3        4 GROUP        1 X    ASC  0     **** ASC X 3
     4 GLC5        1 GROUP        1 X    GLC  0     **** GLC X 6
     5 ALP1       11 GROUP        1 Y    ALP  0     ROOT ALP Y 8
     6 SEP2       29 GROUP        1 Y    SEP  0     **** SEP Y 9
     7 ASP3        6 GROUP        1 Y    ASP  0     **** ASP Y 10
     8 GLP5        3 GROUP        1 Y    GLP  0     **** GLP Y 13
     9 ALL1       10 GROUP        1 Z    ALL  0     ROOT ALL Z 15
    10 SEL2       28 GROUP        1 Z    SEL  0     **** SEL Z 16
    11 ASL3        5 GROUP        1 Z    ASL  0     **** ASL Z 17
    12 GLL5        2 GROUP        1 Z    GLL  0     **** GLL Z 20
@<TRIPOS>SET

