#    Name: 1d9i_00P_1_ligand
#    Modification time : Mon Mar 24 21:35:05 2014

@<TRIPOS>MOLECULE
1d9i_00P_1_ligand
   63    66     1     0     0
SMALL
NO_CHARGES


@<TRIPOS>ATOM
      1 C1         14.6340  -11.3620   20.5950 C.3       1 00P380      0.0000 
      2 N1         15.5640  -12.1770   21.3760 N.am      1 00P380      0.0000 
      3 C2         13.1470  -11.2940   21.1010 C.3       1 00P380      0.0000 
      4 N2         10.3290  -12.8470   24.1710 N.4       1 00P380      0.0000 
      5 C3         13.0620  -10.6940   22.5400 C.3       1 00P380      0.0000 
      6 C4         11.6930  -10.9390   23.2670 C.3       1 00P380      0.0000 
      7 C5         11.3930  -12.4610   23.2340 C.3       1 00P380      0.0000 
      8 C6         11.1010  -12.8180   21.7700 C.3       1 00P380      0.0000 
      9 C7         12.4150  -12.6670   20.9440 C.3       1 00P380      0.0000 
     10 N07        17.9450  -15.9540   23.4870 N.am      1 00P380      0.0000 
     11 C08        19.0400  -16.1960   22.6510 C.2       1 00P380      0.0000 
     12 O09        19.7450  -17.2000   22.5880 O.2       1 00P380      0.0000 
     13 N10        19.2010  -15.0530   21.8590 N.am      1 00P380      0.0000 
     14 N11        18.2070  -14.1460   22.2110 N.am      1 00P380      0.0000 
     15 C12        17.4300  -14.6990   23.2110 C.2       1 00P380      0.0000 
     16 O13        16.4570  -14.1480   23.6930 O.2       1 00P380      0.0000 
     17 C14        20.4440  -14.5980   21.2530 C.3       1 00P380      0.0000 
     18 C15        20.1380  -13.4830   20.2800 C.2       1 00P380      0.0000 
     19 C16        19.0090  -12.7640   20.4130 C.2       1 00P380      0.0000 
     20 C17        17.9940  -12.8890   21.5140 C.3       1 00P380      0.0000 
     21 C18        16.5950  -12.9620   20.8130 C.2       1 00P380      0.0000 
     22 O19        16.3630  -13.7750   19.9310 O.2       1 00P380      0.0000 
     23 C31        17.3710  -16.9340   24.3950 C.3       1 00P380      0.0000 
     24 C32        16.9020  -16.4020   25.7390 C.3       1 00P380      0.0000 
     25 S33        18.2030  -17.0280   26.7510 S.o2      1 00P380      0.0000 
     26 O34        17.9480  -16.9120   28.1580 O.2       1 00P380      0.0000 
     27 O35        18.5360  -18.3710   26.2200 O.2       1 00P380      0.0000 
     28 C36        19.7060  -16.1130   26.4360 C.ar      1 00P380      0.0000 
     29 C37        20.2580  -15.3020   27.4200 C.ar      1 00P380      0.0000 
     30 C38        21.4520  -14.6360   27.1510 C.ar      1 00P380      0.0000 
     31 C39        22.0830  -14.7810   25.9190 C.ar      1 00P380      0.0000 
     32 C40        21.5350  -15.5990   24.9340 C.ar      1 00P380      0.0000 
     33 C41        20.3480  -16.2710   25.2010 C.ar      1 00P380      0.0000 
     34 H          14.5920  -11.7159   19.5341 H         1 00P380      0.0000 
     35 H          14.9946  -10.3047   20.5274 H         1 00P380      0.0000 
     36 H          15.4422  -12.1646   22.4117 H         1 00P380      0.0000 
     37 H          12.6286  -10.5752   20.4242 H         1 00P380      0.0000 
     38 H          13.2352   -9.6127   22.4819 H         1 00P380      0.0000 
     39 H          13.8620  -11.1290   23.1511 H         1 00P380      0.0000 
     40 H          10.9235  -10.4104   22.7432 H         1 00P380      0.0000 
     41 H          11.7772  -10.6120   24.2828 H         1 00P380      0.0000 
     42 H          12.3377  -12.9592   23.4989 H         1 00P380      0.0000 
     43 H          10.3618  -12.1451   21.3716 H         1 00P380      0.0000 
     44 H          10.7654  -13.8382   21.7040 H         1 00P380      0.0000 
     45 H          13.1099  -13.4680   21.2394 H         1 00P380      0.0000 
     46 H          12.1799  -12.8166   19.8790 H         1 00P380      0.0000 
     47 H          20.9337  -15.4094   20.7120 H         1 00P380      0.0000 
     48 H          21.1322  -14.2211   22.0114 H         1 00P380      0.0000 
     49 H          20.8322  -13.3336   19.5495 H         1 00P380      0.0000 
     50 H          18.7555  -12.0157   19.6962 H         1 00P380      0.0000 
     51 H          18.0122  -12.0604   22.1387 H         1 00P380      0.0000 
     52 H          18.1067  -17.7557   24.5931 H         1 00P380      0.0000 
     53 H          16.5007  -17.4474   23.9106 H         1 00P380      0.0000 
     54 H          16.0692  -16.8758   26.0967 H         1 00P380      0.0000 
     55 H          16.9930  -15.3874   25.8299 H         1 00P380      0.0000 
     56 H          19.7985  -15.1948   28.3243 H         1 00P380      0.0000 
     57 H          21.8720  -14.0295   27.8728 H         1 00P380      0.0000 
     58 H          22.9647  -14.2782   25.7333 H         1 00P380      0.0000 
     59 H          21.9988  -15.7025   24.0306 H         1 00P380      0.0000 
     60 H          19.9341  -16.8899   24.4898 H         1 00P380      0.0000 
     61 H          10.4495  -13.7818   24.5050 H         1 00P380      0.0000 
     62 H          10.3056  -12.2500   24.9729 H         1 00P380      0.0000 
     63 H           9.4251  -12.8019   23.7456 H         1 00P380      0.0000 
@<TRIPOS>BOND
     1    2    1 1    
     2    3    1 1    
     3   34    1 1    
     4   35    1 1    
     5   21    2 am   
     6   36    2 1    
     7    5    3 1    
     8    9    3 1    
     9   37    3 1    
    10    7    4 1    
    11   61    4 1    
    12   62    4 1    
    13   63    4 1    
    14    6    5 1    
    15   38    5 1    
    16   39    5 1    
    17    7    6 1    
    18   40    6 1    
    19   41    6 1    
    20    8    7 1    
    21   42    7 1    
    22    9    8 1    
    23   43    8 1    
    24   44    8 1    
    25   45    9 1    
    26   46    9 1    
    27   11   10 am   
    28   15   10 am   
    29   23   10 1    
    30   12   11 2    
    31   13   11 am   
    32   14   13 1    
    33   17   13 1    
    34   15   14 am   
    35   20   14 1    
    36   16   15 2    
    37   18   17 1    
    38   47   17 1    
    39   48   17 1    
    40   19   18 2    
    41   49   18 1    
    42   20   19 1    
    43   50   19 1    
    44   21   20 1    
    45   51   20 1    
    46   22   21 2    
    47   24   23 1    
    48   52   23 1    
    49   53   23 1    
    50   25   24 1    
    51   54   24 1    
    52   55   24 1    
    53   26   25 2    
    54   27   25 2    
    55   28   25 1    
    56   29   28 ar   
    57   33   28 ar   
    58   30   29 ar   
    59   56   29 1    
    60   31   30 ar   
    61   57   30 1    
    62   32   31 ar   
    63   58   31 1    
    64   33   32 ar   
    65   59   32 1    
    66   60   33 1    
@<TRIPOS>SUBSTRUCTURE
     1 00P380      1 GROUP   
@<TRIPOS>SET

