#    Name: 1me8_RVP_1_INTS_M
#    Modification time : Tue Mar 25 11:45:21 2014

@<TRIPOS>MOLECULE
1me8_RVP_1_INTS_M
   40     0     9     0     0
SMALL
NO_CHARGES


@<TRIPOS>ATOM
      1 N          67.5755   56.2485   12.7455 N.am      2 SEC2        0.0000 
      2 N          67.4470   55.1060   13.5660 N.am      8 SEL2        0.0000 
      3 N          67.7040   57.3910   11.9250 N.am      5 SEP2        0.0000 
      4 N          67.9600   53.8930   12.8365 N.am      2 SEC2        0.0000 
      5 N          68.4730   52.6800   12.1070 N.am      5 SEP2        0.0000 
      6 N          66.5120   54.5465   12.7950 N.am      2 SEC2        0.0000 
      7 N          65.5770   53.9870   12.0240 N.am      5 SEP2        0.0000 
      8 N          68.3260   52.6905   15.0820 N.am      2 SEC2        0.0000 
      9 N          68.6180   53.9930   15.3860 N.am      8 SEL2        0.0000 
     10 N          68.0340   51.3880   14.7780 N.am      5 SEP2        0.0000 
     11 N          67.8225   57.6445   14.8770 N.am      2 SEC2        0.0000 
     12 N          68.5890   56.4890   15.3350 N.am      8 SEL2        0.0000 
     13 N          67.0560   58.8000   14.4190 N.am      5 SEP2        0.0000 
     14 CA         64.3090   53.0350   14.6880 C.3       3 GLC5        0.0000 
     15 CA         65.6010   54.2070   15.9620 C.3       9 GLL5        0.0000 
     16 CA         63.0170   51.8630   13.4140 C.3       6 GLP5        0.0000 
     17 CA         66.4110   52.7195   14.7730 C.3       3 GLC5        0.0000 
     18 CA         67.2210   51.2320   13.5840 C.3       6 GLP5        0.0000 
     19 CA         64.0045   51.5210   16.4590 C.3       3 GLC5        0.0000 
     20 CA         63.4370   53.3700   17.1790 C.3       9 GLL5        0.0000 
     21 CA         64.5720   49.6720   15.7390 C.3       6 GLP5        0.0000 
     22 CA         63.2270   52.6165   15.2965 C.3       3 GLC5        0.0000 
     23 O          64.6285   52.4730   18.9285 O.2       1 ALC1        0.0000 
     24 O          63.8630   52.2290   17.9140 O.2       7 ALL1        0.0000 
     25 O          65.3940   52.7170   19.9430 O.2       4 ALP1        0.0000 
     26 O          63.9380   53.4975   19.5895 O.2       1 ALC1        0.0000 
     27 O          62.4820   54.2780   19.2360 O.2       7 ALL1        0.0000 
     28 O          63.0060   53.5555   20.1735 O.2       1 ALC1        0.0000 
     29 O          63.5300   52.8330   21.1110 O.2       4 ALP1        0.0000 
     30 N          59.2510   54.8630   13.0820 N.am      2 SEC2        0.0000 
     31 N          60.1710   55.2310   14.1290 N.am      8 SEL2        0.0000 
     32 N          58.3310   54.4950   12.0350 N.am      5 SEP2        0.0000 
     33 N          57.4895   56.9080   12.6850 N.am      2 SEC2        0.0000 
     34 N          58.5920   57.5670   12.9060 N.am      8 SEL2        0.0000 
     35 N          56.3870   56.2490   12.4640 N.am      5 SEP2        0.0000 
     36 CA         65.4925   56.4763   16.5142 C.3       3 GLC5        0.0000 
     37 CA         64.5210   54.4180   16.9850 C.3       9 GLL5        0.0000 
     38 CA         65.9240   58.6400   16.5550 C.3       6 GLP5        0.0000 
     39 CA         66.5250   55.0072   17.8877 C.3       3 GLC5        0.0000 
     40 CA         67.9890   55.7020   19.3020 C.3       6 GLP5        0.0000 
@<TRIPOS>BOND
@<TRIPOS>SUBSTRUCTURE
     1 ALC1       23 GROUP        1 X    ALC  0     ROOT ALC X 1
     2 SEC2        1 GROUP        1 X    SEC  0     **** SEC X 2
     3 GLC5       14 GROUP        1 X    GLC  0     **** GLC X 6
     4 ALP1       25 GROUP        1 Y    ALP  0     ROOT ALP Y 8
     5 SEP2        3 GROUP        1 Y    SEP  0     **** SEP Y 9
     6 GLP5       16 GROUP        1 Y    GLP  0     **** GLP Y 13
     7 ALL1       24 GROUP        1 Z    ALL  0     ROOT ALL Z 15
     8 SEL2        2 GROUP        1 Z    SEL  0     **** SEL Z 16
     9 GLL5       15 GROUP        1 Z    GLL  0     **** GLL Z 20
@<TRIPOS>SET

