#    Name: 1me8_RVP_1_ligand
#    Modification time : Tue Mar 25 11:45:21 2014

@<TRIPOS>MOLECULE
1me8_RVP_1_ligand
   32    33     1     0     0
SMALL
NO_CHARGES


@<TRIPOS>ATOM
      1 P          67.8060   55.1920   15.0100 P.3       1 RVP602      0.0000 
      2 O1P        67.4470   55.1060   13.5660 O.co2     1 RVP602      0.0000 
      3 O2P        68.6180   53.9930   15.3860 O.co2     1 RVP602      0.0000 
      4 O3P        68.5890   56.4890   15.3350 O.co2     1 RVP602      0.0000 
      5 O5'        66.5640   55.2600   15.9980 O.3       1 RVP602      0.0000 
      6 C5'        65.6010   54.2070   15.9620 C.3       1 RVP602      0.0000 
      7 C4'        64.5210   54.4180   16.9850 C.3       1 RVP602      0.0000 
      8 O4'        63.7660   55.6050   16.5400 O.3       1 RVP602      0.0000 
      9 C3'        63.4370   53.3700   17.1790 C.3       1 RVP602      0.0000 
     10 O3'        63.8630   52.2290   17.9140 O.3       1 RVP602      0.0000 
     11 C2'        62.3430   54.1620   17.8320 C.3       1 RVP602      0.0000 
     12 O2'        62.4820   54.2780   19.2360 O.3       1 RVP602      0.0000 
     13 C1'        62.4340   55.4860   17.0670 C.3       1 RVP602      0.0000 
     14 N9         61.4750   55.6020   15.9030 N.pl3     1 RVP602      0.0000 
     15 C8         60.9890   54.6940   14.9780 C.2       1 RVP602      0.0000 
     16 N7         60.1710   55.2310   14.1290 N.2       1 RVP602      0.0000 
     17 C5         60.0840   56.5440   14.4680 C.2       1 RVP602      0.0000 
     18 C6         59.3290   57.6340   13.8770 C.2       1 RVP602      0.0000 
     19 O6         58.5920   57.5670   12.9060 O.2       1 RVP602      0.0000 
     20 N1         59.5010   58.9020   14.5320 N.am      1 RVP602      0.0000 
     21 N4         60.8830   56.8100   15.5740 N.2       1 RVP602      0.0000 
     22 H          66.0734   53.2267   16.1564 H         1 RVP602      0.0000 
     23 H          65.1244   54.1352   14.9672 H         1 RVP602      0.0000 
     24 H          64.9519   54.6643   17.9460 H         1 RVP602      0.0000 
     25 H          63.0834   53.1135   16.1749 H         1 RVP602      0.0000 
     26 H          61.4020   53.7042   17.5287 H         1 RVP602      0.0000 
     27 H          62.2450   56.2959   17.7594 H         1 RVP602      0.0000 
     28 H          61.2684   53.7358   15.0024 H         1 RVP602      0.0000 
     29 H          60.1614   58.9235   15.2826 H         1 RVP602      0.0000 
     30 H          58.9459   59.6568   14.1823 H         1 RVP602      0.0000 
     31 H          64.7468   52.4876   18.3039 H         1 RVP602      0.0000 
     32 H          62.9683   53.4506   19.5170 H         1 RVP602      0.0000 
@<TRIPOS>BOND
     1    2    1 ar   
     2    3    1 ar   
     3    4    1 ar   
     4    5    1 1    
     5    6    5 1    
     6    7    6 1    
     7   22    6 1    
     8   23    6 1    
     9    8    7 1    
    10    9    7 1    
    11   24    7 1    
    12   13    8 1    
    13   10    9 1    
    14   11    9 1    
    15   25    9 1    
    16   31   10 1    
    17   12   11 1    
    18   13   11 1    
    19   26   11 1    
    20   32   12 1    
    21   14   13 1    
    22   27   13 1    
    23   15   14 1    
    24   21   14 1    
    25   16   15 2    
    26   28   15 1    
    27   17   16 1    
    28   18   17 1    
    29   21   17 2    
    30   19   18 2    
    31   20   18 am   
    32   29   20 1    
    33   30   20 1    
@<TRIPOS>SUBSTRUCTURE
     1 RVP602      1 GROUP   
@<TRIPOS>SET

