#    Name: 2zxm_JB1_1_INTS_M
#    Modification time : Tue Mar 25 11:17:36 2014

@<TRIPOS>MOLECULE
2zxm_JB1_1_INTS_M
  114     0     9     0     0
SMALL
NO_CHARGES


@<TRIPOS>ATOM
      1 CA         17.8355   -6.5635   27.8595 C.3       3 GLC5        0.0000 
      2 CA         16.7630   -6.6740   29.2720 C.3       9 GLL5        0.0000 
      3 CA         18.9080   -6.4530   26.4470 C.3       6 GLP5        0.0000 
      4 CA         18.0280   -4.9965   28.7525 C.3       3 GLC5        0.0000 
      5 CA         19.2930   -3.3190   28.2330 C.3       6 GLP5        0.0000 
      6 CA         18.7370   -7.6810   29.0075 C.3       3 GLC5        0.0000 
      7 CA         20.7110   -8.6880   28.7430 C.3       6 GLP5        0.0000 
      8 CA         15.9100   -8.6730   29.1875 C.3       3 GLC5        0.0000 
      9 CA         15.0570  -10.6720   29.1030 C.3       6 GLP5        0.0000 
     10 CA         16.7010   -3.8690   29.6830 C.3       3 GLC5        0.0000 
     11 CA         15.9410   -5.5160   29.8350 C.3       9 GLL5        0.0000 
     12 CA         17.4610   -2.2220   29.5310 C.3       6 GLP5        0.0000 
     13 CA         12.7690   -5.5295   31.4165 C.3       3 GLC5        0.0000 
     14 CA         14.4690   -5.9080   29.9930 C.3       9 GLL5        0.0000 
     15 CA         11.0690   -5.1510   32.8400 C.3       6 GLP5        0.0000 
     16 CA         14.9540   -7.1185   31.2710 C.3       3 GLC5        0.0000 
     17 CA         15.4390   -8.3290   32.5490 C.3       6 GLP5        0.0000 
     18 CA         13.7565   -7.5695   29.1555 C.3       3 GLC5        0.0000 
     19 CA         13.0440   -9.2310   28.3180 C.3       6 GLP5        0.0000 
     20 CA         13.3740   -2.7700   30.7485 C.3       3 GLC5        0.0000 
     21 CA         13.5390   -4.7250   29.7130 C.3       9 GLL5        0.0000 
     22 CA         13.2090   -0.8150   31.7840 C.3       6 GLP5        0.0000 
     23 CA         11.9280   -4.7405   30.7490 C.3       3 GLC5        0.0000 
     24 CA         10.3170   -4.7560   31.7850 C.3       6 GLP5        0.0000 
     25 CA         13.4655   -6.7480   26.2365 C.3       3 GLC5        0.0000 
     26 CA         12.4810   -5.7270   27.5660 C.3       9 GLL5        0.0000 
     27 CA         14.4500   -7.7690   24.9070 C.3       6 GLP5        0.0000 
     28 CA         10.6755   -5.4435   29.8565 C.3       3 GLC5        0.0000 
     29 CA         11.0340   -6.1310   27.9280 C.3       9 GLL5        0.0000 
     30 N          11.2725   -8.2645   27.2065 N.am      2 SEC2        0.0000 
     31 N          10.4880   -7.0950   27.0290 N.am      8 SEL2        0.0000 
     32 N          12.0570   -9.4340   27.3840 N.am      5 SEP2        0.0000 
     33 CA         12.3895   -1.7095   30.4380 C.3       3 GLC5        0.0000 
     34 CA         11.5700   -2.6040   29.0920 C.3       9 GLL5        0.0000 
     35 CA         10.9435   -3.6800   30.4385 C.3       3 GLC5        0.0000 
     36 CA         14.7500   -2.7605   23.4685 C.3       3 GLC5        0.0000 
     37 CA         14.7850   -1.7630   25.2010 C.3       9 GLL5        0.0000 
     38 CA         14.7150   -3.7580   21.7360 C.3       6 GLP5        0.0000 
     39 CA         16.2400    0.3790   26.6140 C.3       3 GLC5        0.0000 
     40 CA         14.3230   -0.5170   25.9380 C.3       9 GLL5        0.0000 
     41 CA         18.1570    1.2750   27.2900 C.3       6 GLP5        0.0000 
     42 CA         10.6155   -2.4085   24.6680 C.3       3 GLC5        0.0000 
     43 CA         11.7360   -1.1760   25.4500 C.3       9 GLL5        0.0000 
     44 CA          9.4950   -3.6410   23.8860 C.3       6 GLP5        0.0000 
     45 CA         10.6075    0.8105   28.0520 C.3       3 GLC5        0.0000 
     46 CA         12.4680    0.3750   27.3760 C.3       9 GLL5        0.0000 
     47 CA          8.7470    1.2460   28.7280 C.3       6 GLP5        0.0000 
     48 CA         10.5460    2.0700   26.5670 C.3       3 GLC5        0.0000 
     49 CA         12.4030    1.7480   26.6240 C.3       9 GLL5        0.0000 
     50 CA          8.6890    2.3920   26.5100 C.3       6 GLP5        0.0000 
     51 CA         15.3765    2.7010   26.1615 C.3       3 GLC5        0.0000 
     52 CA         13.6880    2.0570   25.8020 C.3       9 GLL5        0.0000 
     53 CA         17.0650    3.3450   26.5210 C.3       6 GLP5        0.0000 
     54 CA         16.0700    1.5035   25.6800 C.3       3 GLC5        0.0000 
     55 CA         14.2780    0.8040   25.0740 C.3       9 GLL5        0.0000 
     56 CA         17.8620    2.2030   26.2860 C.3       6 GLP5        0.0000 
     57 CA         12.3885    2.8810   21.5810 C.3       3 GLC5        0.0000 
     58 CA         14.3840    3.3820   20.7010 C.3       9 GLL5        0.0000 
     59 CA         10.3930    2.3800   22.4610 C.3       6 GLP5        0.0000 
     60 CA         16.2645    3.5575   17.6580 C.3       3 GLC5        0.0000 
     61 CA         15.1830    3.2980   19.3660 C.3       9 GLL5        0.0000 
     62 CA         17.3460    3.8170   15.9500 C.3       6 GLP5        0.0000 
     63 CA         16.8405    2.0405   20.2185 C.3       3 GLC5        0.0000 
     64 CA         18.4980    0.7830   21.0710 C.3       6 GLP5        0.0000 
     65 N          17.0150    3.7935   18.4295 N.am      2 SEC2        0.0000 
     66 N          16.5810    3.1950   19.6630 N.am      8 SEL2        0.0000 
     67 N          17.4490    4.3920   17.1960 N.am      5 SEP2        0.0000 
     68 O          16.9485    4.1750   20.5165 O.2       1 ALC1        0.0000 
     69 O          16.5810    3.1950   19.6630 O.2       7 ALL1        0.0000 
     70 O          17.3160    5.1550   21.3700 O.2       4 ALP1        0.0000 
     71 CA         16.0175    2.2530   17.1710 C.3       3 GLC5        0.0000 
     72 CA         14.7310    2.0680   18.5150 C.3       9 GLL5        0.0000 
     73 CA         17.3040    2.4380   15.8270 C.3       6 GLP5        0.0000 
     74 CA         15.4780   -0.7235   18.1950 C.3       3 GLC5        0.0000 
     75 CA         14.8020    0.7300   19.3240 C.3       9 GLL5        0.0000 
     76 CA         16.1540   -2.1770   17.0660 C.3       6 GLP5        0.0000 
     77 CA         16.6500    0.7565   20.1975 C.3       3 GLC5        0.0000 
     78 N          14.4445   -0.5105   16.8620 N.am      2 SEC2        0.0000 
     79 N          14.2290   -0.3170   18.5370 N.am      8 SEL2        0.0000 
     80 N          14.6600   -0.7040   15.1870 N.am      5 SEP2        0.0000 
     81 O          12.9800   -0.9590   18.5995 O.2       1 ALC1        0.0000 
     82 O          14.2290   -0.3170   18.5370 O.2       7 ALL1        0.0000 
     83 O          11.7310   -1.6010   18.6620 O.2       4 ALP1        0.0000 
     84 CA         12.4740   -1.5145   19.5990 C.3       3 GLC5        0.0000 
     85 CA         13.0820   -0.1050   21.0210 C.3       9 GLL5        0.0000 
     86 CA         11.8660   -2.9240   18.1770 C.3       6 GLP5        0.0000 
     87 CA         13.8985   -1.9315   21.3785 C.3       3 GLC5        0.0000 
     88 CA         16.4940   -6.7825   31.2402 C.3       3 GLC5        0.0000 
     89 CA         16.6360   -7.4700   32.9270 C.3       6 GLP5        0.0000 
     90 CA         12.4008   -7.5800   28.0325 C.3       3 GLC5        0.0000 
     91 CA         12.9563    1.2457   28.8610 C.3       3 GLC5        0.0000 
     92 CA         13.4770    1.4300   30.7220 C.3       6 GLP5        0.0000 
     93 CA         12.7647    3.7338   26.7890 C.3       3 GLC5        0.0000 
     94 CA         12.4840    5.5650   27.3650 C.3       6 GLP5        0.0000 
     95 CA         16.3075    0.8060   22.8308 C.3       3 GLC5        0.0000 
     96 CA         14.7060    0.8710   23.7360 C.3       9 GLL5        0.0000 
     97 CA         17.9260    0.1700   22.3500 C.3       6 GLP5        0.0000 
     98 CA         16.1940    2.3930   23.8427 C.3       3 GLC5        0.0000 
     99 CA         17.6990    3.3440   24.3740 C.3       6 GLP5        0.0000 
    100 CA         12.4560    2.1997   22.3233 C.3       3 GLC5        0.0000 
    101 CA         14.6720    2.0130   22.8870 C.3       9 GLL5        0.0000 
    102 CA         16.0660    0.8092   21.7188 C.3       3 GLC5        0.0000 
    103 CA         14.3660    2.0260   21.4840 C.3       9 GLL5        0.0000 
    104 CA         16.2878    4.7070   20.2178 C.3       3 GLC5        0.0000 
    105 CA         17.7920    6.0740   20.4020 C.3       6 GLP5        0.0000 
    106 CA         14.3483    5.0590   20.4648 C.3       3 GLC5        0.0000 
    107 CA         13.9130    6.7780   20.8960 C.3       6 GLP5        0.0000 
    108 CA         14.9165    4.5050   18.1003 C.3       3 GLC5        0.0000 
    109 CA         14.8760    6.3270   17.2600 C.3       6 GLP5        0.0000 
    110 CA         12.9241    3.6635   19.0551 C.3       3 GLC5        0.0000 
    111 CA         11.0910    4.6230   18.8360 C.3       6 GLP5        0.0000 
    112 CA         11.8390    0.9585   20.4935 C.3       3 GLC5        0.0000 
    113 CA         14.0460    0.8710   20.6910 C.3       9 GLL5        0.0000 
    114 CA         10.1140    1.5340   20.1310 C.3       6 GLP5        0.0000 
@<TRIPOS>BOND
@<TRIPOS>SUBSTRUCTURE
     1 ALC1       68 GROUP        1 X    ALC  0     ROOT ALC X 1
     2 SEC2       30 GROUP        1 X    SEC  0     **** SEC X 2
     3 GLC5        1 GROUP        1 X    GLC  0     **** GLC X 6
     4 ALP1       70 GROUP        1 Y    ALP  0     ROOT ALP Y 8
     5 SEP2       32 GROUP        1 Y    SEP  0     **** SEP Y 9
     6 GLP5        3 GROUP        1 Y    GLP  0     **** GLP Y 13
     7 ALL1       69 GROUP        1 Z    ALL  0     ROOT ALL Z 15
     8 SEL2       31 GROUP        1 Z    SEL  0     **** SEL Z 16
     9 GLL5        2 GROUP        1 Z    GLL  0     **** GLL Z 20
@<TRIPOS>SET

