#    Name: 2zxm_JB1_1_ligand
#    Modification time : Tue Mar 25 11:17:36 2014

@<TRIPOS>MOLECULE
2zxm_JB1_1_ligand
   75    77     1     0     0
SMALL
NO_CHARGES


@<TRIPOS>ATOM
      1 C31        16.7630   -6.6740   29.2720 C.3       1 JB11        0.0000 
      2 C30        15.9410   -5.5160   29.8350 C.3       1 JB11        0.0000 
      3 C29        14.4690   -5.9080   29.9930 C.3       1 JB11        0.0000 
      4 C28        13.5390   -4.7250   29.7130 C.3       1 JB11        0.0000 
      5 C22        13.2060   -4.4960   28.2060 C.3       1 JB11        0.0000 
      6 C23        12.4810   -5.7270   27.5660 C.3       1 JB11        0.0000 
      7 C24        11.0340   -6.1310   27.9280 C.3       1 JB11        0.0000 
      8 O03        10.4880   -7.0950   27.0290 O.3       1 JB11        0.0000 
      9 C20        12.3800   -3.1760   27.8960 C.3       1 JB11        0.0000 
     10 C21        11.5700   -2.6040   29.0920 C.3       1 JB11        0.0000 
     11 C17        13.3900   -2.1230   27.2580 C.3       1 JB11        0.0000 
     12 C16        14.3320   -2.8210   26.2040 C.3       1 JB11        0.0000 
     13 C15        14.7850   -1.7630   25.2010 C.3       1 JB11        0.0000 
     14 C14        14.3230   -0.5170   25.9380 C.3       1 JB11        0.0000 
     15 C13        12.8990   -0.8400   26.4770 C.3       1 JB11        0.0000 
     16 C18        11.7360   -1.1760   25.4500 C.3       1 JB11        0.0000 
     17 C12        12.4680    0.3750   27.3760 C.3       1 JB11        0.0000 
     18 C11        12.4030    1.7480   26.6240 C.3       1 JB11        0.0000 
     19 C09        13.6880    2.0570   25.8020 C.3       1 JB11        0.0000 
     20 C08        14.2780    0.8040   25.0740 C.2       1 JB11        0.0000 
     21 C07        14.7060    0.8710   23.7360 C.2       1 JB11        0.0000 
     22 C06        14.6720    2.0130   22.8870 C.2       1 JB11        0.0000 
     23 C05        14.3660    2.0260   21.4840 C.2       1 JB11        0.0000 
     24 C04        14.3840    3.3820   20.7010 C.3       1 JB11        0.0000 
     25 C03        15.1830    3.2980   19.3660 C.3       1 JB11        0.0000 
     26 O02        16.5810    3.1950   19.6630 O.3       1 JB11        0.0000 
     27 C02        14.7310    2.0680   18.5150 C.3       1 JB11        0.0000 
     28 C01        14.8020    0.7300   19.3240 C.3       1 JB11        0.0000 
     29 O01        14.2290   -0.3170   18.5370 O.3       1 JB11        0.0000 
     30 C10        14.0460    0.8710   20.6910 C.2       1 JB11        0.0000 
     31 C19        13.0820   -0.1050   21.0210 C.2       1 JB11        0.0000 
     32 H          16.0131   -4.6623   29.1613 H         1 JB11        0.0000 
     33 H          16.3409   -5.2300   30.8076 H         1 JB11        0.0000 
     34 H          14.3005   -6.2634   31.0108 H         1 JB11        0.0000 
     35 H          14.2378   -6.7178   29.2992 H         1 JB11        0.0000 
     36 H          13.9954   -3.8021   30.1072 H         1 JB11        0.0000 
     37 H          12.5903   -4.8716   30.2552 H         1 JB11        0.0000 
     38 H          14.1682   -4.3913   27.6611 H         1 JB11        0.0000 
     39 H          13.1491   -6.6338   27.7347 H         1 JB11        0.0000 
     40 H          12.5346   -5.5967   26.4359 H         1 JB11        0.0000 
     41 H          10.4331   -5.2009   27.9457 H         1 JB11        0.0000 
     42 H          11.0539   -6.5072   28.9694 H         1 JB11        0.0000 
     43 H          11.6781   -3.4384   27.0840 H         1 JB11        0.0000 
     44 H          14.0858   -1.7727   28.0430 H         1 JB11        0.0000 
     45 H          13.7715   -3.5884   25.7077 H         1 JB11        0.0000 
     46 H          15.1771   -3.2265   26.7243 H         1 JB11        0.0000 
     47 H          14.2559   -1.8704   24.3072 H         1 JB11        0.0000 
     48 H          15.8262   -1.7702   25.1221 H         1 JB11        0.0000 
     49 H          14.9524   -0.3497   26.7963 H         1 JB11        0.0000 
     50 H          13.1789    0.4627   28.2053 H         1 JB11        0.0000 
     51 H          11.4806    0.1603   27.7998 H         1 JB11        0.0000 
     52 H          12.2533    2.5403   27.3597 H         1 JB11        0.0000 
     53 H          11.5450    1.7344   25.9494 H         1 JB11        0.0000 
     54 H          14.4500    2.4601   26.4741 H         1 JB11        0.0000 
     55 H          13.4545    2.8175   25.0523 H         1 JB11        0.0000 
     56 H          15.0987   -0.0256   23.3060 H         1 JB11        0.0000 
     57 H          14.8947    2.9525   23.3315 H         1 JB11        0.0000 
     58 H          14.8345    4.1449   21.3357 H         1 JB11        0.0000 
     59 H          13.3564    3.6709   20.4809 H         1 JB11        0.0000 
     60 H          14.9675    4.1882   18.7981 H         1 JB11        0.0000 
     61 H          15.3769    1.9856   17.6447 H         1 JB11        0.0000 
     62 H          13.7068    2.2245   18.1864 H         1 JB11        0.0000 
     63 H          15.8406    0.5410   19.5418 H         1 JB11        0.0000 
     64 H          17.7264   -6.4282   29.1654 H         1 JB11        0.0000 
     65 H          16.7295   -7.4770   29.8670 H         1 JB11        0.0000 
     66 H          16.4326   -6.9614   28.3730 H         1 JB11        0.0000 
     67 H          12.1619   -2.3694   29.8631 H         1 JB11        0.0000 
     68 H          11.0731   -1.7734   28.8407 H         1 JB11        0.0000 
     69 H          10.8941   -3.2590   29.4299 H         1 JB11        0.0000 
     70 H          12.0276   -1.8423   24.7637 H         1 JB11        0.0000 
     71 H          10.9346   -1.5596   25.9089 H         1 JB11        0.0000 
     72 H          11.4296   -0.3620   24.9566 H         1 JB11        0.0000 
     73 H          10.7362   -6.5194   27.8082 H         1 JB11        0.0000 
     74 H          16.8061    4.0417   20.1452 H         1 JB11        0.0000 
     75 H          13.3145   -0.4555   18.9172 H         1 JB11        0.0000 
@<TRIPOS>BOND
     1    2    1 1    
     2   64    1 1    
     3   65    1 1    
     4   66    1 1    
     5    3    2 1    
     6   32    2 1    
     7   33    2 1    
     8    4    3 1    
     9   34    3 1    
    10   35    3 1    
    11    5    4 1    
    12   36    4 1    
    13   37    4 1    
    14    6    5 1    
    15    9    5 1    
    16   38    5 1    
    17    7    6 1    
    18   39    6 1    
    19   40    6 1    
    20    8    7 1    
    21   41    7 1    
    22   42    7 1    
    23   73    8 1    
    24   10    9 1    
    25   11    9 1    
    26   43    9 1    
    27   67   10 1    
    28   68   10 1    
    29   69   10 1    
    30   12   11 1    
    31   15   11 1    
    32   44   11 1    
    33   13   12 1    
    34   45   12 1    
    35   46   12 1    
    36   14   13 1    
    37   47   13 1    
    38   48   13 1    
    39   15   14 1    
    40   20   14 1    
    41   49   14 1    
    42   16   15 1    
    43   17   15 1    
    44   70   16 1    
    45   71   16 1    
    46   72   16 1    
    47   18   17 1    
    48   50   17 1    
    49   51   17 1    
    50   19   18 1    
    51   52   18 1    
    52   53   18 1    
    53   20   19 1    
    54   54   19 1    
    55   55   19 1    
    56   21   20 2    
    57   22   21 1    
    58   56   21 1    
    59   23   22 2    
    60   57   22 1    
    61   24   23 1    
    62   30   23 1    
    63   25   24 1    
    64   58   24 1    
    65   59   24 1    
    66   26   25 1    
    67   27   25 1    
    68   60   25 1    
    69   74   26 1    
    70   28   27 1    
    71   61   27 1    
    72   62   27 1    
    73   29   28 1    
    74   30   28 1    
    75   63   28 1    
    76   75   29 1    
    77   31   30 2    
@<TRIPOS>SUBSTRUCTURE
     1 JB11        1 GROUP   
@<TRIPOS>SET

