#    Name: 2b52_D42_1_INTS_M
#    Modification time : Mon Mar 24 20:04:15 2014

@<TRIPOS>MOLECULE
2b52_D42_1_INTS_M
   65     0     9     0     0
SMALL
NO_CHARGES


@<TRIPOS>ATOM
      1 CA         74.3485   64.7805   16.4600 C.3       3 GLC5        0.0000 
      2 CA         75.6190   64.7320   14.8060 C.3       9 GLL5        0.0000 
      3 CA         73.0780   64.8290   18.1140 C.3       6 GLP5        0.0000 
      4 CA         73.5155   64.9665   14.4025 C.3       3 GLC5        0.0000 
      5 CA         71.4120   65.2010   13.9990 C.3       6 GLP5        0.0000 
      6 CA         75.6570   61.7860   15.8465 C.3       3 GLC5        0.0000 
      7 CA         76.3040   63.4150   15.1330 C.3       9 GLL5        0.0000 
      8 CA         75.0100   60.1570   16.5600 C.3       6 GLP5        0.0000 
      9 CA         76.1740   65.2850   11.9930 C.3       3 GLC5        0.0000 
     10 CA         77.7060   65.4640   13.6240 C.3       9 GLL5        0.0000 
     11 CA         74.6420   65.1060   10.3620 C.3       6 GLP5        0.0000 
     12 CA         73.4245   65.8525   13.5650 C.3       3 GLC5        0.0000 
     13 CA         75.4370   66.5040   13.1310 C.3       9 GLL5        0.0000 
     14 CA         75.0395   65.8050   11.7465 C.3       3 GLC5        0.0000 
     15 CA         80.5565   59.6810   10.8380 C.3       3 GLC5        0.0000 
     16 CA         82.3160   60.2160   11.8070 C.3       9 GLL5        0.0000 
     17 CA         78.7970   59.1460    9.8690 C.3       6 GLP5        0.0000 
     18 N          83.8345   56.9840   10.5470 N.am      2 SEC2        0.0000 
     19 N          83.4000   58.1540   11.2830 N.am      8 SEL2        0.0000 
     20 N          84.2690   55.8140    9.8110 N.am      5 SEP2        0.0000 
     21 O          84.1490   58.6460    9.3500 O.2       1 ALC1        0.0000 
     22 O          83.7040   59.2640   10.2960 O.2       7 ALL1        0.0000 
     23 O          84.5940   58.0280    8.4040 O.2       4 ALP1        0.0000 
     24 CA         79.8915   62.5350    8.4370 C.3       3 GLC5        0.0000 
     25 CA         81.6960   62.7390    9.4520 C.3       9 GLL5        0.0000 
     26 CA         78.0870   62.3310    7.4220 C.3       6 GLP5        0.0000 
     27 CA         82.9845   61.1395    6.9405 C.3       3 GLC5        0.0000 
     28 CA         84.1070   61.9050    8.6340 C.3       9 GLL5        0.0000 
     29 CA         81.8620   60.3740    5.2470 C.3       6 GLP5        0.0000 
     30 CA         86.6035   60.2005    8.7655 C.3       3 GLC5        0.0000 
     31 CA         85.4030   61.1880    8.3990 C.3       9 GLL5        0.0000 
     32 CA         87.8040   59.2130    9.1320 C.3       6 GLP5        0.0000 
     33 CA         85.1730   59.7000    7.0765 C.3       3 GLC5        0.0000 
     34 CA         84.9430   58.2120    5.7540 C.3       6 GLP5        0.0000 
     35 CA         80.9700   65.5265    5.9545 C.3       3 GLC5        0.0000 
     36 CA         81.9750   64.7820    7.3280 C.3       9 GLL5        0.0000 
     37 CA         79.9650   66.2710    4.5810 C.3       6 GLP5        0.0000 
     38 CA         76.8662   64.8287   16.4603 C.3       3 GLC5        0.0000 
     39 CA         77.7710   65.5840   17.9510 C.3       6 GLP5        0.0000 
     40 CA         77.9098   65.1972   15.8913 C.3       3 GLC5        0.0000 
     41 CA         78.3910   64.1570   14.0390 C.3       9 GLL5        0.0000 
     42 CA         81.9397   60.8173   15.2220 C.3       3 GLC5        0.0000 
     43 CA         80.0790   59.7270   14.7950 C.3       9 GLL5        0.0000 
     44 CA         83.3210   61.8980   16.2090 C.3       6 GLP5        0.0000 
     45 CA         79.6900   58.1728   13.2600 C.3       3 GLC5        0.0000 
     46 CA         79.4390   57.2320   11.3340 C.3       6 GLP5        0.0000 
     47 CA         78.3460   57.4303   14.4805 C.3       3 GLC5        0.0000 
     48 CA         80.5270   57.2710   15.2030 C.3       9 GLL5        0.0000 
     49 CA         76.5270   56.9750   13.5710 C.3       6 GLP5        0.0000 
     50 CA         82.8640   57.6043   14.9240 C.3       3 GLC5        0.0000 
     51 CA         84.7150   57.9360   15.2010 C.3       6 GLP5        0.0000 
     52 CA         80.6030   55.5618   14.2335 C.3       3 GLC5        0.0000 
     53 CA         81.4990   57.2740   14.0910 C.3       9 GLL5        0.0000 
     54 CA         80.1930   53.8510   13.8200 C.3       6 GLP5        0.0000 
     55 CA         81.7565   56.0927   15.7605 C.3       3 GLC5        0.0000 
     56 CA         82.5000   54.9130   16.8740 C.3       6 GLP5        0.0000 
     57 CA         80.2260   57.2523   12.9905 C.3       3 GLC5        0.0000 
     58 CA         83.0542   58.5315   14.3543 C.3       3 GLC5        0.0000 
     59 CA         81.7490   58.5080   13.3400 C.3       9 GLL5        0.0000 
     60 CA         80.4162   58.1795   12.4207 C.3       3 GLC5        0.0000 
     61 CA         84.0787   60.9650   12.2180 C.3       3 GLC5        0.0000 
     62 CA         85.4720   61.5800   13.2400 C.3       6 GLP5        0.0000 
     63 CA         83.3796   62.9406   10.8561 C.3       3 GLC5        0.0000 
     64 CA         83.0830   61.5800    9.6250 C.3       9 GLL5        0.0000 
     65 CA         83.5110   63.8490   12.6260 C.3       6 GLP5        0.0000 
@<TRIPOS>BOND
@<TRIPOS>SUBSTRUCTURE
     1 ALC1       21 GROUP        1 X    ALC  0     ROOT ALC X 1
     2 SEC2       18 GROUP        1 X    SEC  0     **** SEC X 2
     3 GLC5        1 GROUP        1 X    GLC  0     **** GLC X 6
     4 ALP1       23 GROUP        1 Y    ALP  0     ROOT ALP Y 8
     5 SEP2       20 GROUP        1 Y    SEP  0     **** SEP Y 9
     6 GLP5        3 GROUP        1 Y    GLP  0     **** GLP Y 13
     7 ALL1       22 GROUP        1 Z    ALL  0     ROOT ALL Z 15
     8 SEL2       19 GROUP        1 Z    SEL  0     **** SEL Z 16
     9 GLL5        2 GROUP        1 Z    GLL  0     **** GLL Z 20
@<TRIPOS>SET

