#    Name: 2b52_D42_1_ligand
#    Modification time : Mon Mar 24 20:04:15 2014

@<TRIPOS>MOLECULE
2b52_D42_1_ligand
   55    59     1     0     0
SMALL
NO_CHARGES


@<TRIPOS>ATOM
      1 C1         75.6190   64.7320   14.8060 C.3       1 D42299      0.0000 
      2 C2         76.3040   63.4150   15.1330 C.3       1 D42299      0.0000 
      3 N3         77.7720   63.5740   15.2490 N.4       1 D42299      0.0000 
      4 C4         78.3910   64.1570   14.0390 C.3       1 D42299      0.0000 
      5 C5         77.7060   65.4640   13.6240 C.3       1 D42299      0.0000 
      6 N6         76.2200   65.3620   13.6070 N.3       1 D42299      0.0000 
      7 C15        75.4370   66.5040   13.1310 C.3       1 D42299      0.0000 
      8 N19        78.4260   62.6350   16.2350 N.am      1 D42299      0.0000 
      9 C20        78.6650   61.3390   16.0070 C.2       1 D42299      0.0000 
     10 N21        79.4940   60.9990   15.0190 N.am      1 D42299      0.0000 
     11 C22        80.0790   59.7270   14.7950 C.ar      1 D42299      0.0000 
     12 C23        79.8030   58.5000   15.5770 C.ar      1 D42299      0.0000 
     13 C24        80.5270   57.2710   15.2030 C.ar      1 D42299      0.0000 
     14 C25        81.4990   57.2740   14.0910 C.ar      1 D42299      0.0000 
     15 C26        81.7490   58.5080   13.3400 C.ar      1 D42299      0.0000 
     16 C27        81.0380   59.7460   13.6750 C.ar      1 D42299      0.0000 
     17 C31        82.5440   58.8350   12.1750 C.2       1 D42299      0.0000 
     18 C32        82.3160   60.2160   11.8070 C.2       1 D42299      0.0000 
     19 C33        81.3720   60.8130   12.7420 C.2       1 D42299      0.0000 
     20 N34        83.4000   58.1540   11.2830 N.2       1 D42299      0.0000 
     21 N35        83.7040   59.2640   10.2960 N.pl3     1 D42299      0.0000 
     22 C36        83.0550   60.4840   10.5850 C.2       1 D42299      0.0000 
     23 C37        83.0830   61.5800    9.6250 C.2       1 D42299      0.0000 
     24 S38        81.6960   62.7390    9.4520 S.3       1 D42299      0.0000 
     25 C39        82.5480   63.5920    8.0860 C.2       1 D42299      0.0000 
     26 N40        83.8100   63.0100    7.7980 N.2       1 D42299      0.0000 
     27 C41        84.1070   61.9050    8.6340 C.2       1 D42299      0.0000 
     28 C42        85.4030   61.1880    8.3990 C.3       1 D42299      0.0000 
     29 C46        81.9750   64.7820    7.3280 C.3       1 D42299      0.0000 
     30 O47        78.1330   60.4710   16.7090 O.2       1 D42299      0.0000 
     31 O50        80.8540   61.9310   12.7390 O.2       1 D42299      0.0000 
     32 H          75.7105   65.3993   15.6704 H         1 D42299      0.0000 
     33 H          74.5528   64.5412   14.6392 H         1 D42299      0.0000 
     34 H          76.0630   62.6893   14.3439 H         1 D42299      0.0000 
     35 H          75.8895   63.0287   16.0745 H         1 D42299      0.0000 
     36 H          77.7426   64.6344   15.9871 H         1 D42299      0.0000 
     37 H          78.3265   63.4532   13.1990 H         1 D42299      0.0000 
     38 H          79.4539   64.3669   14.2160 H         1 D42299      0.0000 
     39 H          78.0760   65.7464   12.6253 H         1 D42299      0.0000 
     40 H          78.0215   66.2565   14.3215 H         1 D42299      0.0000 
     41 H          78.6865   63.0983   17.1446 H         1 D42299      0.0000 
     42 H          79.7695   61.7541   14.2927 H         1 D42299      0.0000 
     43 H          79.1592   58.5076   16.3189 H         1 D42299      0.0000 
     44 H          80.3575   56.4194   15.7110 H         1 D42299      0.0000 
     45 H          81.9845   56.4312   13.8539 H         1 D42299      0.0000 
     46 H          84.2941   59.0993    9.5548 H         1 D42299      0.0000 
     47 H          75.3634   67.2193   13.8259 H         1 D42299      0.0000 
     48 H          75.8467   66.9234   12.3209 H         1 D42299      0.0000 
     49 H          74.5051   66.2383   12.8840 H         1 D42299      0.0000 
     50 H          85.9313   61.6081    7.6612 H         1 D42299      0.0000 
     51 H          85.9828   61.1921    9.2138 H         1 D42299      0.0000 
     52 H          85.2577   60.2311    8.1475 H         1 D42299      0.0000 
     53 H          82.5986   65.1037    6.6155 H         1 D42299      0.0000 
     54 H          81.1101   64.5555    6.8801 H         1 D42299      0.0000 
     55 H          81.7971   65.5575    7.9338 H         1 D42299      0.0000 
@<TRIPOS>BOND
     1    2    1 1    
     2    6    1 1    
     3   32    1 1    
     4   33    1 1    
     5    3    2 1    
     6   34    2 1    
     7   35    2 1    
     8    4    3 1    
     9    8    3 1    
    10   36    3 1    
    11    5    4 1    
    12   37    4 1    
    13   38    4 1    
    14    6    5 1    
    15   39    5 1    
    16   40    5 1    
    17    7    6 1    
    18   47    7 1    
    19   48    7 1    
    20   49    7 1    
    21    9    8 am   
    22   41    8 1    
    23   10    9 am   
    24   30    9 2    
    25   11   10 1    
    26   42   10 1    
    27   12   11 ar   
    28   16   11 ar   
    29   13   12 ar   
    30   43   12 1    
    31   14   13 ar   
    32   44   13 1    
    33   15   14 ar   
    34   45   14 1    
    35   16   15 ar   
    36   17   15 1    
    37   19   16 1    
    38   18   17 1    
    39   20   17 2    
    40   19   18 1    
    41   22   18 2    
    42   31   19 2    
    43   21   20 1    
    44   22   21 1    
    45   46   21 1    
    46   23   22 1    
    47   24   23 1    
    48   27   23 2    
    49   25   24 1    
    50   26   25 2    
    51   29   25 1    
    52   27   26 1    
    53   28   27 1    
    54   50   28 1    
    55   51   28 1    
    56   52   28 1    
    57   53   29 1    
    58   54   29 1    
    59   55   29 1    
@<TRIPOS>SUBSTRUCTURE
     1 D42299      1 GROUP   
@<TRIPOS>SET

