#    Name: 3i5z_Z48_1_INTS_M
#    Modification time : Tue Mar 25 15:55:00 2014

@<TRIPOS>MOLECULE
3i5z_Z48_1_INTS_M
   86     0     9     0     0
SMALL
NO_CHARGES


@<TRIPOS>ATOM
      1 CA          8.0195    1.3875   48.2835 C.3       3 GLC5        0.0000 
      2 CA          7.6000   -0.5660   47.8710 C.3       9 GLL5        0.0000 
      3 CA          8.4390    3.3410   48.6960 C.3       6 GLP5        0.0000 
      4 CA          7.4475    0.1180   49.8480 C.3       3 GLC5        0.0000 
      5 CA          7.2950    0.8020   51.8250 C.3       6 GLP5        0.0000 
      6 CA          3.3580   -0.0355   48.1175 C.3       3 GLC5        0.0000 
      7 CA          5.2170   -0.4830   47.1830 C.3       9 GLL5        0.0000 
      8 CA          1.4990    0.4120   49.0520 C.3       6 GLP5        0.0000 
      9 CA          4.2780    1.3560   46.3360 C.3       3 GLC5        0.0000 
     10 CA          3.3390    3.1950   45.4890 C.3       6 GLP5        0.0000 
     11 N           2.9955    0.1140   46.5335 N.am      2 SEC2        0.0000 
     12 N           4.2290   -0.7780   46.3510 N.am      8 SEL2        0.0000 
     13 N           1.7620    1.0060   46.7160 N.am      5 SEP2        0.0000 
     14 CA          3.8285   -3.3435   45.9825 C.3       3 GLC5        0.0000 
     15 CA          4.4240   -1.5120   45.2620 C.3       9 GLL5        0.0000 
     16 CA          3.2330   -5.1750   46.7030 C.3       6 GLP5        0.0000 
     17 CA          3.4860    0.3150   44.9805 C.3       3 GLC5        0.0000 
     18 CA          2.5480    2.1420   44.6990 C.3       6 GLP5        0.0000 
     19 CA          5.4725   -0.6260   43.8555 C.3       3 GLC5        0.0000 
     20 CA          6.5210    0.2600   42.4490 C.3       6 GLP5        0.0000 
     21 O           1.9810   -1.2155   44.6610 O.2       1 ALC1        0.0000 
     22 O           3.3250   -1.7810   44.4450 O.2       7 ALL1        0.0000 
     23 O           0.6370   -0.6500   44.8770 O.2       4 ALP1        0.0000 
     24 CA          3.2465   -3.9000   45.0130 C.3       3 GLC5        0.0000 
     25 CA          3.2600   -2.6250   43.3230 C.3       9 GLL5        0.0000 
     26 CA          7.3820   -1.1850   43.2190 C.3       3 GLC5        0.0000 
     27 CA          8.2430   -2.6300   43.9890 C.3       9 GLL5        0.0000 
     28 N          13.2190   -2.9055   47.1170 N.am      2 SEC2        0.0000 
     29 N          12.2200   -2.6840   46.1480 N.am      8 SEL2        0.0000 
     30 N          14.2180   -3.1270   48.0860 N.am      5 SEP2        0.0000 
     31 CA         14.0620   -2.5010   44.0450 C.3       3 GLC5        0.0000 
     32 CA         13.5080   -4.5580   44.4270 C.3       9 GLL5        0.0000 
     33 CA         14.6160   -0.4440   43.6630 C.3       6 GLP5        0.0000 
     34 CA         14.0405   -7.0710   43.3315 C.3       3 GLC5        0.0000 
     35 CA         13.8610   -4.9560   42.9810 C.3       9 GLL5        0.0000 
     36 CA         14.2200   -9.1860   43.6820 C.3       6 GLP5        0.0000 
     37 O          14.5300   -3.1690   42.4270 O.2       1 ALC1        0.0000 
     38 O          13.4680   -3.9030   42.0760 O.2       7 ALL1        0.0000 
     39 O          15.5920   -2.4350   42.7780 O.2       4 ALP1        0.0000 
     40 CA         11.6145   -9.0675   47.2655 C.3       3 GLC5        0.0000 
     41 CA         13.1140   -7.5170   46.7740 C.3       9 GLL5        0.0000 
     42 CA         10.1150  -10.6180   47.7570 C.3       6 GLP5        0.0000 
     43 CA          5.3144   -1.4783   48.6179 C.3       3 GLC5        0.0000 
     44 CA          4.4960   -2.3400   49.9480 C.3       6 GLP5        0.0000 
     45 CA          6.4889    0.4713   45.9254 C.3       3 GLC5        0.0000 
     46 CA          6.8450    1.5590   44.5630 C.3       6 GLP5        0.0000 
     47 CA          2.5575   -1.7340   41.5048 C.3       3 GLC5        0.0000 
     48 CA          1.3340   -0.7910   40.1490 C.3       6 GLP5        0.0000 
     49 CA          5.1510   -1.2085   42.6547 C.3       3 GLC5        0.0000 
     50 CA          5.0202   -1.9508   40.2495 C.3       3 GLC5        0.0000 
     51 CA          4.3020   -2.7290   42.3980 C.3       9 GLL5        0.0000 
     52 CA          5.7940   -0.7510   38.6500 C.3       6 GLP5        0.0000 
     53 CA          2.4710   -2.3673   40.6813 C.3       3 GLC5        0.0000 
     54 CA          4.1910   -3.5720   41.3000 C.3       9 GLL5        0.0000 
     55 CA          2.4245   -5.3432   43.7170 C.3       3 GLC5        0.0000 
     56 CA          1.9810   -4.2200   42.0400 C.3       9 GLL5        0.0000 
     57 CA          2.8080   -6.8900   44.8490 C.3       6 GLP5        0.0000 
     58 CA          1.6875   -2.2938   41.3670 C.3       3 GLC5        0.0000 
     59 CA          7.1765   -3.6700   46.6940 C.3       3 GLC5        0.0000 
     60 CA          6.6930   -1.7050   45.7420 C.3       9 GLL5        0.0000 
     61 CA          7.0020   -5.3700   47.8760 C.3       6 GLP5        0.0000 
     62 CA          7.0980   -0.2055   45.0375 C.3       3 GLC5        0.0000 
     63 CA          8.0090   -2.2350   45.2820 C.3       9 GLL5        0.0000 
     64 CA          9.4492   -4.4322   46.3110 C.3       3 GLC5        0.0000 
     65 CA         10.1390   -2.9050   45.0850 C.3       9 GLL5        0.0000 
     66 CA          9.2130   -6.2120   47.0900 C.3       6 GLP5        0.0000 
     67 CA         13.7640   -7.6360   44.6635 C.3       3 GLC5        0.0000 
     68 CA         13.8150   -5.6820   45.3890 C.3       9 GLL5        0.0000 
     69 CA         11.0852   -6.6077   46.7138 C.3       3 GLC5        0.0000 
     70 CA         12.8010   -6.4900   45.9010 C.3       9 GLL5        0.0000 
     71 CA         13.2873   -5.6822   47.5092 C.3       3 GLC5        0.0000 
     72 CA         13.6170   -4.3610   48.6810 C.3       6 GLP5        0.0000 
     73 CA         13.9965   -8.4067   45.3208 C.3       3 GLC5        0.0000 
     74 CA         13.7865   -9.3068   47.6983 C.3       3 GLC5        0.0000 
     75 CA         13.8000  -10.9860   48.4370 C.3       6 GLP5        0.0000 
     76 CA         14.2763   -5.8487   47.7862 C.3       3 GLC5        0.0000 
     77 CA         14.4320   -7.7380   47.1450 C.3       9 GLL5        0.0000 
     78 CA         14.7535   -7.8027   44.9405 C.3       3 GLC5        0.0000 
     79 CA         15.4390   -6.9350   46.6380 C.3       9 GLL5        0.0000 
     80 CA         14.9500   -7.2796   48.7239 C.3       3 GLC5        0.0000 
     81 CA         15.2940   -7.2780   50.6490 C.3       6 GLP5        0.0000 
     82 CA         14.0076   -4.9365   47.0075 C.3       3 GLC5        0.0000 
     83 CA         15.1350   -5.9040   45.7600 C.3       9 GLL5        0.0000 
     84 CA          9.6714   -0.9138   44.2069 C.3       3 GLC5        0.0000 
     85 CA          9.2320   -2.4000   45.9790 C.3       9 GLL5        0.0000 
     86 CA         10.4370    0.7150   43.3300 C.3       6 GLP5        0.0000 
@<TRIPOS>BOND
@<TRIPOS>SUBSTRUCTURE
     1 ALC1       21 GROUP        1 X    ALC  0     ROOT ALC X 1
     2 SEC2       11 GROUP        1 X    SEC  0     **** SEC X 2
     3 GLC5        1 GROUP        1 X    GLC  0     **** GLC X 6
     4 ALP1       23 GROUP        1 Y    ALP  0     ROOT ALP Y 8
     5 SEP2       13 GROUP        1 Y    SEP  0     **** SEP Y 9
     6 GLP5        3 GROUP        1 Y    GLP  0     **** GLP Y 13
     7 ALL1       22 GROUP        1 Z    ALL  0     ROOT ALL Z 15
     8 SEL2       12 GROUP        1 Z    SEL  0     **** SEL Z 16
     9 GLL5        2 GROUP        1 Z    GLL  0     **** GLL Z 20
@<TRIPOS>SET

