#    Name: 3i5z_Z48_1_ligand
#    Modification time : Tue Mar 25 15:55:00 2014

@<TRIPOS>MOLECULE
3i5z_Z48_1_ligand
   54    57     1     0     0
SMALL
NO_CHARGES


@<TRIPOS>ATOM
      1 C1          7.6000   -0.5660   47.8710 C.3       1 Z48401      0.0000 
      2 C2          6.4970   -0.9340   46.9140 C.ar      1 Z48401      0.0000 
      3 C3          5.2170   -0.4830   47.1830 C.ar      1 Z48401      0.0000 
      4 N4          4.2290   -0.7780   46.3510 N.ar      1 Z48401      0.0000 
      5 C5          4.4240   -1.5120   45.2620 C.ar      1 Z48401      0.0000 
      6 N6          3.3250   -1.7810   44.4450 N.pl3     1 Z48401      0.0000 
      7 C7          3.2600   -2.6250   43.3230 C.ar      1 Z48401      0.0000 
      8 C8          4.3020   -2.7290   42.3980 C.ar      1 Z48401      0.0000 
      9 C9          4.1910   -3.5720   41.3000 C.ar      1 Z48401      0.0000 
     10 C10         3.0250   -4.3150   41.1270 C.ar      1 Z48401      0.0000 
     11 C11         1.9810   -4.2200   42.0400 C.ar      1 Z48401      0.0000 
     12 C12         2.1010   -3.3730   43.1300 C.ar      1 Z48401      0.0000 
     13 N13         5.6330   -1.9500   44.9650 N.ar      1 Z48401      0.0000 
     14 C14         6.6930   -1.7050   45.7420 C.ar      1 Z48401      0.0000 
     15 C15         8.0090   -2.2350   45.2820 C.2       1 Z48401      0.0000 
     16 C16         8.2430   -2.6300   43.9890 C.2       1 Z48401      0.0000 
     17 N17         9.5180   -3.0280   43.8690 N.pl3     1 Z48401      0.0000 
     18 C19        10.1390   -2.9050   45.0850 C.2       1 Z48401      0.0000 
     19 C20         9.2320   -2.4000   45.9790 C.2       1 Z48401      0.0000 
     20 C21        11.5590   -3.2390   45.2780 C.2       1 Z48401      0.0000 
     21 O22        12.2200   -2.6840   46.1480 O.2       1 Z48401      0.0000 
     22 N23        12.0930   -4.1480   44.4260 N.am      1 Z48401      0.0000 
     23 C24        13.5080   -4.5580   44.4270 C.3       1 Z48401      0.0000 
     24 C26        13.8610   -4.9560   42.9810 C.3       1 Z48401      0.0000 
     25 O27        13.4680   -3.9030   42.0760 O.3       1 Z48401      0.0000 
     26 C28        13.8150   -5.6820   45.3890 C.ar      1 Z48401      0.0000 
     27 C29        12.8010   -6.4900   45.9010 C.ar      1 Z48401      0.0000 
     28 C30        13.1140   -7.5170   46.7740 C.ar      1 Z48401      0.0000 
     29 C31        14.4320   -7.7380   47.1450 C.ar      1 Z48401      0.0000 
     30 C32        15.4390   -6.9350   46.6380 C.ar      1 Z48401      0.0000 
     31 C33        15.1350   -5.9040   45.7600 C.ar      1 Z48401      0.0000 
     32 H           5.0588    0.0822   48.0398 H         1 Z48401      0.0000 
     33 H           2.4014   -1.2760   44.7063 H         1 Z48401      0.0000 
     34 H           5.1601   -2.1730   42.5352 H         1 Z48401      0.0000 
     35 H           4.9555   -3.6481   40.6246 H         1 Z48401      0.0000 
     36 H           2.9368   -4.9425   40.3115 H         1 Z48401      0.0000 
     37 H           1.1280   -4.7743   41.9058 H         1 Z48401      0.0000 
     38 H           1.3253   -3.2933   43.8077 H         1 Z48401      0.0000 
     39 H           7.5778   -2.6167   43.2842 H         1 Z48401      0.0000 
     40 H           9.9454   -3.3514   43.0646 H         1 Z48401      0.0000 
     41 H           9.3672   -2.1932   46.8857 H         1 Z48401      0.0000 
     42 H          11.4955   -4.6189   43.6978 H         1 Z48401      0.0000 
     43 H          14.1314   -3.6964   44.6716 H         1 Z48401      0.0000 
     44 H          13.3432   -5.8924   42.7585 H         1 Z48401      0.0000 
     45 H          14.9375   -5.1407   42.9408 H         1 Z48401      0.0000 
     46 H          11.8250   -6.3197   45.6280 H         1 Z48401      0.0000 
     47 H          12.3671   -8.1198   47.1502 H         1 Z48401      0.0000 
     48 H          14.6605   -8.5010   47.7987 H         1 Z48401      0.0000 
     49 H          16.4190   -7.1020   46.9125 H         1 Z48401      0.0000 
     50 H          15.8826   -5.3074   45.3859 H         1 Z48401      0.0000 
     51 H           8.4811   -0.9422   47.5846 H         1 Z48401      0.0000 
     52 H           7.7139    0.4249   47.9431 H         1 Z48401      0.0000 
     53 H           7.4210   -0.9084   48.7934 H         1 Z48401      0.0000 
     54 H          14.1966   -3.2211   42.1404 H         1 Z48401      0.0000 
@<TRIPOS>BOND
     1    2    1 1    
     2   51    1 1    
     3   52    1 1    
     4   53    1 1    
     5    3    2 ar   
     6   14    2 ar   
     7    4    3 ar   
     8   32    3 1    
     9    5    4 ar   
    10    6    5 1    
    11   13    5 ar   
    12    7    6 1    
    13   33    6 1    
    14    8    7 ar   
    15   12    7 ar   
    16    9    8 ar   
    17   34    8 1    
    18   10    9 ar   
    19   35    9 1    
    20   11   10 ar   
    21   36   10 1    
    22   12   11 ar   
    23   37   11 1    
    24   38   12 1    
    25   14   13 ar   
    26   15   14 1    
    27   16   15 2    
    28   19   15 1    
    29   17   16 1    
    30   39   16 1    
    31   18   17 1    
    32   40   17 1    
    33   19   18 2    
    34   20   18 1    
    35   41   19 1    
    36   21   20 2    
    37   22   20 am   
    38   23   22 1    
    39   42   22 1    
    40   24   23 1    
    41   26   23 1    
    42   43   23 1    
    43   25   24 1    
    44   44   24 1    
    45   45   24 1    
    46   54   25 1    
    47   27   26 ar   
    48   31   26 ar   
    49   28   27 ar   
    50   46   27 1    
    51   29   28 ar   
    52   47   28 1    
    53   30   29 ar   
    54   48   29 1    
    55   31   30 ar   
    56   49   30 1    
    57   50   31 1    
@<TRIPOS>SUBSTRUCTURE
     1 Z48401      1 GROUP   
@<TRIPOS>SET

