#    Name: 2nv4_SAM_1_INTS_M
#    Modification time : Tue Mar 25 21:36:30 2014

@<TRIPOS>MOLECULE
2nv4_SAM_1_INTS_M
   75     0    12     0     0
SMALL
NO_CHARGES


@<TRIPOS>ATOM
      1 O          18.5915   39.0925   28.1095 O.2       1 ALC1        0.0000 
      2 O          18.0820   38.8020   26.7470 O.2       9 ALL1        0.0000 
      3 O          19.1010   39.3830   29.4720 O.2       5 ALP1        0.0000 
      4 O          17.0105   37.7800   26.4015 O.2       1 ALC1        0.0000 
      5 O          15.9390   36.7580   26.0560 O.2       5 ALP1        0.0000 
      6 CA         16.0270   37.9790   24.8100 C.3       4 GLC5        0.0000 
      7 CA         17.4240   39.3800   25.5670 C.3      12 GLL5        0.0000 
      8 CA         14.6300   36.5780   24.0530 C.3       8 GLP5        0.0000 
      9 NZ         17.7980   38.8380   21.6710 N.4       3 LYC4        0.0000 
     10 NZ         17.3790   38.9500   23.2760 N.4      11 LYL4        0.0000 
     11 NZ         18.2170   38.7260   20.0660 N.4       7 LYP4        0.0000 
     12 N          16.0765   38.4540   23.4370 N.am      2 SEC2        0.0000 
     13 N          17.3790   38.9500   23.2760 N.am     10 SEL2        0.0000 
     14 N          14.7740   37.9580   23.5980 N.am      6 SEP2        0.0000 
     15 NZ         18.8760   36.5820   25.1050 N.4       3 LYC4        0.0000 
     16 NZ         18.5860   37.6880   24.4450 N.4      11 LYL4        0.0000 
     17 NZ         20.4290   35.6400   25.3950 N.4       7 LYP4        0.0000 
     18 N          19.7320   37.2675   24.7480 N.am      2 SEC2        0.0000 
     19 N          18.5860   37.6880   24.4450 N.am     10 SEL2        0.0000 
     20 N          20.8780   36.8470   25.0510 N.am      6 SEP2        0.0000 
     21 N          18.8760   36.5820   25.1050 N.am      2 SEC2        0.0000 
     22 N          19.1660   35.4760   25.7650 N.am      6 SEP2        0.0000 
     23 CA         16.7880   42.2435   23.9880 C.3       4 GLC5        0.0000 
     24 CA         17.8500   40.8080   25.3560 C.3      12 GLL5        0.0000 
     25 CA         15.7260   43.6790   22.6200 C.3       8 GLP5        0.0000 
     26 CA         16.8150   43.5100   24.3890 C.3       4 GLC5        0.0000 
     27 CA         17.9040   43.3410   26.1580 C.3      12 GLL5        0.0000 
     28 CA         15.8790   43.5045   28.9885 C.3       4 GLC5        0.0000 
     29 CA         17.2020   44.2680   27.5260 C.3      12 GLL5        0.0000 
     30 CA         14.5560   42.7410   30.4510 C.3       8 GLP5        0.0000 
     31 O          17.6790   46.1885   30.2230 O.2       1 ALC1        0.0000 
     32 O          17.9120   47.2590   29.1510 O.2       9 ALL1        0.0000 
     33 O          17.4460   45.1180   31.2950 O.2       5 ALP1        0.0000 
     34 CA         15.7760   49.7775   27.6800 C.3       4 GLC5        0.0000 
     35 CA         16.0240   47.6370   27.5670 C.3      12 GLL5        0.0000 
     36 CA         15.5280   51.9180   27.7930 C.3       8 GLP5        0.0000 
     37 CA         17.2590   46.7905   24.2385 C.3       4 GLC5        0.0000 
     38 CA         16.1100   47.2470   26.0560 C.3      12 GLL5        0.0000 
     39 CA         18.4080   46.3340   22.4210 C.3       8 GLP5        0.0000 
     40 N          11.4920   46.4435   26.3365 N.am      2 SEC2        0.0000 
     41 N          12.6720   46.2940   25.2540 N.am     10 SEL2        0.0000 
     42 N          10.3120   46.5930   27.4190 N.am      6 SEP2        0.0000 
     43 CA         12.2085   46.5910   21.8905 C.3       4 GLC5        0.0000 
     44 CA         12.1120   47.6620   23.1550 C.3      12 GLL5        0.0000 
     45 CA         12.3050   45.5200   20.6260 C.3       8 GLP5        0.0000 
     46 O          10.2410   48.2145   22.0020 O.2       1 ALC1        0.0000 
     47 O          10.8060   47.2610   22.9580 O.2       9 ALL1        0.0000 
     48 O           9.6760   49.1680   21.0460 O.2       5 ALP1        0.0000 
     49 O           9.8000   46.7600   23.7310 O.2       1 ALC1        0.0000 
     50 O           8.7940   46.2590   24.5040 O.2       5 ALP1        0.0000 
     51 N          12.3425   49.2400   20.9785 N.am      2 SEC2        0.0000 
     52 N          12.6850   48.5540   22.3060 N.am     10 SEL2        0.0000 
     53 N          12.0000   49.9260   19.6510 N.am      6 SEP2        0.0000 
     54 CA         14.7920   50.4670   23.8360 C.3       4 GLC5        0.0000 
     55 CA         13.9480   48.9680   22.4730 C.3      12 GLL5        0.0000 
     56 CA         15.6360   51.9660   25.1990 C.3       8 GLP5        0.0000 
     57 CA         13.8625   47.1235   21.7350 C.3       4 GLC5        0.0000 
     58 CA         13.7770   45.2790   20.9970 C.3       8 GLP5        0.0000 
     59 CA         13.3065   50.4505   21.7105 C.3       4 GLC5        0.0000 
     60 CA         12.6650   51.9330   20.9480 C.3       8 GLP5        0.0000 
     61 CA         14.9655   49.1090   20.6675 C.3       4 GLC5        0.0000 
     62 CA         15.9830   49.2500   18.8620 C.3       8 GLP5        0.0000 
     63 CA         12.9400   49.7370   24.0865 C.3       4 GLC5        0.0000 
     64 CA         11.9320   50.5060   25.7000 C.3       8 GLP5        0.0000 
     65 CA         19.6325   44.5530   24.8727 C.3       4 GLC5        0.0000 
     66 CA         20.4680   45.8120   23.4200 C.3       8 GLP5        0.0000 
     67 CA         15.3818   47.5198   29.3655 C.3       4 GLC5        0.0000 
     68 CA         16.9190   46.6280   28.3370 C.3      12 GLL5        0.0000 
     69 CA         14.2920   47.9070   30.7790 C.3       8 GLP5        0.0000 
     70 CA         14.3065   48.2980   27.2707 C.3       4 GLC5        0.0000 
     71 CA         12.5460   49.1540   27.7300 C.3       8 GLP5        0.0000 
     72 CA         13.6650   46.3390   22.6545 C.3       4 GLC5        0.0000 
     73 CA         14.2190   47.6390   24.3790 C.3      12 GLL5        0.0000 
     74 CA         12.6456   49.0154   24.8698 C.3       4 GLC5        0.0000 
     75 CA         12.8870   47.1590   24.2450 C.3      12 GLL5        0.0000 
@<TRIPOS>BOND
@<TRIPOS>SUBSTRUCTURE
     1 ALC1        1 GROUP        1 X    ALC  0     ROOT ALC X 1
     2 SEC2       12 GROUP        1 X    SEC  0     **** SEC X 2
     3 LYC4        9 GROUP        1 X    LYC  0     **** LYC X 4
     4 GLC5        6 GROUP        1 X    GLC  0     **** GLC X 6
     5 ALP1        3 GROUP        1 Y    ALP  0     ROOT ALP Y 8
     6 SEP2       14 GROUP        1 Y    SEP  0     **** SEP Y 9
     7 LYP4       11 GROUP        1 Y    LYP  0     **** LYP Y 11
     8 GLP5        8 GROUP        1 Y    GLP  0     **** GLP Y 13
     9 ALL1        2 GROUP        1 Z    ALL  0     ROOT ALL Z 15
    10 SEL2       13 GROUP        1 Z    SEL  0     **** SEL Z 16
    11 LYL4       10 GROUP        1 Z    LYL  0     **** LYL Z 18
    12 GLL5        7 GROUP        1 Z    GLL  0     **** GLL Z 20
@<TRIPOS>SET

