#    Name: 2nv4_SAM_1_ligand
#    Modification time : Tue Mar 25 21:36:30 2014

@<TRIPOS>MOLECULE
2nv4_SAM_1_ligand
   50    52     1     0     0
SMALL
NO_CHARGES


@<TRIPOS>ATOM
      1 N          18.0820   38.8020   26.7470 N.4       1 SAM201      0.0000 
      2 CA         17.4240   39.3800   25.5670 C.3       1 SAM201      0.0000 
      3 C          17.8270   38.6220   24.3590 C.2       1 SAM201      0.0000 
      4 O          17.3790   38.9500   23.2760 O.co2     1 SAM201      0.0000 
      5 OXT        18.5860   37.6880   24.4450 O.co2     1 SAM201      0.0000 
      6 CB         17.8500   40.8080   25.3560 C.3       1 SAM201      0.0000 
      7 CG         17.4050   41.6540   26.5130 C.3       1 SAM201      0.0000 
      8 SD         17.9040   43.3410   26.1580 S.3       1 SAM201      0.0000 
      9 CE         19.6900   43.2470   26.4930 C.3       1 SAM201      0.0000 
     10 C5'        17.2020   44.2680   27.5260 C.3       1 SAM201      0.0000 
     11 C4'        17.5030   45.7160   27.2520 C.3       1 SAM201      0.0000 
     12 O4'        16.9520   46.0770   25.9530 O.3       1 SAM201      0.0000 
     13 C3'        16.9190   46.6280   28.3370 C.3       1 SAM201      0.0000 
     14 O3'        17.9120   47.2590   29.1510 O.3       1 SAM201      0.0000 
     15 C2'        16.0240   47.6370   27.5670 C.3       1 SAM201      0.0000 
     16 O2'        16.4870   48.9790   27.7720 O.3       1 SAM201      0.0000 
     17 C1'        16.1100   47.2470   26.0560 C.3       1 SAM201      0.0000 
     18 N9         14.7330   47.0240   25.5020 N.pl3     1 SAM201      0.0000 
     19 C8         13.7410   46.2050   25.9950 C.2       1 SAM201      0.0000 
     20 N7         12.6720   46.2940   25.2540 N.2       1 SAM201      0.0000 
     21 C5         12.8870   47.1590   24.2450 C.ar      1 SAM201      0.0000 
     22 C6         12.1120   47.6620   23.1550 C.ar      1 SAM201      0.0000 
     23 N6         10.8060   47.2610   22.9580 N.pl3     1 SAM201      0.0000 
     24 N1         12.6850   48.5540   22.3060 N.ar      1 SAM201      0.0000 
     25 C2         13.9480   48.9680   22.4730 C.ar      1 SAM201      0.0000 
     26 N3         14.6960   48.5300   23.4800 N.ar      1 SAM201      0.0000 
     27 C4         14.2190   47.6390   24.3790 C.ar      1 SAM201      0.0000 
     28 H          16.3596   39.3445   25.6688 H         1 SAM201      0.0000 
     29 H          17.4074   41.1867   24.4336 H         1 SAM201      0.0000 
     30 H          18.9362   40.8535   25.2652 H         1 SAM201      0.0000 
     31 H          17.9090   41.4514   27.4169 H         1 SAM201      0.0000 
     32 H          16.3584   41.7401   26.6094 H         1 SAM201      0.0000 
     33 H          17.7099   43.8718   28.3558 H         1 SAM201      0.0000 
     34 H          16.1823   44.0218   27.4703 H         1 SAM201      0.0000 
     35 H          18.5790   45.8516   27.2434 H         1 SAM201      0.0000 
     36 H          16.2340   46.0105   28.9258 H         1 SAM201      0.0000 
     37 H          15.0167   47.4892   27.8825 H         1 SAM201      0.0000 
     38 H          16.5692   48.0914   25.5518 H         1 SAM201      0.0000 
     39 H          13.8628   45.6488   26.7945 H         1 SAM201      0.0000 
     40 H          10.4307   46.6336   23.6402 H         1 SAM201      0.0000 
     41 H          10.3487   47.6328   22.1502 H         1 SAM201      0.0000 
     42 H          14.3550   49.6599   21.7844 H         1 SAM201      0.0000 
     43 H          18.9669   38.3967   26.5175 H         1 SAM201      0.0000 
     44 H          18.2490   39.4898   27.4533 H         1 SAM201      0.0000 
     45 H          17.5290   38.0812   27.1648 H         1 SAM201      0.0000 
     46 H          20.1121   42.4619   26.0397 H         1 SAM201      0.0000 
     47 H          20.1712   44.0634   26.1737 H         1 SAM201      0.0000 
     48 H          19.8803   43.1582   27.4707 H         1 SAM201      0.0000 
     49 H          17.9649   46.6973   29.9766 H         1 SAM201      0.0000 
     50 H          17.2111   48.9010   28.4572 H         1 SAM201      0.0000 
@<TRIPOS>BOND
     1    2    1 1    
     2   43    1 1    
     3   44    1 1    
     4   45    1 1    
     5    3    2 1    
     6    6    2 1    
     7   28    2 1    
     8    4    3 ar   
     9    5    3 ar   
    10    7    6 1    
    11   29    6 1    
    12   30    6 1    
    13    8    7 1    
    14   31    7 1    
    15   32    7 1    
    16    9    8 1    
    17   10    8 1    
    18   46    9 1    
    19   47    9 1    
    20   48    9 1    
    21   11   10 1    
    22   33   10 1    
    23   34   10 1    
    24   12   11 1    
    25   13   11 1    
    26   35   11 1    
    27   17   12 1    
    28   14   13 1    
    29   15   13 1    
    30   36   13 1    
    31   49   14 1    
    32   16   15 1    
    33   17   15 1    
    34   37   15 1    
    35   50   16 1    
    36   18   17 1    
    37   38   17 1    
    38   19   18 1    
    39   27   18 1    
    40   20   19 2    
    41   39   19 1    
    42   21   20 1    
    43   22   21 ar   
    44   27   21 ar   
    45   23   22 1    
    46   24   22 ar   
    47   40   23 1    
    48   41   23 1    
    49   25   24 ar   
    50   26   25 ar   
    51   42   25 1    
    52   27   26 ar   
@<TRIPOS>SUBSTRUCTURE
     1 SAM201      1 GROUP   
@<TRIPOS>SET

