#    Name: 1ckn_GTP_1_INTS_M
#    Modification time : Mon Mar 24 20:46:01 2014

@<TRIPOS>MOLECULE
1ckn_GTP_1_INTS_M
   46     0    12     0     0
SMALL
NO_CHARGES


@<TRIPOS>ATOM
      1 NZ         34.3870   48.4400   28.9630 N.4       3 LYC4        0.0000 
      2 NZ         34.2220   46.9200   28.0820 N.4      11 LYL4        0.0000 
      3 NZ         34.5520   49.9600   29.8440 N.4       7 LYP4        0.0000 
      4 NZ         31.0335   48.2825   29.7795 N.4       3 LYC4        0.0000 
      5 NZ         32.3300   48.1400   29.2560 N.4      11 LYL4        0.0000 
      6 NZ         29.7370   48.4250   30.3030 N.4       7 LYP4        0.0000 
      7 NZ         33.4410   49.0500   29.5500 N.4       3 LYC4        0.0000 
      8 N          31.0335   48.2825   29.7795 N.am      2 SEC2        0.0000 
      9 N          32.3300   48.1400   29.2560 N.am     10 SEL2        0.0000 
     10 N          29.7370   48.4250   30.3030 N.am      6 SEP2        0.0000 
     11 N          33.4410   49.0500   29.5500 N.am      2 SEC2        0.0000 
     12 N          34.5520   49.9600   29.8440 N.am      6 SEP2        0.0000 
     13 CA         31.7005   49.7910   28.2600 C.3       4 GLC5        0.0000 
     14 CA         31.1310   48.6270   26.5980 C.3      12 GLL5        0.0000 
     15 CA         32.2700   50.9550   29.9220 C.3       8 GLP5        0.0000 
     16 CA         31.2105   49.9010   24.5370 C.3       4 GLC5        0.0000 
     17 CA         30.1500   48.0080   24.3200 C.3      12 GLL5        0.0000 
     18 CA         32.2710   51.7940   24.7540 C.3       8 GLP5        0.0000 
     19 N          31.3780   48.1010   22.2390 N.am      2 SEC2        0.0000 
     20 N          31.2480   47.3690   23.6650 N.am     10 SEL2        0.0000 
     21 N          31.5080   48.8330   20.8130 N.am      6 SEP2        0.0000 
     22 CA         27.1605   48.1185   22.6665 C.3       4 GLC5        0.0000 
     23 CA         28.8380   47.4600   23.8970 C.3      12 GLL5        0.0000 
     24 CA         25.4830   48.7770   21.4360 C.3       8 GLP5        0.0000 
     25 O          27.7020   45.6600   23.1715 O.2       1 ALC1        0.0000 
     26 O          28.9960   46.0940   23.6520 O.2       9 ALL1        0.0000 
     27 O          26.4080   45.2260   22.6910 O.2       5 ALP1        0.0000 
     28 CA         27.2415   48.3460   26.9560 C.3       4 GLC5        0.0000 
     29 CA         27.9390   47.6620   25.1350 C.3      12 GLL5        0.0000 
     30 CA         26.5440   49.0300   28.7770 C.3       8 GLP5        0.0000 
     31 N          23.7670   50.6775   24.6440 N.am      2 SEC2        0.0000 
     32 N          24.9270   49.7340   24.9780 N.am     10 SEL2        0.0000 
     33 N          22.6070   51.6210   24.3100 N.am      6 SEP2        0.0000 
     34 O          30.7695   51.9145   21.6835 O.2       1 ALC1        0.0000 
     35 O          29.1820   51.9580   22.3550 O.2       9 ALL1        0.0000 
     36 O          32.3570   51.8710   21.0120 O.2       5 ALP1        0.0000 
     37 CA         31.0933   50.0662   26.1508 C.3       4 GLC5        0.0000 
     38 CA         30.1340   47.8080   25.8110 C.3      12 GLL5        0.0000 
     39 CA         31.5540   51.9150   26.0970 C.3       8 GLP5        0.0000 
     40 CA         29.7562   48.4753   27.6958 C.3       4 GLC5        0.0000 
     41 CA         28.8800   48.7330   29.1870 C.3       8 GLP5        0.0000 
     42 CA         29.4455   47.3975   22.1508 C.3       4 GLC5        0.0000 
     43 CA         29.3970   47.0610   20.1930 C.3       8 GLP5        0.0000 
     44 CA         26.4038   51.2488   25.7508 C.3       4 GLC5        0.0000 
     45 CA         27.0780   49.8360   24.2170 C.3      12 GLL5        0.0000 
     46 CA         26.3280   52.3390   27.2600 C.3       8 GLP5        0.0000 
@<TRIPOS>BOND
@<TRIPOS>SUBSTRUCTURE
     1 ALC1       25 GROUP        1 X    ALC  0     ROOT ALC X 1
     2 SEC2        8 GROUP        1 X    SEC  0     **** SEC X 2
     3 LYC4        1 GROUP        1 X    LYC  0     **** LYC X 4
     4 GLC5       13 GROUP        1 X    GLC  0     **** GLC X 6
     5 ALP1       27 GROUP        1 Y    ALP  0     ROOT ALP Y 8
     6 SEP2       10 GROUP        1 Y    SEP  0     **** SEP Y 9
     7 LYP4        3 GROUP        1 Y    LYP  0     **** LYP Y 11
     8 GLP5       15 GROUP        1 Y    GLP  0     **** GLP Y 13
     9 ALL1       26 GROUP        1 Z    ALL  0     ROOT ALL Z 15
    10 SEL2        9 GROUP        1 Z    SEL  0     **** SEL Z 16
    11 LYL4        2 GROUP        1 Z    LYL  0     **** LYL Z 18
    12 GLL5       14 GROUP        1 Z    GLL  0     **** GLL Z 20
@<TRIPOS>SET

