#    Name: 1ckn_GTP_1_ligand
#    Modification time : Mon Mar 24 20:46:01 2014

@<TRIPOS>MOLECULE
1ckn_GTP_1_ligand
   44    46     1     0     0
SMALL
NO_CHARGES


@<TRIPOS>ATOM
      1 PG         33.3920   43.5570   29.9630 P.3       1 GTP899      0.0000 
      2 O1G        33.2240   44.9210   30.5740 O.co2     1 GTP899      0.0000 
      3 O2G        34.7660   42.9930   30.1240 O.co2     1 GTP899      0.0000 
      4 O3G        32.2940   42.6300   30.2440 O.co2     1 GTP899      0.0000 
      5 O3B        33.2760   43.8370   28.3860 O.3       1 GTP899      0.0000 
      6 PB         32.1130   44.4970   27.4290 P.3       1 GTP899      0.0000 
      7 O1B        32.6120   44.6060   26.0820 O.co2     1 GTP899      0.0000 
      8 O2B        30.8090   43.6980   27.6430 O.co2     1 GTP899      0.0000 
      9 O3A        31.8600   45.9850   28.0890 O.3       1 GTP899      0.0000 
     10 PA         32.7760   47.3330   28.1700 P.3       1 GTP899      0.0000 
     11 O1A        34.2220   46.9200   28.0820 O.co2     1 GTP899      0.0000 
     12 O2A        32.3300   48.1400   29.2560 O.co2     1 GTP899      0.0000 
     13 O5'        32.4440   48.0780   26.7640 O.3       1 GTP899      0.0000 
     14 C5'        31.1310   48.6270   26.5980 C.3       1 GTP899      0.0000 
     15 C4'        30.1340   47.8080   25.8110 C.3       1 GTP899      0.0000 
     16 O4'        28.8240   48.1790   26.1740 O.3       1 GTP899      0.0000 
     17 C3'        30.1500   48.0080   24.3200 C.3       1 GTP899      0.0000 
     18 O3'        31.2480   47.3690   23.6650 O.3       1 GTP899      0.0000 
     19 C2'        28.8380   47.4600   23.8970 C.3       1 GTP899      0.0000 
     20 O2'        28.9960   46.0940   23.6520 O.3       1 GTP899      0.0000 
     21 C1'        27.9390   47.6620   25.1350 C.3       1 GTP899      0.0000 
     22 N9         26.9160   48.6650   24.9370 N.pl3     1 GTP899      0.0000 
     23 C8         25.6110   48.6850   25.3370 C.2       1 GTP899      0.0000 
     24 N7         24.9270   49.7340   24.9780 N.2       1 GTP899      0.0000 
     25 C5         25.8810   50.4810   24.2660 C.2       1 GTP899      0.0000 
     26 C6         25.7530   51.7430   23.6180 C.2       1 GTP899      0.0000 
     27 O6         24.7630   52.4530   23.5330 O.2       1 GTP899      0.0000 
     28 N1         26.9550   52.1360   23.0060 N.am      1 GTP899      0.0000 
     29 C2         28.1300   51.4290   22.9930 C.2       1 GTP899      0.0000 
     30 N2         29.1820   51.9580   22.3550 N.pl3     1 GTP899      0.0000 
     31 N3         28.2470   50.2380   23.6060 N.2       1 GTP899      0.0000 
     32 C4         27.0780   49.8360   24.2170 C.2       1 GTP899      0.0000 
     33 H          31.1891   49.6443   26.1109 H         1 GTP899      0.0000 
     34 H          30.6664   48.8458   27.6039 H         1 GTP899      0.0000 
     35 H          30.2831   46.7559   26.0143 H         1 GTP899      0.0000 
     36 H          30.1298   49.0792   24.1400 H         1 GTP899      0.0000 
     37 H          28.4504   48.0135   23.1064 H         1 GTP899      0.0000 
     38 H          27.5434   46.7291   25.4297 H         1 GTP899      0.0000 
     39 H          25.2262   47.9140   25.8804 H         1 GTP899      0.0000 
     40 H          26.9390   53.0849   22.5024 H         1 GTP899      0.0000 
     41 H          30.0329   51.4347   22.4006 H         1 GTP899      0.0000 
     42 H          29.0223   52.8289   21.8902 H         1 GTP899      0.0000 
     43 H          30.9008   46.4712   23.3942 H         1 GTP899      0.0000 
     44 H          28.1265   45.8001   23.2550 H         1 GTP899      0.0000 
@<TRIPOS>BOND
     1    2    1 ar   
     2    3    1 ar   
     3    4    1 ar   
     4    5    1 1    
     5    6    5 1    
     6    7    6 ar   
     7    8    6 ar   
     8    9    6 1    
     9   10    9 1    
    10   11   10 ar   
    11   12   10 ar   
    12   13   10 1    
    13   14   13 1    
    14   15   14 1    
    15   33   14 1    
    16   34   14 1    
    17   16   15 1    
    18   17   15 1    
    19   35   15 1    
    20   21   16 1    
    21   18   17 1    
    22   19   17 1    
    23   36   17 1    
    24   43   18 1    
    25   20   19 1    
    26   21   19 1    
    27   37   19 1    
    28   44   20 1    
    29   22   21 1    
    30   38   21 1    
    31   23   22 1    
    32   32   22 1    
    33   24   23 2    
    34   39   23 1    
    35   25   24 1    
    36   26   25 1    
    37   32   25 2    
    38   27   26 2    
    39   28   26 am   
    40   29   28 1    
    41   40   28 1    
    42   30   29 1    
    43   31   29 2    
    44   41   30 1    
    45   42   30 1    
    46   32   31 1    
@<TRIPOS>SUBSTRUCTURE
     1 GTP899      1 GROUP   
@<TRIPOS>SET

