#    Name: 1aj0_SAN_2_ligand
#    Modification time : Mon Mar 24 18:26:37 2014

@<TRIPOS>MOLECULE
1aj0_SAN_2_ligand
   18    18     1     0     0
SMALL
NO_CHARGES


@<TRIPOS>ATOM
      1 C1         43.2220    7.0140    2.3340 C.ar      1 SAN561      0.0000 
      2 N1         44.2960    6.1460    2.5490 N.pl3     1 SAN561      0.0000 
      3 C2         43.0800    7.7190    1.1380 C.ar      1 SAN561      0.0000 
      4 C3         41.9860    8.5740    0.9920 C.ar      1 SAN561      0.0000 
      5 C4         41.1100    8.6700    2.0950 C.ar      1 SAN561      0.0000 
      6 C5         41.2110    7.9590    3.2830 C.ar      1 SAN561      0.0000 
      7 C6         42.3100    7.1490    3.3980 C.ar      1 SAN561      0.0000 
      8 S          39.7490    9.7160    1.9990 S.o2      1 SAN561      0.0000 
      9 N2         38.6150    8.7020    1.9710 N.pl3     1 SAN561      0.0000 
     10 O1         39.7780   10.7560    3.1830 O.2       1 SAN561      0.0000 
     11 O2         39.6720   10.5370    0.6910 O.2       1 SAN561      0.0000 
     12 H          44.3057    5.6670    3.4268 H         1 SAN561      0.0000 
     13 H          44.9626    6.0784    1.8066 H         1 SAN561      0.0000 
     14 H          43.7588    7.6124    0.3886 H         1 SAN561      0.0000 
     15 H          41.8248    9.0939    0.1540 H         1 SAN561      0.0000 
     16 H          40.5199    8.0392    4.0045 H         1 SAN561      0.0000 
     17 H          42.4866    6.6227    4.2715 H         1 SAN561      0.0000 
     18 H          38.3049    8.6869    1.0204 H         1 SAN561      0.0000 
@<TRIPOS>BOND
     1    2    1 1    
     2    3    1 ar   
     3    7    1 ar   
     4   12    2 1    
     5   13    2 1    
     6    4    3 ar   
     7   14    3 1    
     8    5    4 ar   
     9   15    4 1    
    10    6    5 ar   
    11    8    5 1    
    12    7    6 ar   
    13   16    6 1    
    14   17    7 1    
    15    9    8 1    
    16   10    8 2    
    17   11    8 2    
    18   18    9 1    
@<TRIPOS>SUBSTRUCTURE
     1 SAN561      1 GROUP   
@<TRIPOS>SET

