#    Name: 1bqm_HBY_1_INTS_M
#    Modification time : Mon Mar 24 19:44:46 2014

@<TRIPOS>MOLECULE
1bqm_HBY_1_INTS_M
   69     0     6     0     0
SMALL
NO_CHARGES


@<TRIPOS>ATOM
      1 CA        140.4420  -28.3470   69.6880 C.3       2 GLC5        0.0000 
      2 CA        142.2270  -27.6930   70.8790 C.3       6 GLL5        0.0000 
      3 CA        138.6570  -29.0010   68.4970 C.3       4 GLP5        0.0000 
      4 CA        142.9965  -28.6980   76.8580 C.3       2 GLC5        0.0000 
      5 CA        143.6540  -29.1090   74.7660 C.3       6 GLL5        0.0000 
      6 CA        142.3390  -28.2870   78.9500 C.3       4 GLP5        0.0000 
      7 CA        145.3820  -30.8915   74.3560 C.3       2 GLC5        0.0000 
      8 CA        143.3430  -30.4270   75.1680 C.3       6 GLL5        0.0000 
      9 CA        147.4210  -31.3560   73.5440 C.3       4 GLP5        0.0000 
     10 CA        142.6200  -30.5865   77.1785 C.3       2 GLC5        0.0000 
     11 CA        141.8970  -30.7460   79.1890 C.3       4 GLP5        0.0000 
     12 CA        141.1935  -30.2410   76.2390 C.3       2 GLC5        0.0000 
     13 CA        142.1390  -31.1500   74.5210 C.3       6 GLL5        0.0000 
     14 CA        140.2480  -29.3320   77.9570 C.3       4 GLP5        0.0000 
     15 CA        141.0685  -28.4810   73.8425 C.3       2 GLC5        0.0000 
     16 CA        141.3980  -30.4820   73.3910 C.3       6 GLL5        0.0000 
     17 CA        140.7390  -26.4800   74.2940 C.3       4 GLP5        0.0000 
     18 CA        145.6045  -26.4780   76.7920 C.3       2 GLC5        0.0000 
     19 CA        144.0830  -25.6040   76.7710 C.3       6 GLL5        0.0000 
     20 CA        147.1260  -27.3520   76.8130 C.3       4 GLP5        0.0000 
     21 CA        143.1945  -25.3110   78.2105 C.3       2 GLC5        0.0000 
     22 CA        142.3060  -25.0180   79.6500 C.3       4 GLP5        0.0000 
     23 CA        143.2110  -26.9455   77.8605 C.3       2 GLC5        0.0000 
     24 CA        146.1710  -23.3475   76.7600 C.3       2 GLC5        0.0000 
     25 CA        145.2930  -24.8540   77.3910 C.3       6 GLL5        0.0000 
     26 CA        147.0490  -21.8410   76.1290 C.3       4 GLP5        0.0000 
     27 CA        146.0845  -26.1350   77.7815 C.3       2 GLC5        0.0000 
     28 CA        146.8760  -27.4160   78.1720 C.3       4 GLP5        0.0000 
     29 CA        144.6885  -24.3055   78.7815 C.3       2 GLC5        0.0000 
     30 CA        144.0840  -23.7570   80.1720 C.3       4 GLP5        0.0000 
     31 CA        142.6725  -22.8760   75.8815 C.3       2 GLC5        0.0000 
     32 CA        142.9760  -24.6160   76.2600 C.3       6 GLL5        0.0000 
     33 CA        142.3690  -21.1360   75.5030 C.3       4 GLP5        0.0000 
     34 CA        143.1010  -23.8175   77.7860 C.3       2 GLC5        0.0000 
     35 CA        143.2260  -23.0190   79.3120 C.3       4 GLP5        0.0000 
     36 CA        145.6920  -26.1195   69.2560 C.3       2 GLC5        0.0000 
     37 CA        144.7870  -26.7570   71.1570 C.3       6 GLL5        0.0000 
     38 CA        146.5970  -25.4820   67.3550 C.3       4 GLP5        0.0000 
     39 CA        146.9545  -26.7100   69.1670 C.3       2 GLC5        0.0000 
     40 CA        147.3120  -27.9380   70.9790 C.3       6 GLL5        0.0000 
     41 CA        149.1185  -28.2380   71.0350 C.3       2 GLC5        0.0000 
     42 CA        150.9250  -28.5380   71.0910 C.3       4 GLP5        0.0000 
     43 CA        147.9310  -29.4670   70.2230 C.3       2 GLC5        0.0000 
     44 CA        148.5500  -30.9960   69.4670 C.3       4 GLP5        0.0000 
     45 CA        145.1425  -32.0935   77.8330 C.3       2 GLC5        0.0000 
     46 CA        143.8060  -32.2590   77.0390 C.3       6 GLL5        0.0000 
     47 CA        146.4790  -31.9280   78.6270 C.3       4 GLP5        0.0000 
     48 CA        142.8515  -31.5025   78.1140 C.3       2 GLC5        0.0000 
     49 CA        142.4220  -33.7230   77.6220 C.3       2 GLC5        0.0000 
     50 CA        141.0380  -35.1870   78.2050 C.3       4 GLP5        0.0000 
     51 O         140.8785  -29.5195   70.6310 O.2       1 ALC1        0.0000 
     52 O         141.4890  -28.7400   71.5500 O.2       5 ALL1        0.0000 
     53 O         140.2680  -30.2990   69.7120 O.2       3 ALP1        0.0000 
     54 CA        141.2340  -26.1335   70.7010 C.3       2 GLC5        0.0000 
     55 CA        141.9050  -27.1290   69.1770 C.3       6 GLL5        0.0000 
     56 CA        140.5630  -25.1380   72.2250 C.3       4 GLP5        0.0000 
     57 CA        140.4955  -27.8360   68.1420 C.3       2 GLC5        0.0000 
     58 CA        139.0860  -28.5430   67.1070 C.3       4 GLP5        0.0000 
     59 CA        142.2965  -28.5900   67.7085 C.3       2 GLC5        0.0000 
     60 CA        142.6880  -30.0510   66.2400 C.3       4 GLP5        0.0000 
     61 CA        141.6652  -26.1908   71.7767 C.3       2 GLC5        0.0000 
     62 CA        143.3080  -26.7940   71.7780 C.3       6 GLL5        0.0000 
     63 CA        141.9020  -27.7369   74.1486 C.3       2 GLC5        0.0000 
     64 CA        141.9390  -29.2540   72.8390 C.3       6 GLL5        0.0000 
     65 CA        142.1343  -25.7950   75.4048 C.3       2 GLC5        0.0000 
     66 CA        147.0283  -29.6058   72.5740 C.3       2 GLC5        0.0000 
     67 CA        145.9590  -27.7730   72.2290 C.3       6 GLL5        0.0000 
     68 CA        147.5393  -27.1923   73.2085 C.3       2 GLC5        0.0000 
     69 CA        148.4430  -26.5290   74.8130 C.3       4 GLP5        0.0000 
@<TRIPOS>BOND
@<TRIPOS>SUBSTRUCTURE
     1 ALC1       51 GROUP        1 X    ALC  0     ROOT ALC X 1
     2 GLC5        1 GROUP        1 X    GLC  0     **** GLC X 6
     3 ALP1       53 GROUP        1 Y    ALP  0     ROOT ALP Y 8
     4 GLP5        3 GROUP        1 Y    GLP  0     **** GLP Y 13
     5 ALL1       52 GROUP        1 Z    ALL  0     ROOT ALL Z 15
     6 GLL5        2 GROUP        1 Z    GLL  0     **** GLL Z 20
@<TRIPOS>SET

