#    Name: 1bqm_HBY_1_ligand
#    Modification time : Mon Mar 24 19:44:46 2014

@<TRIPOS>MOLECULE
1bqm_HBY_1_ligand
   42    43     1     0     0
SMALL
NO_CHARGES


@<TRIPOS>ATOM
      1 C1        143.3080  -26.7940   71.7780 C.3       1 HBY557      0.0000 
      2 C2        142.2270  -27.6930   70.8790 C.2       1 HBY557      0.0000 
      3 C3        141.9390  -29.2540   72.8390 C.ar      1 HBY557      0.0000 
      4 C4        143.0130  -28.5030   73.6420 C.ar      1 HBY557      0.0000 
      5 C5        143.6540  -29.1090   74.7660 C.ar      1 HBY557      0.0000 
      6 C6        143.3430  -30.4270   75.1680 C.ar      1 HBY557      0.0000 
      7 C7        142.1390  -31.1500   74.5210 C.ar      1 HBY557      0.0000 
      8 C8        141.3980  -30.4820   73.3910 C.ar      1 HBY557      0.0000 
      9 C9        144.0780  -26.0980   74.2440 C.2       1 HBY557      0.0000 
     10 C10       144.0830  -25.6040   76.7710 C.3       1 HBY557      0.0000 
     11 C12       145.2930  -24.8540   77.3910 C.3       1 HBY557      0.0000 
     12 C11       142.9760  -24.6160   76.2600 C.3       1 HBY557      0.0000 
     13 C13       144.7870  -26.7570   71.1570 C.3       1 HBY557      0.0000 
     14 C14       147.3120  -27.9380   70.9790 C.3       1 HBY557      0.0000 
     15 C15       143.8060  -32.2590   77.0390 C.3       1 HBY557      0.0000 
     16 N1        143.3390  -27.1230   73.3180 N.am      1 HBY557      0.0000 
     17 N2        141.4890  -28.7400   71.5500 N.am      1 HBY557      0.0000 
     18 O1        144.3020  -24.8810   73.8050 O.2       1 HBY557      0.0000 
     19 O2        144.4690  -26.5310   75.5540 O.3       1 HBY557      0.0000 
     20 O3        144.2650  -31.0640   76.2330 O.3       1 HBY557      0.0000 
     21 S1        141.9050  -27.1290   69.1770 S.2       1 HBY557      0.0000 
     22 S2        145.9590  -27.7730   72.2290 S.3       1 HBY557      0.0000 
     23 H         142.9286  -25.7328   71.6902 H         1 HBY557      0.0000 
     24 H         144.3554  -28.5687   75.2887 H         1 HBY557      0.0000 
     25 H         141.8746  -32.0305   74.8534 H         1 HBY557      0.0000 
     26 H         140.5653  -30.8911   73.0519 H         1 HBY557      0.0000 
     27 H         143.6238  -26.2350   77.5230 H         1 HBY557      0.0000 
     28 H         145.2234  -25.8081   71.2004 H         1 HBY557      0.0000 
     29 H         144.8550  -27.2492   70.2373 H         1 HBY557      0.0000 
     30 H         140.6537  -29.1225   71.1270 H         1 HBY557      0.0000 
     31 H         145.9957  -25.4871   77.7155 H         1 HBY557      0.0000 
     32 H         145.7304  -24.2443   76.7300 H         1 HBY557      0.0000 
     33 H         145.0211  -24.2924   78.1724 H         1 HBY557      0.0000 
     34 H         143.3254  -23.9997   75.5543 H         1 HBY557      0.0000 
     35 H         142.1974  -25.1031   75.8645 H         1 HBY557      0.0000 
     36 H         142.6193  -24.0438   76.9985 H         1 HBY557      0.0000 
     37 H         147.7828  -27.0694   70.8245 H         1 HBY557      0.0000 
     38 H         148.0045  -28.5997   71.2664 H         1 HBY557      0.0000 
     39 H         146.9638  -28.2443   70.0930 H         1 HBY557      0.0000 
     40 H         144.5050  -32.5601   77.6877 H         1 HBY557      0.0000 
     41 H         142.9826  -32.0555   77.5688 H         1 HBY557      0.0000 
     42 H         143.5923  -33.0415   76.4542 H         1 HBY557      0.0000 
@<TRIPOS>BOND
     1    2    1 1    
     2   13    1 1    
     3   16    1 1    
     4   23    1 1    
     5   17    2 am   
     6   21    2 2    
     7    4    3 ar   
     8    8    3 ar   
     9   17    3 1    
    10    5    4 ar   
    11   16    4 1    
    12    6    5 ar   
    13   24    5 1    
    14    7    6 ar   
    15   20    6 1    
    16    8    7 ar   
    17   25    7 1    
    18   26    8 1    
    19   16    9 am   
    20   18    9 2    
    21   19    9 1    
    22   11   10 1    
    23   12   10 1    
    24   19   10 1    
    25   27   10 1    
    26   31   11 1    
    27   32   11 1    
    28   33   11 1    
    29   34   12 1    
    30   35   12 1    
    31   36   12 1    
    32   22   13 1    
    33   28   13 1    
    34   29   13 1    
    35   22   14 1    
    36   37   14 1    
    37   38   14 1    
    38   39   14 1    
    39   20   15 1    
    40   40   15 1    
    41   41   15 1    
    42   42   15 1    
    43   30   17 1    
@<TRIPOS>SUBSTRUCTURE
     1 HBY557      1 GROUP   
@<TRIPOS>SET

