#    Name: 3dpd_41A_1_INTS_M
#    Modification time : Mon Mar 24 23:57:28 2014

@<TRIPOS>MOLECULE
3dpd_41A_1_INTS_M
   56     0     6     0     0
SMALL
NO_CHARGES


@<TRIPOS>ATOM
      1 CA         23.9915   65.1175   15.9490 C.3       2 GLC5        0.0000 
      2 CA         24.1900   63.5150   17.3780 C.3       6 GLL5        0.0000 
      3 CA         23.7930   66.7200   14.5200 C.3       4 GLP5        0.0000 
      4 CA         23.5640   63.1975   15.7725 C.3       2 GLC5        0.0000 
      5 CA         22.9380   62.8800   14.1670 C.3       4 GLP5        0.0000 
      6 CA         24.7135   64.5600   21.8515 C.3       2 GLC5        0.0000 
      7 CA         24.5710   64.4310   19.6530 C.3       6 GLL5        0.0000 
      8 CA         24.8560   64.6890   24.0500 C.3       4 GLP5        0.0000 
      9 CA         26.0730   63.7595   20.8225 C.3       2 GLC5        0.0000 
     10 CA         27.5750   63.0880   21.9920 C.3       4 GLP5        0.0000 
     11 CA         20.9185   62.8865   18.0705 C.3       2 GLC5        0.0000 
     12 CA         22.6950   62.7410   19.2510 C.3       6 GLL5        0.0000 
     13 CA         19.1420   63.0320   16.8900 C.3       4 GLP5        0.0000 
     14 CA         24.0335   59.3290   20.2500 C.3       2 GLC5        0.0000 
     15 CA         23.6610   61.2170   21.0160 C.3       6 GLL5        0.0000 
     16 CA         24.4060   57.4410   19.4840 C.3       4 GLP5        0.0000 
     17 CA         23.9955   61.8155   23.0680 C.3       2 GLC5        0.0000 
     18 CA         24.3300   62.4140   25.1200 C.3       4 GLP5        0.0000 
     19 CA         25.6180   62.1525   21.5040 C.3       2 GLC5        0.0000 
     20 CA         26.3725   62.5575   20.5765 C.3       2 GLC5        0.0000 
     21 CA         25.1700   62.0270   19.1610 C.3       6 GLL5        0.0000 
     22 CA         22.8495   58.3400   21.9150 C.3       2 GLC5        0.0000 
     23 CA         23.2060   60.3710   22.4610 C.3       6 GLL5        0.0000 
     24 CA         22.4930   56.3090   21.3690 C.3       4 GLP5        0.0000 
     25 CA         23.1695   61.0430   24.0845 C.3       2 GLC5        0.0000 
     26 CA         23.1330   61.7150   25.7080 C.3       4 GLP5        0.0000 
     27 CA         21.4845   57.7870   22.4315 C.3       2 GLC5        0.0000 
     28 CA         20.4760   59.2650   23.4940 C.3       6 GLL5        0.0000 
     29 CA         21.8045   60.4900   24.6010 C.3       2 GLC5        0.0000 
     30 CA         17.9780   58.1050   23.5530 C.3       2 GLC5        0.0000 
     31 CA         19.3790   59.0630   24.5280 C.3       6 GLL5        0.0000 
     32 CA         16.5770   57.1470   22.5780 C.3       4 GLP5        0.0000 
     33 CA         18.3920   58.6055   25.9400 C.3       2 GLC5        0.0000 
     34 CA         17.4050   58.1480   27.3520 C.3       4 GLP5        0.0000 
     35 CA         19.8535   60.1675   26.2515 C.3       2 GLC5        0.0000 
     36 CA         20.3280   61.2720   27.9750 C.3       4 GLP5        0.0000 
     37 N          17.1000   58.8805   24.4180 N.am      1 SEC2        0.0000 
     38 N          18.1390   59.6190   24.1170 N.am      5 SEL2        0.0000 
     39 N          16.0610   58.1420   24.7190 N.am      3 SEP2        0.0000 
     40 CA         17.4205   59.0800   23.2145 C.3       2 GLC5        0.0000 
     41 CA         18.2640   61.0130   23.8510 C.3       6 GLL5        0.0000 
     42 CA         17.2145   59.9875   25.4410 C.3       2 GLC5        0.0000 
     43 CA         16.1650   58.9620   27.0310 C.3       4 GLP5        0.0000 
     44 CA         18.6125   61.2450   26.0230 C.3       2 GLC5        0.0000 
     45 CA         18.9610   61.4770   28.1950 C.3       4 GLP5        0.0000 
     46 CA         19.4565   60.5180   20.7580 C.3       2 GLC5        0.0000 
     47 CA         19.2750   61.2880   22.7640 C.3       6 GLL5        0.0000 
     48 CA         19.6380   59.7480   18.7520 C.3       4 GLP5        0.0000 
     49 CA         21.1390   61.0365   19.3158 C.3       2 GLC5        0.0000 
     50 CA         25.5756   61.8364   17.2136 C.3       2 GLC5        0.0000 
     51 CA         24.1550   63.1820   18.8730 C.3       6 GLL5        0.0000 
     52 CA         26.4800   60.9850   15.7840 C.3       4 GLP5        0.0000 
     53 CA         21.1107   58.3870   25.4500 C.3       2 GLC5        0.0000 
     54 CA         22.2940   57.6100   26.8890 C.3       4 GLP5        0.0000 
     55 CA         19.0418   62.6762   24.3047 C.3       2 GLC5        0.0000 
     56 CA         19.3140   64.2020   25.3020 C.3       4 GLP5        0.0000 
@<TRIPOS>BOND
@<TRIPOS>SUBSTRUCTURE
     1 SEC2       37 GROUP        1 X    SEC  0     ROOT SEC X 2
     2 GLC5        1 GROUP        1 X    GLC  0     **** GLC X 6
     3 SEP2       39 GROUP        1 Y    SEP  0     ROOT SEP Y 9
     4 GLP5        3 GROUP        1 Y    GLP  0     **** GLP Y 13
     5 SEL2       38 GROUP        1 Z    SEL  0     ROOT SEL Z 16
     6 GLL5        2 GROUP        1 Z    GLL  0     **** GLL Z 20
@<TRIPOS>SET

