#    Name: 3dpd_41A_1_ligand
#    Modification time : Mon Mar 24 23:57:29 2014

@<TRIPOS>MOLECULE
3dpd_41A_1_ligand
   36    38     1     0     0
SMALL
NO_CHARGES


@<TRIPOS>ATOM
      1 C01        24.1900   63.5150   17.3780 C.3       1 41A2040     0.0000 
      2 C02        24.1550   63.1820   18.8730 C.3       1 41A2040     0.0000 
      3 C03        24.5710   64.4310   19.6530 C.3       1 41A2040     0.0000 
      4 C04        22.6950   62.7410   19.2510 C.3       1 41A2040     0.0000 
      5 C05        22.5850   61.9090   20.5080 C.2       1 41A2040     0.0000 
      6 C06        23.6610   61.2170   21.0160 C.2       1 41A2040     0.0000 
      7 C07        24.9960   61.2130   20.4380 C.2       1 41A2040     0.0000 
      8 C08        25.1700   62.0270   19.1610 C.3       1 41A2040     0.0000 
      9 O09        25.9150   60.5800   20.9300 O.2       1 41A2040     0.0000 
     10 S10        23.2060   60.3710   22.4610 S.3       1 41A2040     0.0000 
     11 C11        21.5800   61.0030   22.2570 C.2       1 41A2040     0.0000 
     12 N12        20.5900   60.6840   23.1420 N.3       1 41A2040     0.0000 
     13 C13        20.4760   59.2650   23.4940 C.3       1 41A2040     0.0000 
     14 C14        19.3790   59.0630   24.5280 C.3       1 41A2040     0.0000 
     15 O15        18.1390   59.6190   24.1170 O.3       1 41A2040     0.0000 
     16 C16        18.2640   61.0130   23.8510 C.3       1 41A2040     0.0000 
     17 C17        19.2750   61.2880   22.7640 C.3       1 41A2040     0.0000 
     18 N18        21.4160   61.7760   21.2090 N.2       1 41A2040     0.0000 
     19 H          22.2841   62.1806   18.3928 H         1 41A2040     0.0000 
     20 H          22.0867   63.6570   19.3527 H         1 41A2040     0.0000 
     21 H          26.1968   62.4714   19.1491 H         1 41A2040     0.0000 
     22 H          25.1496   61.3350   18.2820 H         1 41A2040     0.0000 
     23 H          21.4177   58.8931   23.9099 H         1 41A2040     0.0000 
     24 H          20.2346   58.6658   22.6104 H         1 41A2040     0.0000 
     25 H          19.7308   59.5115   25.4793 H         1 41A2040     0.0000 
     26 H          19.2942   57.9733   24.7156 H         1 41A2040     0.0000 
     27 H          18.5771   61.5688   24.7556 H         1 41A2040     0.0000 
     28 H          17.2975   61.4507   23.5356 H         1 41A2040     0.0000 
     29 H          18.9243   60.8559   21.8284 H         1 41A2040     0.0000 
     30 H          19.3843   62.3637   22.6376 H         1 41A2040     0.0000 
     31 H          25.1042   63.7897   17.0800 H         1 41A2040     0.0000 
     32 H          23.9217   62.7321   16.8167 H         1 41A2040     0.0000 
     33 H          23.5696   64.2654   17.1500 H         1 41A2040     0.0000 
     34 H          25.4917   64.7334   19.4063 H         1 41A2040     0.0000 
     35 H          23.9542   65.1990   19.4807 H         1 41A2040     0.0000 
     36 H          24.5700   64.2700   20.6400 H         1 41A2040     0.0000 
@<TRIPOS>BOND
     1    2    1 1    
     2   31    1 1    
     3   32    1 1    
     4   33    1 1    
     5    3    2 1    
     6    4    2 1    
     7    8    2 1    
     8   34    3 1    
     9   35    3 1    
    10   36    3 1    
    11    5    4 1    
    12   19    4 1    
    13   20    4 1    
    14    6    5 2    
    15   18    5 1    
    16    7    6 1    
    17   10    6 1    
    18    8    7 1    
    19    9    7 2    
    20   21    8 1    
    21   22    8 1    
    22   11   10 1    
    23   12   11 1    
    24   18   11 2    
    25   13   12 1    
    26   17   12 1    
    27   14   13 1    
    28   23   13 1    
    29   24   13 1    
    30   15   14 1    
    31   25   14 1    
    32   26   14 1    
    33   16   15 1    
    34   17   16 1    
    35   27   16 1    
    36   28   16 1    
    37   29   17 1    
    38   30   17 1    
@<TRIPOS>SUBSTRUCTURE
     1 41A2040     1 GROUP   
@<TRIPOS>SET

