#    Name: 1pj2_NAI_10_INTS_M
#    Modification time : Mon Mar 24 21:32:20 2014

@<TRIPOS>MOLECULE
1pj2_NAI_10_INTS_M
   74     0    12     0     0
SMALL
NO_CHARGES


@<TRIPOS>ATOM
      1 NZ         75.2550  -10.4850   37.6785 N.4       3 LYC4        0.0000 
      2 NZ         74.0440  -11.0230   36.9210 N.4      11 LYL4        0.0000 
      3 NZ         76.2590  -10.8250   39.4080 N.4       7 LYP4        0.0000 
      4 NZ         73.8880  -12.3820   36.5485 N.4       3 LYC4        0.0000 
      5 NZ         73.7940  -14.6400   37.1550 N.4       7 LYP4        0.0000 
      6 N          75.2550  -10.4850   37.6785 N.am      2 SEC2        0.0000 
      7 N          74.0440  -11.0230   36.9210 N.am     10 SEL2        0.0000 
      8 N          76.4660   -9.9470   38.4360 N.am      6 SEP2        0.0000 
      9 N          74.5620  -11.2240   38.2205 N.am      2 SEC2        0.0000 
     10 N          75.0800  -11.4250   39.5200 N.am      6 SEP2        0.0000 
     11 N          73.8880  -12.3820   36.5485 N.am      2 SEC2        0.0000 
     12 N          73.7320  -13.7410   36.1760 N.am      6 SEP2        0.0000 
     13 N          72.7250  -12.4850   36.0435 N.am      2 SEC2        0.0000 
     14 N          71.7180  -11.2290   35.9110 N.am     10 SEL2        0.0000 
     15 CA         76.0210   -8.5850   35.7975 C.3       4 GLC5        0.0000 
     16 CA         74.3980   -8.8280   34.5740 C.3      12 GLL5        0.0000 
     17 CA         77.6440   -8.3420   37.0210 C.3       8 GLP5        0.0000 
     18 N          69.6140   -7.5320   31.0245 N.am      2 SEC2        0.0000 
     19 N          70.7470   -7.0470   32.1320 N.am     10 SEL2        0.0000 
     20 N          68.4810   -8.0170   29.9170 N.am      6 SEP2        0.0000 
     21 CA         73.6665   -8.3835   29.9950 C.3       4 GLC5        0.0000 
     22 CA         72.4710   -8.6590   31.6180 C.3      12 GLL5        0.0000 
     23 CA         74.8620   -8.1080   28.3720 C.3       8 GLP5        0.0000 
     24 CA         73.8210  -10.3660   31.5015 C.3       4 GLC5        0.0000 
     25 CA         75.1710  -12.0730   31.3850 C.3       8 GLP5        0.0000 
     26 CA         69.0720  -11.5250   29.3940 C.3       4 GLC5        0.0000 
     27 CA         71.2240  -11.5290   29.8970 C.3      12 GLL5        0.0000 
     28 CA         66.9200  -11.5210   28.8910 C.3       8 GLP5        0.0000 
     29 CA         71.1710  -12.8405   26.6855 C.3       4 GLC5        0.0000 
     30 CA         70.8870  -12.2300   28.7520 C.3      12 GLL5        0.0000 
     31 CA         71.4550  -13.4510   24.6190 C.3       8 GLP5        0.0000 
     32 CA         69.1670  -12.2790   28.2445 C.3       4 GLC5        0.0000 
     33 CA         67.4470  -12.3280   27.7370 C.3       8 GLP5        0.0000 
     34 O          70.9370  -14.4910   29.6100 O.2       1 ALC1        0.0000 
     35 O          70.5290  -13.5040   28.7850 O.2       9 ALL1        0.0000 
     36 O          71.3450  -15.4780   30.4350 O.2       5 ALP1        0.0000 
     37 N          70.1295  -12.0675   26.4520 N.am      2 SEC2        0.0000 
     38 N          70.9760  -11.5560   27.5680 N.am     10 SEL2        0.0000 
     39 N          69.2830  -12.5790   25.3360 N.am      6 SEP2        0.0000 
     40 CA         71.6505  -10.6520   25.7675 C.3       4 GLC5        0.0000 
     41 CA         71.3840  -10.2490   27.5460 C.3      12 GLL5        0.0000 
     42 CA         71.9170  -11.0550   23.9890 C.3       8 GLP5        0.0000 
     43 CA         69.3625  -10.8980   27.0005 C.3       4 GLC5        0.0000 
     44 CA         67.3410  -11.5470   26.4550 C.3       8 GLP5        0.0000 
     45 CA         69.9435   -8.9085   26.6715 C.3       4 GLC5        0.0000 
     46 CA         68.5030   -7.5680   25.7970 C.3       8 GLP5        0.0000 
     47 CA         73.1230   -9.1785   27.9590 C.3       4 GLC5        0.0000 
     48 CA         73.2465   -9.1845   29.1340 C.3       4 GLC5        0.0000 
     49 CA         71.6310  -10.2610   29.8960 C.3      12 GLL5        0.0000 
     50 N          73.6630  -10.5895   39.3340 N.am      2 SEC2        0.0000 
     51 N          72.2460   -9.7540   39.1480 N.am     10 SEL2        0.0000 
     52 NZ         74.0610   -6.8335   39.2430 N.4       3 LYC4        0.0000 
     53 NZ         73.1770   -7.4700   38.5220 N.4      11 LYL4        0.0000 
     54 NZ         74.9450   -6.1970   39.9640 N.4       7 LYP4        0.0000 
     55 O          66.5440   -7.8205   37.7215 O.2       1 ALC1        0.0000 
     56 O          66.7350   -7.7240   36.1680 O.2       9 ALL1        0.0000 
     57 O          66.3530   -7.9170   39.2750 O.2       5 ALP1        0.0000 
     58 CA         68.8990   -4.1435   38.5195 C.3       4 GLC5        0.0000 
     59 CA         68.3580   -4.6990   36.4970 C.3      12 GLL5        0.0000 
     60 CA         69.4400   -3.5880   40.5420 C.3       8 GLP5        0.0000 
     61 CA         69.4730   -2.7020   32.3415 C.3       4 GLC5        0.0000 
     62 CA         70.5250   -2.4510   34.2130 C.3      12 GLL5        0.0000 
     63 CA         68.4210   -2.9530   30.4700 C.3       8 GLP5        0.0000 
     64 N          70.5505   -3.6490   32.0270 N.am      2 SEC2        0.0000 
     65 N          71.9020   -3.6970   32.6580 N.am     10 SEL2        0.0000 
     66 N          69.1990   -3.6010   31.3960 N.am      6 SEP2        0.0000 
     67 N          72.7815   -3.7890   31.5445 N.am      2 SEC2        0.0000 
     68 N          73.6610   -3.8810   30.4310 N.am      6 SEP2        0.0000 
     69 CA         75.7860   -9.2252   32.7602 C.3       4 GLC5        0.0000 
     70 CA         73.9880   -7.9810   33.3530 C.3      12 GLL5        0.0000 
     71 CA         77.3790  -10.0460   31.5570 C.3       8 GLP5        0.0000 
     72 CA         72.0122   -6.8395   30.7765 C.3       4 GLC5        0.0000 
     73 CA         71.9590   -5.3530   29.3980 C.3       8 GLP5        0.0000 
     74 CA         73.2993  -11.4840   30.6408 C.3       4 GLC5        0.0000 
@<TRIPOS>BOND
@<TRIPOS>SUBSTRUCTURE
     1 ALC1       34 GROUP        1 X    ALC  0     ROOT ALC X 1
     2 SEC2        6 GROUP        1 X    SEC  0     **** SEC X 2
     3 LYC4        1 GROUP        1 X    LYC  0     **** LYC X 4
     4 GLC5       15 GROUP        1 X    GLC  0     **** GLC X 6
     5 ALP1       36 GROUP        1 Y    ALP  0     ROOT ALP Y 8
     6 SEP2        8 GROUP        1 Y    SEP  0     **** SEP Y 9
     7 LYP4        3 GROUP        1 Y    LYP  0     **** LYP Y 11
     8 GLP5       17 GROUP        1 Y    GLP  0     **** GLP Y 13
     9 ALL1       35 GROUP        1 Z    ALL  0     ROOT ALL Z 15
    10 SEL2        7 GROUP        1 Z    SEL  0     **** SEL Z 16
    11 LYL4        2 GROUP        1 Z    LYL  0     **** LYL Z 18
    12 GLL5       16 GROUP        1 Z    GLL  0     **** GLL Z 20
@<TRIPOS>SET

