#    Name: 1pj2_NAI_10_ligand
#    Modification time : Mon Mar 24 21:32:20 2014

@<TRIPOS>MOLECULE
1pj2_NAI_10_ligand
   71    75     1     0     0
SMALL
NO_CHARGES


@<TRIPOS>ATOM
      1 PA         72.9590  -10.4410   36.1170 P.3       1 NAI2602     0.0000 
      2 O1A        74.0440  -11.0230   36.9210 O.co2     1 NAI2602     0.0000 
      3 O2A        71.7180  -11.2290   35.9110 O.co2     1 NAI2602     0.0000 
      4 O5B        73.5530   -9.9880   34.6850 O.3       1 NAI2602     0.0000 
      5 C5B        74.3980   -8.8280   34.5740 C.3       1 NAI2602     0.0000 
      6 C4B        73.9880   -7.9810   33.3530 C.3       1 NAI2602     0.0000 
      7 O4B        73.8110   -8.8610   32.1680 O.3       1 NAI2602     0.0000 
      8 C3B        72.6670   -7.2960   33.5960 C.3       1 NAI2602     0.0000 
      9 O3B        72.7550   -5.8860   33.2780 O.3       1 NAI2602     0.0000 
     10 C2B        71.6600   -7.9930   32.6920 C.3       1 NAI2602     0.0000 
     11 O2B        70.7470   -7.0470   32.1320 O.3       1 NAI2602     0.0000 
     12 C1B        72.4710   -8.6590   31.6180 C.3       1 NAI2602     0.0000 
     13 N9A        71.8820   -9.9550   31.1620 N.pl3     1 NAI2602     0.0000 
     14 C8A        71.5970  -11.0800   31.9210 C.2       1 NAI2602     0.0000 
     15 N7A        71.1820  -12.0690   31.0920 N.2       1 NAI2602     0.0000 
     16 C5A        71.2240  -11.5290   29.8970 C.ar      1 NAI2602     0.0000 
     17 C6A        70.8870  -12.2300   28.7520 C.ar      1 NAI2602     0.0000 
     18 N6A        70.5290  -13.5040   28.7850 N.pl3     1 NAI2602     0.0000 
     19 N1A        70.9760  -11.5560   27.5680 N.ar      1 NAI2602     0.0000 
     20 C2A        71.3840  -10.2490   27.5460 C.ar      1 NAI2602     0.0000 
     21 N3A        71.7120   -9.6010   28.7030 N.ar      1 NAI2602     0.0000 
     22 C4A        71.6310  -10.2610   29.8960 C.ar      1 NAI2602     0.0000 
     23 O3         72.5600   -9.0740   36.7630 O.3       1 NAI2602     0.0000 
     24 PN         72.2550   -8.5770   38.2400 P.3       1 NAI2602     0.0000 
     25 O1N        72.2460   -9.7540   39.1480 O.co2     1 NAI2602     0.0000 
     26 O2N        73.1770   -7.4700   38.5220 O.co2     1 NAI2602     0.0000 
     27 O5D        70.7420   -7.9880   38.1320 O.3       1 NAI2602     0.0000 
     28 C5D        70.0520   -7.8960   36.8660 C.3       1 NAI2602     0.0000 
     29 C4D        68.8820   -6.9480   37.0300 C.3       1 NAI2602     0.0000 
     30 O4D        69.3380   -5.5570   37.1530 O.3       1 NAI2602     0.0000 
     31 C3D        67.9490   -7.0060   35.8360 C.3       1 NAI2602     0.0000 
     32 O3D        66.7350   -7.7240   36.1680 O.3       1 NAI2602     0.0000 
     33 C2D        67.6400   -5.5580   35.4750 C.3       1 NAI2602     0.0000 
     34 O2D        66.2280   -5.3140   35.5190 O.3       1 NAI2602     0.0000 
     35 C1D        68.3580   -4.6990   36.4970 C.3       1 NAI2602     0.0000 
     36 N1N        69.0000   -3.4870   35.8610 N.pl3     1 NAI2602     0.0000 
     37 C2N        69.9820   -3.6080   34.8120 C.2       1 NAI2602     0.0000 
     38 C3N        70.5250   -2.4510   34.2130 C.2       1 NAI2602     0.0000 
     39 C7N        71.5590   -2.5960   33.0670 C.2       1 NAI2602     0.0000 
     40 O7N        71.9020   -3.6970   32.6580 O.2       1 NAI2602     0.0000 
     41 N7N        72.0210   -1.4590   32.5510 N.am      1 NAI2602     0.0000 
     42 C4N        70.1060   -1.1660   34.6580 C.3       1 NAI2602     0.0000 
     43 C5N        69.1390   -1.0470   35.7040 C.2       1 NAI2602     0.0000 
     44 C6N        68.5920   -2.1980   36.2970 C.2       1 NAI2602     0.0000 
     45 H          75.4504   -9.1052   34.4455 H         1 NAI2602     0.0000 
     46 H          74.3241   -8.1876   35.4602 H         1 NAI2602     0.0000 
     47 H          74.7393   -7.2538   33.1596 H         1 NAI2602     0.0000 
     48 H          72.3767   -7.4615   34.6116 H         1 NAI2602     0.0000 
     49 H          71.1669   -8.7484   33.2680 H         1 NAI2602     0.0000 
     50 H          72.5392   -7.9758   30.7738 H         1 NAI2602     0.0000 
     51 H          71.6848  -11.1318   32.8745 H         1 NAI2602     0.0000 
     52 H          69.8764  -13.7959   28.0857 H         1 NAI2602     0.0000 
     53 H          70.9436  -14.0590   29.5061 H         1 NAI2602     0.0000 
     54 H          71.4444   -9.7452   26.6373 H         1 NAI2602     0.0000 
     55 H          69.6690   -8.8663   36.5521 H         1 NAI2602     0.0000 
     56 H          70.7053   -7.5066   36.0861 H         1 NAI2602     0.0000 
     57 H          68.3196   -7.2232   37.9099 H         1 NAI2602     0.0000 
     58 H          68.4710   -7.4522   35.0181 H         1 NAI2602     0.0000 
     59 H          68.0584   -5.3569   34.5109 H         1 NAI2602     0.0000 
     60 H          67.6211   -4.3704   37.2252 H         1 NAI2602     0.0000 
     61 H          70.2752   -4.5349   34.5126 H         1 NAI2602     0.0000 
     62 H          72.6777   -1.5503   31.8024 H         1 NAI2602     0.0000 
     63 H          71.6697   -0.6161   32.9585 H         1 NAI2602     0.0000 
     64 H          69.7361   -0.5623   33.7486 H         1 NAI2602     0.0000 
     65 H          71.0377   -0.5542   34.9510 H         1 NAI2602     0.0000 
     66 H          68.8514   -0.1176   36.0141 H         1 NAI2602     0.0000 
     67 H          67.8994   -2.1145   37.0433 H         1 NAI2602     0.0000 
     68 H          73.7043   -5.7427   32.9980 H         1 NAI2602     0.0000 
     69 H          71.1638   -6.1539   32.3011 H         1 NAI2602     0.0000 
     70 H          66.6949   -7.7163   37.1672 H         1 NAI2602     0.0000 
     71 H          65.8136   -6.2151   35.6466 H         1 NAI2602     0.0000 
@<TRIPOS>BOND
     1    2    1 ar   
     2    3    1 ar   
     3    4    1 1    
     4   23    1 1    
     5    5    4 1    
     6    6    5 1    
     7   45    5 1    
     8   46    5 1    
     9    7    6 1    
    10    8    6 1    
    11   47    6 1    
    12   12    7 1    
    13    9    8 1    
    14   10    8 1    
    15   48    8 1    
    16   68    9 1    
    17   11   10 1    
    18   12   10 1    
    19   49   10 1    
    20   69   11 1    
    21   13   12 1    
    22   50   12 1    
    23   14   13 1    
    24   22   13 1    
    25   15   14 2    
    26   51   14 1    
    27   16   15 1    
    28   17   16 ar   
    29   22   16 ar   
    30   18   17 1    
    31   19   17 ar   
    32   52   18 1    
    33   53   18 1    
    34   20   19 ar   
    35   21   20 ar   
    36   54   20 1    
    37   22   21 ar   
    38   24   23 1    
    39   25   24 ar   
    40   26   24 ar   
    41   27   24 1    
    42   28   27 1    
    43   29   28 1    
    44   55   28 1    
    45   56   28 1    
    46   30   29 1    
    47   31   29 1    
    48   57   29 1    
    49   35   30 1    
    50   32   31 1    
    51   33   31 1    
    52   58   31 1    
    53   70   32 1    
    54   34   33 1    
    55   35   33 1    
    56   59   33 1    
    57   71   34 1    
    58   36   35 1    
    59   60   35 1    
    60   37   36 1    
    61   44   36 1    
    62   38   37 2    
    63   61   37 1    
    64   39   38 1    
    65   42   38 1    
    66   40   39 2    
    67   41   39 am   
    68   62   41 1    
    69   63   41 1    
    70   43   42 1    
    71   64   42 1    
    72   65   42 1    
    73   44   43 2    
    74   66   43 1    
    75   67   44 1    
@<TRIPOS>SUBSTRUCTURE
     1 NAI2602     1 GROUP   
@<TRIPOS>SET

