#    Name: 1gq2_NAP_8_INTS_M
#    Modification time : Tue Mar 25 03:31:48 2014

@<TRIPOS>MOLECULE
1gq2_NAP_8_INTS_M
   98     0    12     0     0
SMALL
NO_CHARGES


@<TRIPOS>ATOM
      1 N          -0.8855   46.0505   11.4995 N.am      2 SEC2        0.0000 
      2 N          -0.1010   45.8900   10.0920 N.am     10 SEL2        0.0000 
      3 N          -1.6700   46.2110   12.9070 N.am      6 SEP2        0.0000 
      4 N           0.8380   45.8385   11.2430 N.am      2 SEC2        0.0000 
      5 N           1.7770   45.7870   12.3940 N.am      6 SEP2        0.0000 
      6 CA          2.1995   51.4410    8.8180 C.3       4 GLC5        0.0000 
      7 CA          0.6640   50.1250    8.3980 C.3      12 GLL5        0.0000 
      8 CA          3.7350   52.7570    9.2380 C.3       8 GLP5        0.0000 
      9 CA          2.2715   50.4205    6.8560 C.3       4 GLC5        0.0000 
     10 CA          3.8790   50.7160    5.3140 C.3       8 GLP5        0.0000 
     11 N           1.0270   51.4415   10.7645 N.am      2 SEC2        0.0000 
     12 N          -0.4970   50.9760   10.3270 N.am     10 SEL2        0.0000 
     13 N           2.5510   51.9070   11.2020 N.am      6 SEP2        0.0000 
     14 N          -1.8375   54.1840    8.6020 N.am      2 SEC2        0.0000 
     15 N          -1.9900   52.5570    8.8520 N.am     10 SEL2        0.0000 
     16 N          -1.6850   55.8110    8.3520 N.am      6 SEP2        0.0000 
     17 CA          1.9215   52.5185    8.4355 C.3       4 GLC5        0.0000 
     18 CA          0.1080   52.2800    7.6330 C.3      12 GLL5        0.0000 
     19 CA          0.1075   54.0455    8.8295 C.3       4 GLC5        0.0000 
     20 CA          0.1070   55.8110   10.0260 C.3       8 GLP5        0.0000 
     21 CA          1.8770   52.2510    6.5495 C.3       4 GLC5        0.0000 
     22 CA          3.6460   52.2220    5.4660 C.3       8 GLP5        0.0000 
     23 N           3.1010   56.0980    4.6890 N.am      2 SEC2        0.0000 
     24 N           1.5270   56.5810    5.0820 N.am     10 SEL2        0.0000 
     25 N           4.6750   55.6150    4.2960 N.am      6 SEP2        0.0000 
     26 CA          4.0615   56.1605    6.2115 C.3       4 GLC5        0.0000 
     27 CA          1.9640   56.1630    6.3140 C.3      12 GLL5        0.0000 
     28 CA          6.1590   56.1580    6.1090 C.3       8 GLP5        0.0000 
     29 CA          2.4900   57.5180    7.6580 C.3       4 GLC5        0.0000 
     30 CA          3.0160   58.8730    9.0020 C.3       8 GLP5        0.0000 
     31 CA          1.0355   55.9870    8.1700 C.3       4 GLC5        0.0000 
     32 CA          2.8050   54.1925    5.8900 C.3       4 GLC5        0.0000 
     33 CA          0.3450   55.0210    8.1020 C.3       4 GLC5        0.0000 
     34 CA          0.5830   54.2310    6.1780 C.3      12 GLL5        0.0000 
     35 NZ          2.9955   42.5880    8.1770 N.4       3 LYC4        0.0000 
     36 NZ          2.5530   43.7050    8.9420 N.4      11 LYL4        0.0000 
     37 NZ          2.6590   41.5840    6.3510 N.4       7 LYP4        0.0000 
     38 N           2.0145   42.9455    7.7010 N.am      2 SEC2        0.0000 
     39 N           2.5530   43.7050    8.9420 N.am     10 SEL2        0.0000 
     40 N           1.4760   42.1860    6.4600 N.am      6 SEP2        0.0000 
     41 N           2.9955   42.5880    8.1770 N.am      2 SEC2        0.0000 
     42 N           3.4380   41.4710    7.4120 N.am      6 SEP2        0.0000 
     43 N           3.9080   45.6790   10.5095 N.am      2 SEC2        0.0000 
     44 N           3.1890   46.1460    9.1950 N.am     10 SEL2        0.0000 
     45 N           4.6270   45.2120   11.8240 N.am      6 SEP2        0.0000 
     46 CA          5.9410   47.7140    6.1590 C.3       4 GLC5        0.0000 
     47 CA          4.8150   46.0320    5.3900 C.3      12 GLL5        0.0000 
     48 CA          7.0670   49.3960    6.9280 C.3       8 GLP5        0.0000 
     49 CA          6.1750   46.9590    3.8635 C.3       4 GLC5        0.0000 
     50 CA          7.5350   47.8860    2.3370 C.3       8 GLP5        0.0000 
     51 CA          3.6100   44.7330    2.6165 C.3       4 GLC5        0.0000 
     52 CA          4.5480   44.9840    4.3050 C.3      12 GLL5        0.0000 
     53 CA          2.6720   44.4820    0.9280 C.3       8 GLP5        0.0000 
     54 O           5.2235   44.6860    1.6020 O.2       1 ALC1        0.0000 
     55 O           4.7340   45.5430    2.9870 O.2       9 ALL1        0.0000 
     56 O           5.7130   43.8290    0.2170 O.2       5 ALP1        0.0000 
     57 CA          4.5850   42.4185    3.2530 C.3       4 GLC5        0.0000 
     58 CA          5.5470   43.8700    4.5520 C.3      12 GLL5        0.0000 
     59 CA          3.6230   40.9670    1.9540 C.3       8 GLP5        0.0000 
     60 N           7.0320   44.0240    2.4390 N.am      2 SEC2        0.0000 
     61 N           6.0980   43.3730    3.3200 N.am     10 SEL2        0.0000 
     62 N           7.9660   44.6750    1.5580 N.am      6 SEP2        0.0000 
     63 CA          6.4045   40.5880    9.4030 C.3       4 GLC5        0.0000 
     64 CA          7.1760   41.6100    7.8840 C.3      12 GLL5        0.0000 
     65 CA          5.6330   39.5660   10.9220 C.3       8 GLP5        0.0000 
     66 CA          6.5325   44.1215    8.7635 C.3       4 GLC5        0.0000 
     67 CA          6.5270   42.6310    7.1760 C.3      12 GLL5        0.0000 
     68 CA          6.5380   45.6120   10.3510 C.3       8 GLP5        0.0000 
     69 NZ         -3.0560   52.7185   12.1275 N.4       3 LYC4        0.0000 
     70 NZ         -3.0240   51.9330   11.0090 N.4      11 LYL4        0.0000 
     71 NZ         -3.0880   53.5040   13.2460 N.4       7 LYP4        0.0000 
     72 N          -3.0560   52.7185   12.1275 N.am      2 SEC2        0.0000 
     73 N          -3.0240   51.9330   11.0090 N.am     10 SEL2        0.0000 
     74 N          -3.0880   53.5040   13.2460 N.am      6 SEP2        0.0000 
     75 NZ         -3.5140   53.6555   11.4650 N.4       3 LYC4        0.0000 
     76 NZ         -3.9400   53.8070    9.6840 N.4      11 LYL4        0.0000 
     77 N          -2.8125   54.8090    9.0180 N.am      2 SEC2        0.0000 
     78 N          -3.9400   53.8070    9.6840 N.am     10 SEL2        0.0000 
     79 N          -4.2975   54.5975    8.7010 N.am      2 SEC2        0.0000 
     80 N          -4.6550   55.3880    7.7180 N.am      6 SEP2        0.0000 
     81 CA          0.5988   49.2140   10.4600 C.3       4 GLC5        0.0000 
     82 CA         -0.6630   50.5150    8.9680 C.3      12 GLL5        0.0000 
     83 CA          1.1970   48.1080   12.2370 C.3       8 GLP5        0.0000 
     84 CA          2.0115   53.3310    5.5235 C.3       4 GLC5        0.0000 
     85 CA          0.1710   54.6490    4.9840 C.3      12 GLL5        0.0000 
     86 CA          1.0717   54.2710    3.1350 C.3       4 GLC5        0.0000 
     87 CA          1.7540   53.3040    1.5880 C.3       8 GLP5        0.0000 
     88 CA         -0.9829   55.5408    6.3220 C.3       4 GLC5        0.0000 
     89 CA         -2.4520   56.3470    7.2140 C.3       8 GLP5        0.0000 
     90 CA          3.9447   46.8105    3.3323 C.3       4 GLC5        0.0000 
     91 CA          3.2080   48.1130    1.8170 C.3       8 GLP5        0.0000 
     92 CA          7.2572   45.4532    3.8702 C.3       4 GLC5        0.0000 
     93 CA          8.4330   46.7300    2.7470 C.3       8 GLP5        0.0000 
     94 CA          9.5633   42.9785    8.4220 C.3       4 GLC5        0.0000 
     95 CA          8.6780   43.2530    6.1280 C.3      12 GLL5        0.0000 
     96 CA         10.1270   43.2160   10.3600 C.3       8 GLP5        0.0000 
     97 CA          8.9992   42.3630    9.0783 C.3       4 GLC5        0.0000 
     98 CA          8.5670   41.4100    7.7090 C.3      12 GLL5        0.0000 
@<TRIPOS>BOND
@<TRIPOS>SUBSTRUCTURE
     1 ALC1       54 GROUP        1 X    ALC  0     ROOT ALC X 1
     2 SEC2        1 GROUP        1 X    SEC  0     **** SEC X 2
     3 LYC4       35 GROUP        1 X    LYC  0     **** LYC X 4
     4 GLC5        6 GROUP        1 X    GLC  0     **** GLC X 6
     5 ALP1       56 GROUP        1 Y    ALP  0     ROOT ALP Y 8
     6 SEP2        3 GROUP        1 Y    SEP  0     **** SEP Y 9
     7 LYP4       37 GROUP        1 Y    LYP  0     **** LYP Y 11
     8 GLP5        8 GROUP        1 Y    GLP  0     **** GLP Y 13
     9 ALL1       55 GROUP        1 Z    ALL  0     ROOT ALL Z 15
    10 SEL2        2 GROUP        1 Z    SEL  0     **** SEL Z 16
    11 LYL4       36 GROUP        1 Z    LYL  0     **** LYL Z 18
    12 GLL5        7 GROUP        1 Z    GLL  0     **** GLL Z 20
@<TRIPOS>SET

