#    Name: 1gq2_NAP_8_ligand
#    Modification time : Tue Mar 25 03:31:48 2014

@<TRIPOS>MOLECULE
1gq2_NAP_8_ligand
   73    77     1     0     0
SMALL
NO_CHARGES


@<TRIPOS>ATOM
      1 PA          0.0460   46.3610    8.6990 P.3       1 NAP1581     0.0000 
      2 O1A        -1.1410   46.4210    7.8160 O.co2     1 NAP1581     0.0000 
      3 O2A        -0.1010   45.8900   10.0920 O.co2     1 NAP1581     0.0000 
      4 O5B         0.7790   47.7970    8.7310 O.3       1 NAP1581     0.0000 
      5 C5B         0.5810   48.7770    7.7210 C.3       1 NAP1581     0.0000 
      6 C4B         0.6640   50.1250    8.3980 C.3       1 NAP1581     0.0000 
      7 O4B         1.0450   51.1750    7.4510 O.3       1 NAP1581     0.0000 
      8 C3B        -0.6630   50.5150    8.9680 C.3       1 NAP1581     0.0000 
      9 O3B        -0.4970   50.9760   10.3270 O.3       1 NAP1581     0.0000 
     10 C2B        -1.1510   51.6490    8.1130 C.3       1 NAP1581     0.0000 
     11 O2B        -1.9900   52.5570    8.8520 O.3       1 NAP1581     0.0000 
     12 C1B         0.1080   52.2800    7.6330 C.3       1 NAP1581     0.0000 
     13 N9A        -0.0490   53.0860    6.4010 N.pl3     1 NAP1581     0.0000 
     14 C8A        -0.8490   52.8270    5.3040 C.2       1 NAP1581     0.0000 
     15 N7A        -0.6930   53.8380    4.4130 N.2       1 NAP1581     0.0000 
     16 C5A         0.1710   54.6490    4.9840 C.ar      1 NAP1581     0.0000 
     17 C6A         0.6080   55.8270    4.3800 C.ar      1 NAP1581     0.0000 
     18 N6A         0.1500   56.2270    3.1870 N.pl3     1 NAP1581     0.0000 
     19 N1A         1.5270   56.5810    5.0820 N.ar      1 NAP1581     0.0000 
     20 C2A         1.9640   56.1630    6.3140 C.ar      1 NAP1581     0.0000 
     21 N3A         1.4930   54.9910    6.8620 N.ar      1 NAP1581     0.0000 
     22 C4A         0.5830   54.2310    6.1780 C.ar      1 NAP1581     0.0000 
     23 O3          1.1310   45.4920    8.0160 O.3       1 NAP1581     0.0000 
     24 PN          2.5950   45.0770    8.3910 P.3       1 NAP1581     0.0000 
     25 O1N         2.5530   43.7050    8.9420 O.co2     1 NAP1581     0.0000 
     26 O2N         3.1890   46.1460    9.1950 O.co2     1 NAP1581     0.0000 
     27 O5D         3.2920   45.0350    6.9680 O.3       1 NAP1581     0.0000 
     28 C5D         3.5770   46.2410    6.2610 C.3       1 NAP1581     0.0000 
     29 C4D         4.8150   46.0320    5.3900 C.3       1 NAP1581     0.0000 
     30 O4D         5.9560   45.5310    6.2220 O.3       1 NAP1581     0.0000 
     31 C3D         4.5480   44.9840    4.3050 C.3       1 NAP1581     0.0000 
     32 O3D         4.7340   45.5430    2.9870 O.3       1 NAP1581     0.0000 
     33 C2D         5.5470   43.8700    4.5520 C.3       1 NAP1581     0.0000 
     34 O2D         6.0980   43.3730    3.3200 O.3       1 NAP1581     0.0000 
     35 C1D         6.6160   44.4830    5.4350 C.3       1 NAP1581     0.0000 
     36 N1N         7.2820   43.4590    6.2810 N.pl3     1 NAP1581     0.0000 
     37 C2N         8.6780   43.2530    6.1280 C.ar      1 NAP1581     0.0000 
     38 C3N         9.3210   42.2290    6.8400 C.ar      1 NAP1581     0.0000 
     39 C7N        10.8430   42.0280    6.7050 C.2       1 NAP1581     0.0000 
     40 O7N        11.5240   42.7700    5.9960 O.2       1 NAP1581     0.0000 
     41 N7N        11.3490   41.0270    7.4140 N.am      1 NAP1581     0.0000 
     42 C4N         8.5670   41.4100    7.7090 C.ar      1 NAP1581     0.0000 
     43 C5N         7.1760   41.6100    7.8840 C.ar      1 NAP1581     0.0000 
     44 C6N         6.5270   42.6310    7.1760 C.ar      1 NAP1581     0.0000 
     45 P2B        -3.3840   52.4360    9.6570 P.3       1 NAP1581     0.0000 
     46 O1X        -3.0240   51.9330   11.0090 O.co2     1 NAP1581     0.0000 
     47 O2X        -3.9400   53.8070    9.6840 O.co2     1 NAP1581     0.0000 
     48 O3X        -4.1900   51.4770    8.8570 O.co2     1 NAP1581     0.0000 
     49 H          -0.3964   48.6885    7.2540 H         1 NAP1581     0.0000 
     50 H           1.3494   48.7318    6.9537 H         1 NAP1581     0.0000 
     51 H           1.3827   50.0786    9.1997 H         1 NAP1581     0.0000 
     52 H          -1.3352   49.7045    8.8933 H         1 NAP1581     0.0000 
     53 H          -1.6594   51.2209    7.2641 H         1 NAP1581     0.0000 
     54 H           0.4897   52.9149    8.4427 H         1 NAP1581     0.0000 
     55 H          -1.4128   52.0594    5.2040 H         1 NAP1581     0.0000 
     56 H          -0.4828   55.6040    2.7272 H         1 NAP1581     0.0000 
     57 H           0.4818   57.1129    2.8628 H         1 NAP1581     0.0000 
     58 H           2.6543   56.7329    6.8378 H         1 NAP1581     0.0000 
     59 H           3.7833   47.0730    6.9407 H         1 NAP1581     0.0000 
     60 H           2.7521   46.5334    5.6045 H         1 NAP1581     0.0000 
     61 H           5.0868   46.9511    4.9218 H         1 NAP1581     0.0000 
     62 H           3.5651   44.5966    4.4495 H         1 NAP1581     0.0000 
     63 H           5.0514   43.1011    5.1170 H         1 NAP1581     0.0000 
     64 H           7.3494   44.9476    4.7743 H         1 NAP1581     0.0000 
     65 H           9.2097   43.8556    5.4961 H         1 NAP1581     0.0000 
     66 H          10.7053   40.5313    7.9971 H         1 NAP1581     0.0000 
     67 H          12.3283   40.8588    7.3012 H         1 NAP1581     0.0000 
     68 H           9.0356   40.6531    8.2256 H         1 NAP1581     0.0000 
     69 H           6.6546   41.0106    8.5236 H         1 NAP1581     0.0000 
     70 H           5.5308   42.7947    7.2859 H         1 NAP1581     0.0000 
     71 H          -1.4053   51.2862   10.6077 H         1 NAP1581     0.0000 
     72 H           5.4308   44.9681    2.5581 H         1 NAP1581     0.0000 
     73 H           7.0309   43.0940    3.5478 H         1 NAP1581     0.0000 
@<TRIPOS>BOND
     1    2    1 ar   
     2    3    1 ar   
     3    4    1 1    
     4   23    1 1    
     5    5    4 1    
     6    6    5 1    
     7   49    5 1    
     8   50    5 1    
     9    7    6 1    
    10    8    6 1    
    11   51    6 1    
    12   12    7 1    
    13    9    8 1    
    14   10    8 1    
    15   52    8 1    
    16   71    9 1    
    17   11   10 1    
    18   12   10 1    
    19   53   10 1    
    20   45   11 1    
    21   13   12 1    
    22   54   12 1    
    23   14   13 1    
    24   22   13 1    
    25   15   14 2    
    26   55   14 1    
    27   16   15 1    
    28   17   16 ar   
    29   22   16 ar   
    30   18   17 1    
    31   19   17 ar   
    32   56   18 1    
    33   57   18 1    
    34   20   19 ar   
    35   21   20 ar   
    36   58   20 1    
    37   22   21 ar   
    38   24   23 1    
    39   25   24 ar   
    40   26   24 ar   
    41   27   24 1    
    42   28   27 1    
    43   29   28 1    
    44   59   28 1    
    45   60   28 1    
    46   30   29 1    
    47   31   29 1    
    48   61   29 1    
    49   35   30 1    
    50   32   31 1    
    51   33   31 1    
    52   62   31 1    
    53   72   32 1    
    54   34   33 1    
    55   35   33 1    
    56   63   33 1    
    57   73   34 1    
    58   36   35 1    
    59   64   35 1    
    60   37   36 ar   
    61   44   36 ar   
    62   38   37 ar   
    63   65   37 1    
    64   39   38 1    
    65   42   38 ar   
    66   40   39 2    
    67   41   39 am   
    68   66   41 1    
    69   67   41 1    
    70   43   42 ar   
    71   68   42 1    
    72   44   43 ar   
    73   69   43 1    
    74   70   44 1    
    75   46   45 ar   
    76   47   45 ar   
    77   48   45 ar   
@<TRIPOS>SUBSTRUCTURE
     1 NAP1581     1 GROUP   
@<TRIPOS>SET

