#    Name: 3ipq_965_1_INTS_M
#    Modification time : Tue Mar 25 17:03:17 2014

@<TRIPOS>MOLECULE
3ipq_965_1_INTS_M
  133     0     9     0     0
SMALL
NO_CHARGES


@<TRIPOS>ATOM
      1 NZ         50.2635   17.8200   -5.6020 N.4       2 LYC4        0.0000 
      2 NZ         50.1600   16.4090   -5.4030 N.4       8 LYL4        0.0000 
      3 NZ         50.7580   20.0580   -4.8440 N.4       5 LYP4        0.0000 
      4 N          50.2635   17.8200   -5.6020 N.am      1 SEC2        0.0000 
      5 N          50.1600   16.4090   -5.4030 N.am      7 SEL2        0.0000 
      6 N          50.3670   19.2310   -5.8010 N.am      4 SEP2        0.0000 
      7 N          50.7750   15.4060   -6.2265 N.am      1 SEC2        0.0000 
      8 N          51.3900   14.4030   -7.0500 N.am      4 SEP2        0.0000 
      9 NZ         51.5130   18.0900   -3.7990 N.4       2 LYC4        0.0000 
     10 NZ         51.5110   16.5760   -3.7340 N.4       8 LYL4        0.0000 
     11 N          51.5130   18.0900   -3.7990 N.am      1 SEC2        0.0000 
     12 N          51.5110   16.5760   -3.7340 N.am      7 SEL2        0.0000 
     13 N          51.5150   19.6040   -3.8640 N.am      4 SEP2        0.0000 
     14 CA         49.6970   14.3275   -1.5965 C.3       3 GLC5        0.0000 
     15 CA         49.3570   15.8960   -3.1690 C.3       9 GLL5        0.0000 
     16 CA         50.0370   12.7590   -0.0240 C.3       6 GLP5        0.0000 
     17 CA         50.5665   14.3900   -3.4625 C.3       3 GLC5        0.0000 
     18 CA         51.7760   12.8840   -3.7560 C.3       6 GLP5        0.0000 
     19 CA         48.6320   18.6960   -5.1790 C.3       3 GLC5        0.0000 
     20 CA         47.7650   17.8060   -3.4510 C.3       9 GLL5        0.0000 
     21 CA         49.4990   19.5860   -6.9070 C.3       6 GLP5        0.0000 
     22 CA         43.6675   17.4375   -2.7735 C.3       3 GLC5        0.0000 
     23 CA         45.4640   17.4320   -4.0960 C.3       9 GLL5        0.0000 
     24 CA         41.8710   17.4430   -1.4510 C.3       6 GLP5        0.0000 
     25 CA         43.2820   14.5145   -3.0605 C.3       3 GLC5        0.0000 
     26 CA         43.4280   15.4160   -4.9060 C.3       9 GLL5        0.0000 
     27 CA         43.1360   13.6130   -1.2150 C.3       6 GLP5        0.0000 
     28 CA         42.6495   16.4295   -3.1785 C.3       3 GLC5        0.0000 
     29 CA         44.5025   16.2970   -6.2570 C.3       3 GLC5        0.0000 
     30 CA         45.5770   17.1780   -7.6080 C.3       6 GLP5        0.0000 
     31 CA         42.2880   12.1880   -5.9595 C.3       3 GLC5        0.0000 
     32 CA         42.9020   14.2790   -5.7560 C.3       9 GLL5        0.0000 
     33 CA         41.6740   10.0970   -6.1630 C.3       6 GLP5        0.0000 
     34 CA         41.9970   12.9740   -7.7915 C.3       3 GLC5        0.0000 
     35 CA         41.8150   14.7240   -6.7210 C.3       9 GLL5        0.0000 
     36 CA         42.1790   11.2240   -8.8620 C.3       6 GLP5        0.0000 
     37 CA         41.3465   14.8810   -8.6780 C.3       3 GLC5        0.0000 
     38 CA         40.8780   15.0380  -10.6350 C.3       6 GLP5        0.0000 
     39 CA         40.3005   12.4350   -5.9635 C.3       3 GLC5        0.0000 
     40 CA         40.0890   14.2170   -4.9240 C.3       9 GLL5        0.0000 
     41 CA         40.5120   10.6530   -7.0030 C.3       6 GLP5        0.0000 
     42 CA         35.9305   11.1765   -4.9975 C.3       3 GLC5        0.0000 
     43 CA         37.3800   12.6770   -4.7710 C.3       9 GLL5        0.0000 
     44 CA         34.4810    9.6760   -5.2240 C.3       6 GLP5        0.0000 
     45 CA         38.9460   11.6650   -5.8870 C.3       3 GLC5        0.0000 
     46 CA         37.5990   11.0470   -3.7485 C.3       3 GLC5        0.0000 
     47 CA         37.8180    9.4170   -2.7260 C.3       6 GLP5        0.0000 
     48 CA         35.9005   12.7390   -6.2430 C.3       3 GLC5        0.0000 
     49 CA         34.4210   12.8010   -7.7150 C.3       6 GLP5        0.0000 
     50 CA         34.9510   11.0735   -3.2820 C.3       3 GLC5        0.0000 
     51 CA         35.5980   12.9670   -2.6130 C.3       9 GLL5        0.0000 
     52 CA         34.3040    9.1800   -3.9510 C.3       6 GLP5        0.0000 
     53 CA         36.7080   11.1920   -2.6695 C.3       3 GLC5        0.0000 
     54 CA         34.5915   16.7550   -1.7475 C.3       3 GLC5        0.0000 
     55 CA         34.6470   14.8240   -2.0660 C.3       9 GLL5        0.0000 
     56 CA         34.5360   18.6860   -1.4290 C.3       6 GLP5        0.0000 
     57 CA         33.2835   15.4990   -0.9090 C.3       3 GLC5        0.0000 
     58 CA         31.9200   16.1740    0.2480 C.3       6 GLP5        0.0000 
     59 CA         35.9930   15.1425   -0.5820 C.3       3 GLC5        0.0000 
     60 CA         37.3390   15.4610    0.9020 C.3       6 GLP5        0.0000 
     61 CA         34.5505   13.5295   -5.9265 C.3       3 GLC5        0.0000 
     62 CA         34.6800   14.2580   -4.1380 C.3       9 GLL5        0.0000 
     63 CA         34.9320   15.8140   -5.3860 C.3       3 GLC5        0.0000 
     64 CA         35.1840   17.3700   -6.6340 C.3       6 GLP5        0.0000 
     65 CA         33.1650   15.1240   -4.7160 C.3       3 GLC5        0.0000 
     66 CA         31.6500   15.9900   -5.2940 C.3       6 GLP5        0.0000 
     67 CA         37.9505   14.7690   -7.9240 C.3       3 GLC5        0.0000 
     68 CA         39.5430   15.7540   -6.9170 C.3       9 GLL5        0.0000 
     69 CA         36.3580   13.7840   -8.9310 C.3       6 GLP5        0.0000 
     70 CA         41.5215   18.0290   -3.5590 C.3       3 GLC5        0.0000 
     71 CA         41.1720   18.6150   -5.6670 C.3       9 GLL5        0.0000 
     72 CA         41.7795   19.7935   -8.8655 C.3       3 GLC5        0.0000 
     73 CA         40.2100   18.4840   -9.4100 C.3       9 GLL5        0.0000 
     74 CA         43.3490   21.1030   -8.3210 C.3       6 GLP5        0.0000 
     75 CA         38.0950   20.5335  -10.1510 C.3       3 GLC5        0.0000 
     76 CA         38.3160   18.7660  -10.8600 C.3       9 GLL5        0.0000 
     77 CA         37.8740   22.3010   -9.4420 C.3       6 GLP5        0.0000 
     78 CA         37.6800   16.3605  -11.3985 C.3       3 GLC5        0.0000 
     79 CA         37.5510   17.9920  -10.0040 C.3       9 GLL5        0.0000 
     80 CA         37.8090   14.7290  -12.7930 C.3       6 GLP5        0.0000 
     81 CA         37.2405   15.6115   -8.8935 C.3       3 GLC5        0.0000 
     82 CA         38.1230   17.4390   -8.8560 C.3       9 GLL5        0.0000 
     83 CA         47.5745   14.9775   -5.8680 C.3       3 GLC5        0.0000 
     84 CA         46.9690   15.5600   -3.8440 C.3       9 GLL5        0.0000 
     85 CA         48.1800   14.3950   -7.8920 C.3       6 GLP5        0.0000 
     86 CA         46.9075   16.9745   -1.9318 C.3       3 GLC5        0.0000 
     87 CA         47.9990   16.4340   -3.5080 C.3       9 GLL5        0.0000 
     88 CA         45.9330   16.8290   -0.3840 C.3       6 GLP5        0.0000 
     89 CA         47.2640   20.0962   -3.2382 C.3       3 GLC5        0.0000 
     90 CA         47.3940   22.1420   -2.8680 C.3       6 GLP5        0.0000 
     91 CA         45.9582   17.3462   -2.1575 C.3       3 GLC5        0.0000 
     92 CA         46.5030   18.2950   -3.7660 C.3       9 GLL5        0.0000 
     93 CA         45.9168   13.7590   -4.2755 C.3       3 GLC5        0.0000 
     94 CA         45.7200   16.0440   -4.1660 C.3       9 GLL5        0.0000 
     95 CA         45.4890   11.7160   -4.5460 C.3       6 GLP5        0.0000 
     96 CA         46.1388   16.3155   -2.1945 C.3       3 GLC5        0.0000 
     97 CA         44.3270   13.2817   -4.9385 C.3       3 GLC5        0.0000 
     98 CA         43.4712   15.6203   -7.3602 C.3       3 GLC5        0.0000 
     99 CA         44.5840   16.7390   -8.4820 C.3       6 GLP5        0.0000 
    100 CA         40.5245   14.4187   -2.6653 C.3       3 GLC5        0.0000 
    101 CA         41.6370   13.5640   -1.3580 C.3       6 GLP5        0.0000 
    102 CA         40.3365   16.8813   -2.2510 C.3       3 GLC5        0.0000 
    103 CA         39.2840   16.0210   -3.4390 C.3       9 GLL5        0.0000 
    104 CA         37.6890   18.2225   -1.8268 C.3       3 GLC5        0.0000 
    105 CA         38.3200   16.6180   -2.6630 C.3       9 GLL5        0.0000 
    106 CA         37.6820   20.1190   -1.0660 C.3       6 GLP5        0.0000 
    107 CA         36.1160   17.5060   -2.0082 C.3       3 GLC5        0.0000 
    108 CA         34.9064   12.6795   -1.2269 C.3       3 GLC5        0.0000 
    109 CA         34.7450   11.1510   -0.0190 C.3       6 GLP5        0.0000 
    110 CA         33.4829   13.0915   -3.1402 C.3       3 GLC5        0.0000 
    111 CA         35.3790   14.2170   -2.9940 C.3       9 GLL5        0.0000 
    112 CA         32.0920   11.9500   -2.9940 C.3       6 GLP5        0.0000 
    113 CA         40.3545   15.7410   -8.8840 C.3       3 GLC5        0.0000 
    114 CA         42.5302   20.2542   -6.0282 C.3       3 GLC5        0.0000 
    115 CA         43.9340   21.4410   -6.9150 C.3       6 GLP5        0.0000 
    116 CA         41.4115   20.0587   -2.7265 C.3       3 GLC5        0.0000 
    117 CA         41.0810   19.5200   -4.6160 C.3       9 GLL5        0.0000 
    118 CA         42.3570   20.4010   -1.0880 C.3       6 GLP5        0.0000 
    119 CA         38.4763   19.8910   -2.7277 C.3       3 GLC5        0.0000 
    120 CA         39.8510   19.9130   -4.1140 C.3       9 GLL5        0.0000 
    121 CA         39.3450   21.3944   -4.9500 C.3       3 GLC5        0.0000 
    122 CA         38.6900   19.4130   -4.6650 C.3       9 GLL5        0.0000 
    123 CA         39.1120   23.2240   -5.3850 C.3       6 GLP5        0.0000 
    124 CA         37.9044   19.8509   -6.4969 C.3       3 GLC5        0.0000 
    125 CA         36.7680   20.8410   -7.6730 C.3       6 GLP5        0.0000 
    126 CA         41.4918   19.3268  -10.9250 C.3       3 GLC5        0.0000 
    127 CA         43.0530   19.9100  -11.8640 C.3       6 GLP5        0.0000 
    128 CA         39.6382   20.4062   -9.5450 C.3       3 GLC5        0.0000 
    129 CA         39.6510   19.0030  -10.5620 C.3       9 GLL5        0.0000 
    130 CA         39.3460   22.0690   -9.1040 C.3       6 GLP5        0.0000 
    131 CA         36.3678   18.9525  -11.2155 C.3       3 GLC5        0.0000 
    132 CA         34.8020   19.5260  -11.9990 C.3       6 GLP5        0.0000 
    133 CA         37.4686   19.3096   -8.5136 C.3       3 GLC5        0.0000 
@<TRIPOS>BOND
@<TRIPOS>SUBSTRUCTURE
     1 SEC2        4 GROUP        1 X    SEC  0     ROOT SEC X 2
     2 LYC4        1 GROUP        1 X    LYC  0     **** LYC X 4
     3 GLC5       14 GROUP        1 X    GLC  0     **** GLC X 6
     4 SEP2        6 GROUP        1 Y    SEP  0     ROOT SEP Y 9
     5 LYP4        3 GROUP        1 Y    LYP  0     **** LYP Y 11
     6 GLP5       16 GROUP        1 Y    GLP  0     **** GLP Y 13
     7 SEL2        5 GROUP        1 Z    SEL  0     ROOT SEL Z 16
     8 LYL4        2 GROUP        1 Z    LYL  0     **** LYL Z 18
     9 GLL5       15 GROUP        1 Z    GLL  0     **** GLL Z 20
@<TRIPOS>SET

