#    Name: 3ipq_965_1_ligand
#    Modification time : Tue Mar 25 17:03:17 2014

@<TRIPOS>MOLECULE
3ipq_965_1_ligand
   74    77     1     0     0
SMALL
NO_CHARGES


@<TRIPOS>ATOM
      1 O37        50.1600   16.4090   -5.4030 O.co2     1 965801      0.0000 
      2 C35        50.4010   16.3250   -4.1820 C.2       1 965801      0.0000 
      3 O36        51.5110   16.5760   -3.7340 O.co2     1 965801      0.0000 
      4 C34        49.3570   15.8960   -3.1690 C.3       1 965801      0.0000 
      5 C32        47.9990   16.4340   -3.5080 C.ar      1 965801      0.0000 
      6 C31        47.7650   17.8060   -3.4510 C.ar      1 965801      0.0000 
      7 C30        46.5030   18.2950   -3.7660 C.ar      1 965801      0.0000 
      8 C29        45.4640   17.4320   -4.0960 C.ar      1 965801      0.0000 
      9 C28        45.7200   16.0440   -4.1660 C.ar      1 965801      0.0000 
     10 O27        44.7580   15.1300   -4.4810 O.3       1 965801      0.0000 
     11 C26        43.4280   15.4160   -4.9060 C.3       1 965801      0.0000 
     12 C25        42.9020   14.2790   -5.7560 C.3       1 965801      0.0000 
     13 C17        41.8150   14.7240   -6.7210 C.3       1 965801      0.0000 
     14 N09        40.5000   14.9460   -6.1380 N.4       1 965801      0.0000 
     15 C16        40.0890   14.2170   -4.9240 C.3       1 965801      0.0000 
     16 C18        38.9910   14.8350   -4.0880 C.ar      1 965801      0.0000 
     17 C23        39.2840   16.0210   -3.4390 C.ar      1 965801      0.0000 
     18 C22        38.3200   16.6180   -2.6630 C.ar      1 965801      0.0000 
     19 C21        37.0720   16.0340   -2.5120 C.ar      1 965801      0.0000 
     20 C20        36.7550   14.8450   -3.1620 C.ar      1 965801      0.0000 
     21 C19        37.7360   14.2410   -3.9460 C.ar      1 965801      0.0000 
     22 CL4        37.3800   12.6770   -4.7710 Cl        1 965801      0.0000 
     23 C39        35.3790   14.2170   -2.9940 C.3       1 965801      0.0000 
     24 F41        35.5980   12.9670   -2.6130 F         1 965801      0.0000 
     25 F40        34.6470   14.8240   -2.0660 F         1 965801      0.0000 
     26 F42        34.6800   14.2580   -4.1380 F         1 965801      0.0000 
     27 C08        39.5430   15.7540   -6.9170 C.3       1 965801      0.0000 
     28 C07        40.1190   17.1340   -7.3490 C.3       1 965801      0.0000 
     29 C01        40.0100   18.1060   -6.2230 C.3       1 965801      0.0000 
     30 C02        41.1720   18.6150   -5.6670 C.3       1 965801      0.0000 
     31 C03        41.0810   19.5200   -4.6160 C.2       1 965801      0.0000 
     32 C04        39.8510   19.9130   -4.1140 C.2       1 965801      0.0000 
     33 C05        38.6900   19.4130   -4.6650 C.2       1 965801      0.0000 
     34 C06        38.7730   18.5110   -5.7300 C.2       1 965801      0.0000 
     35 C10        39.4520   17.6900   -8.5530 C.ar      1 965801      0.0000 
     36 C15        40.2100   18.4840   -9.4100 C.ar      1 965801      0.0000 
     37 C14        39.6510   19.0030  -10.5620 C.ar      1 965801      0.0000 
     38 C13        38.3160   18.7660  -10.8600 C.ar      1 965801      0.0000 
     39 C12        37.5510   17.9920  -10.0040 C.ar      1 965801      0.0000 
     40 C11        38.1230   17.4390   -8.8560 C.ar      1 965801      0.0000 
     41 C33        46.9690   15.5600   -3.8440 C.ar      1 965801      0.0000 
     42 H          49.6571   16.2511   -2.1752 H         1 965801      0.0000 
     43 H          49.3219   14.7999   -3.1353 H         1 965801      0.0000 
     44 H          48.5159   18.4461   -3.1797 H         1 965801      0.0000 
     45 H          46.3337   19.3160   -3.7549 H         1 965801      0.0000 
     46 H          44.5282   17.7849   -4.2864 H         1 965801      0.0000 
     47 H          43.3836   16.3364   -5.5042 H         1 965801      0.0000 
     48 H          42.7491   15.5441   -4.0518 H         1 965801      0.0000 
     49 H          42.5003   13.4927   -5.1017 H         1 965801      0.0000 
     50 H          43.7312   13.8401   -6.3281 H         1 965801      0.0000 
     51 H          41.7520   13.9603   -7.5376 H         1 965801      0.0000 
     52 H          42.1736   15.6540   -7.2315 H         1 965801      0.0000 
     53 H          40.9397   16.0540   -5.4143 H         1 965801      0.0000 
     54 H          40.9830   14.0594   -4.2612 H         1 965801      0.0000 
     55 H          39.7691   13.1761   -5.2026 H         1 965801      0.0000 
     56 H          40.2132   16.4472   -3.5388 H         1 965801      0.0000 
     57 H          38.5228   17.5142   -2.1834 H         1 965801      0.0000 
     58 H          36.3638   16.4870   -1.9075 H         1 965801      0.0000 
     59 H          38.6284   15.9451   -6.3333 H         1 965801      0.0000 
     60 H          39.2375   15.2217   -7.8319 H         1 965801      0.0000 
     61 H          41.1824   16.9835   -7.5655 H         1 965801      0.0000 
     62 H          40.0391   17.0024   -5.2907 H         1 965801      0.0000 
     63 H          41.8200   19.0786   -6.5048 H         1 965801      0.0000 
     64 H          41.8535   17.7375   -5.3471 H         1 965801      0.0000 
     65 H          41.9497   19.9065   -4.2019 H         1 965801      0.0000 
     66 H          39.8067   20.5793   -3.3285 H         1 965801      0.0000 
     67 H          37.7739   19.6935   -4.3047 H         1 965801      0.0000 
     68 H          37.9068   18.1434   -6.1529 H         1 965801      0.0000 
     69 H          41.1965   18.6835   -9.1785 H         1 965801      0.0000 
     70 H          40.2257   19.5694  -11.2053 H         1 965801      0.0000 
     71 H          37.8998   19.1631  -11.7107 H         1 965801      0.0000 
     72 H          36.5567   17.8203  -10.2096 H         1 965801      0.0000 
     73 H          37.5537   16.8459   -8.2383 H         1 965801      0.0000 
     74 H          47.1488   14.5425   -3.8501 H         1 965801      0.0000 
@<TRIPOS>BOND
     1    2    1 ar   
     2    3    2 ar   
     3    4    2 1    
     4    5    4 1    
     5   42    4 1    
     6   43    4 1    
     7    6    5 ar   
     8   41    5 ar   
     9    7    6 ar   
    10   44    6 1    
    11    8    7 ar   
    12   45    7 1    
    13    9    8 ar   
    14   46    8 1    
    15   10    9 1    
    16   41    9 ar   
    17   11   10 1    
    18   12   11 1    
    19   47   11 1    
    20   48   11 1    
    21   13   12 1    
    22   49   12 1    
    23   50   12 1    
    24   14   13 1    
    25   51   13 1    
    26   52   13 1    
    27   15   14 1    
    28   27   14 1    
    29   53   14 1    
    30   16   15 1    
    31   54   15 1    
    32   55   15 1    
    33   17   16 ar   
    34   21   16 ar   
    35   18   17 ar   
    36   56   17 1    
    37   19   18 ar   
    38   57   18 1    
    39   20   19 ar   
    40   58   19 1    
    41   21   20 ar   
    42   23   20 1    
    43   22   21 1    
    44   24   23 1    
    45   25   23 1    
    46   26   23 1    
    47   28   27 1    
    48   59   27 1    
    49   60   27 1    
    50   29   28 1    
    51   35   28 1    
    52   61   28 1    
    53   30   29 1    
    54   34   29 1    
    55   62   29 1    
    56   31   30 1    
    57   63   30 1    
    58   64   30 1    
    59   32   31 2    
    60   65   31 1    
    61   33   32 1    
    62   66   32 1    
    63   34   33 2    
    64   67   33 1    
    65   68   34 1    
    66   36   35 ar   
    67   40   35 ar   
    68   37   36 ar   
    69   69   36 1    
    70   38   37 ar   
    71   70   37 1    
    72   39   38 ar   
    73   71   38 1    
    74   40   39 ar   
    75   72   39 1    
    76   73   40 1    
    77   74   41 1    
@<TRIPOS>SUBSTRUCTURE
     1 965801      1 GROUP   
@<TRIPOS>SET

