#    Name: 2dgn_DOI_1_INTS_M
#    Modification time : Tue Mar 25 10:08:32 2014

@<TRIPOS>MOLECULE
2dgn_DOI_1_INTS_M
   68     0    15     0     0
SMALL
NO_CHARGES


@<TRIPOS>ATOM
      1 N          58.3105   66.1435   39.1090 N.am      2 SEC2        0.0000 
      2 N          59.3470   65.9790   40.0690 N.am     12 SEL2        0.0000 
      3 N          57.2740   66.3080   38.1490 N.am      7 SEP2        0.0000 
      4 N          61.8575   64.3155   41.3445 N.am      2 SEC2        0.0000 
      5 N          61.7890   65.5190   40.4320 N.am     12 SEL2        0.0000 
      6 N          61.9260   63.1120   42.2570 N.am      7 SEP2        0.0000 
      7 N          62.9140   65.3885   41.0345 N.am      2 SEC2        0.0000 
      8 N          64.0390   65.2580   41.6370 N.am      7 SEP2        0.0000 
      9 Zn         61.7455   56.1955   37.1120 Zn        4 ZIC7        0.0000 
     10 Zn         61.9560   56.9680   37.7440 Zn       14 ZIL7        0.0000 
     11 Zn         61.5350   55.4230   36.4800 Zn        9 ZIP7        0.0000 
     12 N          60.9200   56.6340   38.7365 N.am      2 SEC2        0.0000 
     13 N          61.9560   56.9680   37.7440 N.am     12 SEL2        0.0000 
     14 N          59.8840   56.3000   39.7290 N.am      7 SEP2        0.0000 
     15 NZ         65.0690   56.3460   38.5475 N.4       3 LYC4        0.0000 
     16 NZ         63.6680   57.0070   39.6100 N.4      13 LYL4        0.0000 
     17 NZ         66.4700   55.6850   37.4850 N.4       8 LYP4        0.0000 
     18 N          63.6880   55.8430   40.1415 N.am      2 SEC2        0.0000 
     19 N          63.6680   57.0070   39.6100 N.am     12 SEL2        0.0000 
     20 N          63.7080   54.6790   40.6730 N.am      7 SEP2        0.0000 
     21 N          64.8075   57.8355   40.0095 N.am      2 SEC2        0.0000 
     22 N          65.9470   58.6640   40.4090 N.am      7 SEP2        0.0000 
     23 NZ         65.4545   56.4325   37.3365 N.4       3 LYC4        0.0000 
     24 NZ         64.4390   57.1800   37.1880 N.4      13 LYL4        0.0000 
     25 N          64.6475   56.8770   35.7725 N.am      2 SEC2        0.0000 
     26 N          64.4390   57.1800   37.1880 N.am     12 SEL2        0.0000 
     27 N          64.8560   56.5740   34.3570 N.am      7 SEP2        0.0000 
     28 N          65.4545   56.4325   37.3365 N.am      2 SEC2        0.0000 
     29 N          66.4700   55.6850   37.4850 N.am      7 SEP2        0.0000 
     30 CA         60.2000   67.9090   37.5560 C.3       5 GLC5        0.0000 
     31 CA         62.2580   67.4730   37.9650 C.3      15 GLL5        0.0000 
     32 CA         58.1420   68.3450   37.1470 C.3      10 GLP5        0.0000 
     33 CA         64.6390   65.8490   36.0350 C.3       5 GLC5        0.0000 
     34 CA         62.8090   66.7160   36.7760 C.3      15 GLL5        0.0000 
     35 CA         66.4690   64.9820   35.2940 C.3      10 GLP5        0.0000 
     36 CA         64.7650   67.7115   37.0810 C.3       5 GLC5        0.0000 
     37 CA         66.7210   68.7070   37.3860 C.3      10 GLP5        0.0000 
     38 CA         64.3785   63.5815   36.2380 C.3       5 GLC5        0.0000 
     39 CA         62.7550   64.4500   36.2300 C.3      15 GLL5        0.0000 
     40 CA         66.0020   62.7130   36.2460 C.3      10 GLP5        0.0000 
     41 CA         64.5365   59.3885   34.8635 C.3       5 GLC5        0.0000 
     42 CA         62.8340   60.2660   35.0960 C.3      15 GLL5        0.0000 
     43 CA         66.2390   58.5110   34.6310 C.3      10 GLP5        0.0000 
     44 CA         64.4180   61.4895   35.6710 C.3       5 GLC5        0.0000 
     45 CA         61.7130   60.6545   33.7025 C.3       5 GLC5        0.0000 
     46 CA         60.5920   61.0430   32.3090 C.3      10 GLP5        0.0000 
     47 N          63.2435   61.6445   39.8585 N.am      2 SEC2        0.0000 
     48 N          62.4540   61.8850   38.7470 N.am     12 SEL2        0.0000 
     49 N          64.0330   61.4040   40.9700 N.am      7 SEP2        0.0000 
     50 CA         60.9840   63.8120   33.8750 C.3       5 GLC5        0.0000 
     51 CA         61.5610   65.0740   35.5130 C.3      15 GLL5        0.0000 
     52 CA         60.4070   62.5500   32.2370 C.3      10 GLP5        0.0000 
     53 CA         60.0080   67.4550   36.3620 C.3       5 GLC5        0.0000 
     54 CA         61.8740   66.5650   35.5770 C.3      15 GLL5        0.0000 
     55 CA         61.3270   66.7035   33.4390 C.3       5 GLC5        0.0000 
     56 CA         60.7800   66.8420   31.3010 C.3      10 GLP5        0.0000 
     57 O          62.9645   68.0570   33.9295 O.2       1 ALC1        0.0000 
     58 O          62.4820   67.0330   34.3780 O.2      11 ALL1        0.0000 
     59 O          63.4470   69.0810   33.4810 O.2       6 ALP1        0.0000 
     60 CA         63.8547   67.0643   38.9017 C.3       5 GLC5        0.0000 
     61 CA         65.1760   67.0340   40.4330 C.3      10 GLP5        0.0000 
     62 CA         64.4588   60.0823   38.4453 C.3       5 GLC5        0.0000 
     63 CA         62.6090   61.1440   37.5840 C.3      15 GLL5        0.0000 
     64 CA         66.2050   59.7060   39.4200 C.3      10 GLP5        0.0000 
     65 CA         64.3501   61.6882   36.7189 C.3       5 GLC5        0.0000 
     66 CA         62.8160   59.7730   37.3570 C.3      15 GLL5        0.0000 
     67 CA         62.0804   68.8954   36.2629 C.3       5 GLC5        0.0000 
     68 CA         61.9570   70.9610   36.0520 C.3      10 GLP5        0.0000 
@<TRIPOS>BOND
@<TRIPOS>SUBSTRUCTURE
     1 ALC1       57 GROUP        1 X    ALC  0     ROOT ALC X 1
     2 SEC2        1 GROUP        1 X    SEC  0     **** SEC X 2
     3 LYC4       15 GROUP        1 X    LYC  0     **** LYC X 4
     4 ZIC7        9 GROUP        1 X    ZIC  0     **** ZIC X 5
     5 GLC5       30 GROUP        1 X    GLC  0     **** GLC X 6
     6 ALP1       59 GROUP        1 Y    ALP  0     ROOT ALP Y 8
     7 SEP2        3 GROUP        1 Y    SEP  0     **** SEP Y 9
     8 LYP4       17 GROUP        1 Y    LYP  0     **** LYP Y 11
     9 ZIP7       11 GROUP        1 Y    ZIP  0     **** ZIP Y 12
    10 GLP5       32 GROUP        1 Y    GLP  0     **** GLP Y 13
    11 ALL1       58 GROUP        1 Z    ALL  0     ROOT ALL Z 15
    12 SEL2        2 GROUP        1 Z    SEL  0     **** SEL Z 16
    13 LYL4       16 GROUP        1 Z    LYL  0     **** LYL Z 18
    14 ZIL7       10 GROUP        1 Z    ZIL  0     **** ZIL Z 19
    15 GLL5       31 GROUP        1 Z    GLL  0     **** GLL Z 20
@<TRIPOS>SET

