#    Name: 2dgn_DOI_1_ligand
#    Modification time : Tue Mar 25 10:08:33 2014

@<TRIPOS>MOLECULE
2dgn_DOI_1_ligand
   36    38     1     0     0
SMALL
NO_CHARGES


@<TRIPOS>ATOM
      1 PA         60.7580   66.5450   39.9990 P.3       1 DOI1451     0.0000 
      2 O1A        59.3470   65.9790   40.0690 O.co2     1 DOI1451     0.0000 
      3 O2A        60.8910   67.8680   40.7330 O.co2     1 DOI1451     0.0000 
      4 O3A        61.7890   65.5190   40.4320 O.co2     1 DOI1451     0.0000 
      5 O5'        61.0290   66.8630   38.4190 O.3       1 DOI1451     0.0000 
      6 P6         63.3280   57.4710   38.1970 P.3       1 DOI1451     0.0000 
      7 O16        61.9560   56.9680   37.7440 O.co2     1 DOI1451     0.0000 
      8 O26        63.6680   57.0070   39.6100 O.co2     1 DOI1451     0.0000 
      9 O36        64.4390   57.1800   37.1880 O.co2     1 DOI1451     0.0000 
     10 C5'        62.2580   67.4730   37.9650 C.3       1 DOI1451     0.0000 
     11 C4'        62.8090   66.7160   36.7760 C.3       1 DOI1451     0.0000 
     12 O4'        63.1910   65.3860   37.1860 O.3       1 DOI1451     0.0000 
     13 C1'        62.7550   64.4500   36.2300 C.3       1 DOI1451     0.0000 
     14 N9         62.3790   63.2380   36.9500 N.pl3     1 DOI1451     0.0000 
     15 C4         62.5520   61.9640   36.4690 C.ar      1 DOI1451     0.0000 
     16 N3         62.6560   61.5850   35.1830 N.ar      1 DOI1451     0.0000 
     17 C2         62.8340   60.2660   35.0960 C.ar      1 DOI1451     0.0000 
     18 N1         62.9170   59.3580   36.0740 N.ar      1 DOI1451     0.0000 
     19 C6         62.8160   59.7730   37.3570 C.ar      1 DOI1451     0.0000 
     20 O6         63.2180   59.0840   38.2940 O.3       1 DOI1451     0.0000 
     21 C5         62.6090   61.1440   37.5840 C.ar      1 DOI1451     0.0000 
     22 N7         62.4540   61.8850   38.7470 N.2       1 DOI1451     0.0000 
     23 C8         62.3200   63.1150   38.3190 C.2       1 DOI1451     0.0000 
     24 C2'        61.5610   65.0740   35.5130 C.3       1 DOI1451     0.0000 
     25 C3'        61.8740   66.5650   35.5770 C.3       1 DOI1451     0.0000 
     26 O3'        62.4820   67.0330   34.3780 O.3       1 DOI1451     0.0000 
     27 H          63.0165   67.4699   38.7578 H         1 DOI1451     0.0000 
     28 H          62.0937   68.5155   37.6646 H         1 DOI1451     0.0000 
     29 H          63.7136   67.2365   36.4220 H         1 DOI1451     0.0000 
     30 H          63.5151   64.2466   35.5113 H         1 DOI1451     0.0000 
     31 H          62.9265   59.8637   34.0657 H         1 DOI1451     0.0000 
     32 H          62.1852   63.9176   38.9071 H         1 DOI1451     0.0000 
     33 H          60.6734   64.8691   36.0483 H         1 DOI1451     0.0000 
     34 H          61.5390   64.7536   34.5064 H         1 DOI1451     0.0000 
     35 H          60.9605   67.0803   35.8132 H         1 DOI1451     0.0000 
     36 H          62.7506   67.9759   34.5751 H         1 DOI1451     0.0000 
@<TRIPOS>BOND
     1    2    1 ar   
     2    3    1 ar   
     3    4    1 ar   
     4    5    1 1    
     5   10    5 1    
     6    7    6 ar   
     7    8    6 ar   
     8    9    6 ar   
     9   20    6 1    
    10   11   10 1    
    11   27   10 1    
    12   28   10 1    
    13   12   11 1    
    14   25   11 1    
    15   29   11 1    
    16   13   12 1    
    17   14   13 1    
    18   24   13 1    
    19   30   13 1    
    20   15   14 1    
    21   23   14 1    
    22   16   15 ar   
    23   21   15 ar   
    24   17   16 ar   
    25   18   17 ar   
    26   31   17 1    
    27   19   18 ar   
    28   20   19 1    
    29   21   19 ar   
    30   22   21 1    
    31   23   22 2    
    32   32   23 1    
    33   25   24 1    
    34   33   24 1    
    35   34   24 1    
    36   26   25 1    
    37   35   25 1    
    38   36   26 1    
@<TRIPOS>SUBSTRUCTURE
     1 DOI1451     1 GROUP   
@<TRIPOS>SET

