#    Name: 2j4k_U5P_6_INTS_M
#    Modification time : Tue Mar 25 19:15:00 2014

@<TRIPOS>MOLECULE
2j4k_U5P_6_INTS_M
   46     0     9     0     0
SMALL
NO_CHARGES


@<TRIPOS>ATOM
      1 O           8.7920  -15.4200    0.6230 O.2       1 ALC1        0.0000 
      2 O           8.9710  -15.4450   -0.6730 O.2       7 ALL1        0.0000 
      3 O           8.6130  -15.3950    1.9190 O.2       4 ALP1        0.0000 
      4 CA          7.4335  -12.4070   -2.2905 C.3       3 GLC5        0.0000 
      5 CA          8.7410  -14.0140   -2.7670 C.3       9 GLL5        0.0000 
      6 CA          6.1260  -10.8000   -1.8140 C.3       6 GLP5        0.0000 
      7 N           8.6350  -12.0340   -0.3270 N.am      2 SEC2        0.0000 
      8 N           7.7710  -13.1400   -0.5290 N.am      8 SEL2        0.0000 
      9 N           9.4990  -10.9280   -0.1250 N.am      5 SEP2        0.0000 
     10 N           8.5745  -12.9160    0.9070 N.am      2 SEC2        0.0000 
     11 N           9.3780  -12.6920    2.3430 N.am      5 SEP2        0.0000 
     12 N           6.7700  -13.0335    0.6125 N.am      2 SEC2        0.0000 
     13 N           5.7690  -12.9270    1.7540 N.am      5 SEP2        0.0000 
     14 CA         12.4455  -17.2215   -4.3870 C.3       3 GLC5        0.0000 
     15 CA         10.6880  -17.4010   -3.5640 C.3       9 GLL5        0.0000 
     16 CA         14.2030  -17.0420   -5.2100 C.3       6 GLP5        0.0000 
     17 CA         11.4840  -15.8635   -2.4315 C.3       3 GLC5        0.0000 
     18 CA         12.2800  -14.3260   -1.2990 C.3       6 GLP5        0.0000 
     19 O          10.7830  -20.2780   -2.3395 O.2       1 ALC1        0.0000 
     20 O          10.7750  -19.8670   -3.5150 O.2       7 ALL1        0.0000 
     21 O          10.7910  -20.6890   -1.1640 O.2       4 ALP1        0.0000 
     22 CA         12.2200  -17.4275   -5.5330 C.3       3 GLC5        0.0000 
     23 CA         10.2370  -17.8130   -5.8560 C.3       9 GLL5        0.0000 
     24 CA         10.7865  -15.7340   -8.4875 C.3       3 GLC5        0.0000 
     25 CA         10.0000  -16.9760   -7.0370 C.3       9 GLL5        0.0000 
     26 CA         11.5730  -14.4920   -9.9380 C.3       6 GLP5        0.0000 
     27 CA         11.8010  -17.1805   -8.0825 C.3       3 GLC5        0.0000 
     28 CA         13.6020  -17.3850   -9.1280 C.3       6 GLP5        0.0000 
     29 N           6.0745  -14.7775   -5.9865 N.am      2 SEC2        0.0000 
     30 N           6.6050  -15.3450   -7.1960 N.am      8 SEL2        0.0000 
     31 N           5.5440  -14.2100   -4.7770 N.am      5 SEP2        0.0000 
     32 N           6.2250  -14.1295   -7.2590 N.am      2 SEC2        0.0000 
     33 N           5.8450  -12.9140   -7.3220 N.am      5 SEP2        0.0000 
     34 N           9.2275  -14.8510   -9.4430 N.am      2 SEC2        0.0000 
     35 N           8.2260  -15.7350   -9.0850 N.am      8 SEL2        0.0000 
     36 N          10.2290  -13.9670   -9.8010 N.am      5 SEP2        0.0000 
     37 CA         10.6800  -14.4220   -2.1972 C.3       3 GLC5        0.0000 
     38 CA          9.4190  -15.0220   -3.4240 C.3       9 GLL5        0.0000 
     39 CA          9.4670  -12.6985   -2.8148 C.3       3 GLC5        0.0000 
     40 CA          9.8540  -10.8790   -2.5340 C.3       6 GLP5        0.0000 
     41 CA          7.1835  -15.4075   -3.3122 C.3       3 GLC5        0.0000 
     42 CA          5.2870  -16.2970   -3.5290 C.3       6 GLP5        0.0000 
     43 CA          8.4005  -13.4835   -4.4852 C.3       3 GLC5        0.0000 
     44 CA          7.7210  -12.4490   -5.8750 C.3       6 GLP5        0.0000 
     45 CA         11.7513  -18.7370   -2.2862 C.3       3 GLC5        0.0000 
     46 CA         13.2350  -19.3910   -0.9290 C.3       6 GLP5        0.0000 
@<TRIPOS>BOND
@<TRIPOS>SUBSTRUCTURE
     1 ALC1        1 GROUP        1 X    ALC  0     ROOT ALC X 1
     2 SEC2        7 GROUP        1 X    SEC  0     **** SEC X 2
     3 GLC5        4 GROUP        1 X    GLC  0     **** GLC X 6
     4 ALP1        3 GROUP        1 Y    ALP  0     ROOT ALP Y 8
     5 SEP2        9 GROUP        1 Y    SEP  0     **** SEP Y 9
     6 GLP5        6 GROUP        1 Y    GLP  0     **** GLP Y 13
     7 ALL1        2 GROUP        1 Z    ALL  0     ROOT ALL Z 15
     8 SEL2        8 GROUP        1 Z    SEL  0     **** SEL Z 16
     9 GLL5        5 GROUP        1 Z    GLL  0     **** GLL Z 20
@<TRIPOS>SET

