#    Name: 2j4k_U5P_6_ligand
#    Modification time : Tue Mar 25 19:15:00 2014

@<TRIPOS>MOLECULE
2j4k_U5P_6_ligand
   32    33     1     0     0
SMALL
NO_CHARGES


@<TRIPOS>ATOM
      1 N1          9.9120  -16.2820   -2.7860 N.am      1 U5P227      0.0000 
      2 C2          9.6620  -16.5010   -1.3140 C.2       1 U5P227      0.0000 
      3 N3          8.9710  -15.4450   -0.6730 N.am      1 U5P227      0.0000 
      4 C4          8.5020  -14.2330   -1.2850 C.2       1 U5P227      0.0000 
      5 C5          8.7410  -14.0140   -2.7670 C.2       1 U5P227      0.0000 
      6 C6          9.4190  -15.0220   -3.4240 C.2       1 U5P227      0.0000 
      7 O2          9.9980  -17.4620   -0.6750 O.2       1 U5P227      0.0000 
      8 O4          7.7710  -13.1400   -0.5290 O.2       1 U5P227      0.0000 
      9 C1'        10.6880  -17.4010   -3.5640 C.3       1 U5P227      0.0000 
     10 C2'         9.8470  -18.7650   -3.7230 C.3       1 U5P227      0.0000 
     11 O2'        10.7750  -19.8670   -3.5150 O.3       1 U5P227      0.0000 
     12 C3'         9.0680  -18.3730   -5.0060 C.3       1 U5P227      0.0000 
     13 C4'        10.2370  -17.8130   -5.8560 C.3       1 U5P227      0.0000 
     14 O3'         8.5040  -19.4870   -5.6870 O.3       1 U5P227      0.0000 
     15 O4'        10.8450  -16.9500   -4.9730 O.3       1 U5P227      0.0000 
     16 C5'        10.0000  -16.9760   -7.0370 C.3       1 U5P227      0.0000 
     17 O5'         8.8260  -16.2440   -6.7860 O.3       1 U5P227      0.0000 
     18 P           7.6620  -16.1780   -7.7780 P.3       1 U5P227      0.0000 
     19 O1P         6.6050  -15.3450   -7.1960 O.co2     1 U5P227      0.0000 
     20 O2P         8.2260  -15.7350   -9.0850 O.co2     1 U5P227      0.0000 
     21 O3P         7.2220  -17.7000   -7.8870 O.co2     1 U5P227      0.0000 
     22 H           8.7752  -15.5523    0.3679 H         1 U5P227      0.0000 
     23 H           8.4085  -13.1851   -3.1731 H         1 U5P227      0.0000 
     24 H           9.6262  -14.9401   -4.4503 H         1 U5P227      0.0000 
     25 H          11.5979  -17.6144   -3.1317 H         1 U5P227      0.0000 
     26 H           9.1305  -18.6471   -2.8746 H         1 U5P227      0.0000 
     27 H           8.4293  -17.5879   -4.7876 H         1 U5P227      0.0000 
     28 H          10.9125  -18.6227   -6.0759 H         1 U5P227      0.0000 
     29 H           9.8961  -17.6167   -7.9165 H         1 U5P227      0.0000 
     30 H          10.8602  -16.3193   -7.1905 H         1 U5P227      0.0000 
     31 H          11.0623  -19.7866   -2.5606 H         1 U5P227      0.0000 
     32 H           7.9894  -19.0916   -6.4479 H         1 U5P227      0.0000 
@<TRIPOS>BOND
     1    2    1 1    
     2    6    1 1    
     3    9    1 1    
     4    3    2 1    
     5    7    2 2    
     6    4    3 1    
     7   22    3 1    
     8    5    4 1    
     9    8    4 2    
    10    6    5 2    
    11   23    5 1    
    12   24    6 1    
    13   10    9 1    
    14   15    9 1    
    15   25    9 1    
    16   11   10 1    
    17   12   10 1    
    18   26   10 1    
    19   31   11 1    
    20   13   12 1    
    21   14   12 1    
    22   27   12 1    
    23   15   13 1    
    24   16   13 1    
    25   28   13 1    
    26   32   14 1    
    27   17   16 1    
    28   29   16 1    
    29   30   16 1    
    30   18   17 1    
    31   19   18 ar   
    32   20   18 ar   
    33   21   18 ar   
@<TRIPOS>SUBSTRUCTURE
     1 U5P227      1 GROUP   
@<TRIPOS>SET

