#    Name: 4jib_1L6_3_INTS_M
#    Modification time : Tue Mar 25 05:53:56 2014

@<TRIPOS>MOLECULE
4jib_1L6_3_INTS_M
   64     0     9     0     0
SMALL
NO_CHARGES


@<TRIPOS>ATOM
      1 CA         39.0475   30.2475   38.7360 C.3       3 GLC5        0.0000 
      2 CA         38.8470   32.1450   39.3050 C.3       9 GLL5        0.0000 
      3 CA         39.2480   28.3500   38.1670 C.3       6 GLP5        0.0000 
      4 CA         36.9905   36.7935   40.8305 C.3       3 GLC5        0.0000 
      5 CA         36.8270   35.3820   39.0960 C.3       9 GLL5        0.0000 
      6 CA         37.1540   38.2050   42.5650 C.3       6 GLP5        0.0000 
      7 CA         31.6615   24.3550   41.7765 C.3       3 GLC5        0.0000 
      8 CA         31.7640   26.1950   41.6860 C.3       9 GLL5        0.0000 
      9 CA         31.5590   22.5150   41.8670 C.3       6 GLP5        0.0000 
     10 CA         32.3960   31.1665   43.1800 C.3       3 GLC5        0.0000 
     11 CA         34.4260   30.9710   43.5900 C.3       9 GLL5        0.0000 
     12 CA         30.3660   31.3620   42.7700 C.3       6 GLP5        0.0000 
     13 CA         40.6470   37.8705   42.3820 C.3       3 GLC5        0.0000 
     14 CA         40.2570   36.2360   43.1660 C.3       9 GLL5        0.0000 
     15 CA         41.0370   39.5050   41.5980 C.3       6 GLP5        0.0000 
     16 CA         38.7055   37.2205   42.8655 C.3       3 GLC5        0.0000 
     17 CA         42.2695   34.4370   45.5165 C.3       3 GLC5        0.0000 
     18 CA         41.2460   35.3380   43.9190 C.3       9 GLL5        0.0000 
     19 CA         43.2930   33.5360   47.1140 C.3       6 GLP5        0.0000 
     20 CA         40.6190   33.5065   44.2110 C.3       3 GLC5        0.0000 
     21 CA         39.9920   31.6750   44.5030 C.3       6 GLP5        0.0000 
     22 N          41.9860   35.7380   45.9895 N.am      2 SEC2        0.0000 
     23 N          42.2430   36.1010   44.5720 N.am      8 SEL2        0.0000 
     24 N          41.7290   35.3750   47.4070 N.am      5 SEP2        0.0000 
     25 O          43.2775   36.6055   43.7810 O.2       1 ALC1        0.0000 
     26 O          42.2430   36.1010   44.5720 O.2       7 ALL1        0.0000 
     27 O          44.3120   37.1100   42.9900 O.2       4 ALP1        0.0000 
     28 CA         35.2140   35.4900   43.9515 C.3       3 GLC5        0.0000 
     29 CA         35.6040   33.7160   43.5170 C.3       9 GLL5        0.0000 
     30 CA         34.8240   37.2640   44.3860 C.3       6 GLP5        0.0000 
     31 CA         34.2820   34.4045   42.5950 C.3       3 GLC5        0.0000 
     32 CA         32.9600   35.0930   41.6730 C.3       6 GLP5        0.0000 
     33 CA         36.8055   32.0135   44.0240 C.3       3 GLC5        0.0000 
     34 CA         38.0070   30.3110   44.5310 C.3       6 GLP5        0.0000 
     35 CA         36.0970   27.6965   41.5325 C.3       3 GLC5        0.0000 
     36 CA         34.6700   29.3040   41.4020 C.3       9 GLL5        0.0000 
     37 CA         37.5240   26.0890   41.6630 C.3       6 GLP5        0.0000 
     38 CA         33.7450   26.5040   46.7495 C.3       3 GLC5        0.0000 
     39 CA         33.9930   26.6830   44.5870 C.3       9 GLL5        0.0000 
     40 CA         33.4970   26.3250   48.9120 C.3       6 GLP5        0.0000 
     41 CA         35.4185   27.5725   45.7275 C.3       3 GLC5        0.0000 
     42 CA         36.8440   28.4620   46.8680 C.3       6 GLP5        0.0000 
     43 CA         35.9210   26.5170   43.8390 C.3       3 GLC5        0.0000 
     44 CA         37.8490   26.3510   43.0910 C.3       6 GLP5        0.0000 
     45 N          31.3310   24.6720   43.2825 N.am      2 SEC2        0.0000 
     46 N          32.3110   25.7830   42.8690 N.am      8 SEL2        0.0000 
     47 N          30.3510   23.5610   43.6960 N.am      5 SEP2        0.0000 
     48 CA         40.8384   33.1519   40.1120 C.3       3 GLC5        0.0000 
     49 CA         42.3420   32.7420   41.3090 C.3       6 GLP5        0.0000 
     50 CA         31.9225   29.4845   43.1178 C.3       3 GLC5        0.0000 
     51 CA         33.8280   28.8800   42.4320 C.3       9 GLL5        0.0000 
     52 CA         30.0670   29.6460   43.2610 C.3       6 GLP5        0.0000 
     53 CA         35.3855   30.1722   45.0963 C.3       3 GLC5        0.0000 
     54 CA         33.7280   29.7660   43.5170 C.3       9 GLL5        0.0000 
     55 CA         36.6940   29.9760   46.6390 C.3       6 GLP5        0.0000 
     56 CA         31.0475   28.2325   42.3927 C.3       3 GLC5        0.0000 
     57 CA         32.2920   27.4430   41.3630 C.3       9 GLL5        0.0000 
     58 CA         35.8898   29.3715   39.9100 C.3       3 GLC5        0.0000 
     59 CA         36.7490   28.8390   38.3970 C.3       6 GLP5        0.0000 
     60 CA         37.6380   36.2112   42.4875 C.3       3 GLC5        0.0000 
     61 CA         37.9170   33.8490   41.8520 C.3       9 GLL5        0.0000 
     62 CA         41.5467   34.2645   42.4257 C.3       3 GLC5        0.0000 
     63 CA         40.5243   37.3830   44.8207 C.3       3 GLC5        0.0000 
     64 CA         40.2970   38.9790   46.0990 C.3       6 GLP5        0.0000 
@<TRIPOS>BOND
@<TRIPOS>SUBSTRUCTURE
     1 ALC1       25 GROUP        1 X    ALC  0     ROOT ALC X 1
     2 SEC2       22 GROUP        1 X    SEC  0     **** SEC X 2
     3 GLC5        1 GROUP        1 X    GLC  0     **** GLC X 6
     4 ALP1       27 GROUP        1 Y    ALP  0     ROOT ALP Y 8
     5 SEP2       24 GROUP        1 Y    SEP  0     **** SEP Y 9
     6 GLP5        3 GROUP        1 Y    GLP  0     **** GLP Y 13
     7 ALL1       26 GROUP        1 Z    ALL  0     ROOT ALL Z 15
     8 SEL2       23 GROUP        1 Z    SEL  0     **** SEL Z 16
     9 GLL5        2 GROUP        1 Z    GLL  0     **** GLL Z 20
@<TRIPOS>SET

