#    Name: 4jib_1L6_3_ligand
#    Modification time : Tue Mar 25 05:53:56 2014

@<TRIPOS>MOLECULE
4jib_1L6_3_ligand
   59    62     1     0     0
SMALL
NO_CHARGES


@<TRIPOS>ATOM
      1 N3         39.6180   35.0470   41.1620 N.2       1 1L61003     0.0000 
      2 C7         38.8470   32.1450   39.3050 C.3       1 1L61003     0.0000 
      3 C6         39.8920   34.2220   38.5150 C.3       1 1L61003     0.0000 
      4 C9         36.8270   35.3820   39.0960 C.3       1 1L61003     0.0000 
      5 C13        33.7280   29.7660   43.5170 C.ar      1 1L61003     0.0000 
      6 C20        32.2920   27.4430   41.3630 C.2       1 1L61003     0.0000 
      7 C21        31.7640   26.1950   41.6860 C.2       1 1L61003     0.0000 
      8 C8         37.3580   34.0100   38.7160 C.3       1 1L61003     0.0000 
      9 C18        34.4260   30.9710   43.5900 C.ar      1 1L61003     0.0000 
     10 C16        35.3910   30.5040   41.4440 C.ar      1 1L61003     0.0000 
     11 C26        37.7680   34.5220   44.3470 C.2       1 1L61003     0.0000 
     12 O31        38.4930   34.8090   45.3100 O.2       1 1L61003     0.0000 
     13 C1         38.3270   34.5860   42.9680 C.2       1 1L61003     0.0000 
     14 N4         39.3590   35.2900   42.5170 N.pl3     1 1L61003     0.0000 
     15 C10        40.2570   36.2360   43.1660 C.3       1 1L61003     0.0000 
     16 C11        41.2460   35.3380   43.9190 C.3       1 1L61003     0.0000 
     17 O25        42.2430   36.1010   44.5720 O.3       1 1L61003     0.0000 
     18 N27        36.5360   34.0700   44.5580 N.am      1 1L61003     0.0000 
     19 C28        35.6040   33.7160   43.5170 C.3       1 1L61003     0.0000 
     20 C29        36.0390   32.6240   42.5800 C.2       1 1L61003     0.0000 
     21 N30        36.9070   32.9240   41.7250 N.2       1 1L61003     0.0000 
     22 C12        37.9170   33.8490   41.8520 C.2       1 1L61003     0.0000 
     23 C2         38.7000   34.1350   40.7610 C.2       1 1L61003     0.0000 
     24 C5         38.7080   33.6580   39.3250 C.3       1 1L61003     0.0000 
     25 C17        35.2740   31.3320   42.5450 C.ar      1 1L61003     0.0000 
     26 C15        34.6700   29.3040   41.4020 C.ar      1 1L61003     0.0000 
     27 C14        33.8280   28.8800   42.4320 C.ar      1 1L61003     0.0000 
     28 N19        33.1330   27.7080   42.3690 N.pl3     1 1L61003     0.0000 
     29 C23        33.1750   26.7430   43.3150 C.2       1 1L61003     0.0000 
     30 C24        33.9930   26.6830   44.5870 C.3       1 1L61003     0.0000 
     31 N22        32.3110   25.7830   42.8690 N.2       1 1L61003     0.0000 
     32 H          33.0945   29.5042   44.3114 H         1 1L61003     0.0000 
     33 H          32.0841   27.9496   40.6094 H         1 1L61003     0.0000 
     34 H          31.1262   25.7186   41.1584 H         1 1L61003     0.0000 
     35 H          37.4367   33.9481   37.6132 H         1 1L61003     0.0000 
     36 H          36.6190   33.2426   39.0180 H         1 1L61003     0.0000 
     37 H          34.3164   31.5826   44.4017 H         1 1L61003     0.0000 
     38 H          35.9992   30.7594   40.6595 H         1 1L61003     0.0000 
     39 H          39.7428   36.8456   43.8759 H         1 1L61003     0.0000 
     40 H          40.7999   36.8176   42.4540 H         1 1L61003     0.0000 
     41 H          41.6779   34.6375   43.1826 H         1 1L61003     0.0000 
     42 H          40.6596   34.7296   44.6299 H         1 1L61003     0.0000 
     43 H          36.1698   33.9450   45.5490 H         1 1L61003     0.0000 
     44 H          35.3523   34.6201   42.8973 H         1 1L61003     0.0000 
     45 H          34.6185   33.4114   43.9652 H         1 1L61003     0.0000 
     46 H          34.7686   28.6948   40.5540 H         1 1L61003     0.0000 
     47 H          39.7098   31.8459   39.7126 H         1 1L61003     0.0000 
     48 H          38.1117   31.6977   39.8142 H         1 1L61003     0.0000 
     49 H          38.8215   31.7820   38.3736 H         1 1L61003     0.0000 
     50 H          40.7718   33.9586   38.9108 H         1 1L61003     0.0000 
     51 H          39.8856   33.8939   37.5704 H         1 1L61003     0.0000 
     52 H          39.8745   35.2212   38.4783 H         1 1L61003     0.0000 
     53 H          36.7059   35.4727   40.0845 H         1 1L61003     0.0000 
     54 H          37.4462   36.1126   38.8083 H         1 1L61003     0.0000 
     55 H          35.9395   35.5668   38.6738 H         1 1L61003     0.0000 
     56 H          34.9746   26.7190   44.3994 H         1 1L61003     0.0000 
     57 H          33.7835   27.4452   45.1996 H         1 1L61003     0.0000 
     58 H          33.8231   25.8407   45.0985 H         1 1L61003     0.0000 
     59 H          42.8883   36.3544   43.8513 H         1 1L61003     0.0000 
@<TRIPOS>BOND
     1   14    1 1    
     2   23    1 2    
     3   24    2 1    
     4   47    2 1    
     5   48    2 1    
     6   49    2 1    
     7   24    3 1    
     8   50    3 1    
     9   51    3 1    
    10   52    3 1    
    11    8    4 1    
    12   53    4 1    
    13   54    4 1    
    14   55    4 1    
    15    9    5 ar   
    16   27    5 ar   
    17   32    5 1    
    18    7    6 2    
    19   28    6 1    
    20   33    6 1    
    21   31    7 1    
    22   34    7 1    
    23   24    8 1    
    24   35    8 1    
    25   36    8 1    
    26   25    9 ar   
    27   37    9 1    
    28   25   10 ar   
    29   26   10 ar   
    30   38   10 1    
    31   12   11 2    
    32   13   11 1    
    33   18   11 am   
    34   14   13 1    
    35   22   13 2    
    36   15   14 1    
    37   16   15 1    
    38   39   15 1    
    39   40   15 1    
    40   17   16 1    
    41   41   16 1    
    42   42   16 1    
    43   59   17 1    
    44   19   18 1    
    45   43   18 1    
    46   20   19 1    
    47   44   19 1    
    48   45   19 1    
    49   21   20 2    
    50   25   20 1    
    51   22   21 1    
    52   23   22 1    
    53   24   23 1    
    54   27   26 ar   
    55   46   26 1    
    56   28   27 1    
    57   29   28 1    
    58   30   29 1    
    59   31   29 2    
    60   56   30 1    
    61   57   30 1    
    62   58   30 1    
@<TRIPOS>SUBSTRUCTURE
     1 1L61003     1 GROUP   
@<TRIPOS>SET

