#    Name: 2f81_017_1_INTS_M
#    Modification time : Mon Apr  7 18:16:03 2014

@<TRIPOS>MOLECULE
2f81_017_1_INTS_M
   93     0     9     0     0
SMALL
NO_CHARGES


@<TRIPOS>ATOM
      1 O           9.6110   56.3785   13.7990 O.2       1 ALC1        0.0000 
      2 O           8.1990   57.2630   14.1130 O.2       7 ALL1        0.0000 
      3 O          11.0230   55.4940   13.4850 O.2       4 ALP1        0.0000 
      4 O           7.0100   56.4320   14.1125 O.2       1 ALC1        0.0000 
      5 O           5.8210   55.6010   14.1120 O.2       4 ALP1        0.0000 
      6 CA          8.2635   56.4350   13.7655 C.3       3 GLC5        0.0000 
      7 CA          8.6730   58.4230   14.5710 C.3       9 GLL5        0.0000 
      8 CA          7.8540   54.4470   12.9600 C.3       6 GLP5        0.0000 
      9 CA         12.3405   60.3565   13.6590 C.3       3 GLC5        0.0000 
     10 CA         10.5810   59.8330   14.7070 C.3       9 GLL5        0.0000 
     11 CA         14.1000   60.8800   12.6110 C.3       6 GLP5        0.0000 
     12 CA          6.4120   59.7475   13.7890 C.3       3 GLC5        0.0000 
     13 CA          7.8370   59.2820   15.2920 C.3       9 GLL5        0.0000 
     14 CA          4.9870   60.2130   12.2860 C.3       6 GLP5        0.0000 
     15 CA         12.2195   64.4570   21.2945 C.3       3 GLC5        0.0000 
     16 CA         10.7790   63.6990   19.8520 C.3       9 GLL5        0.0000 
     17 CA         13.6600   65.2150   22.7370 C.3       6 GLP5        0.0000 
     18 CA         10.4650   60.4505   22.3375 C.3       3 GLC5        0.0000 
     19 CA          9.8740   61.7390   21.0950 C.3       9 GLL5        0.0000 
     20 CA         11.0560   59.1620   23.5800 C.3       6 GLP5        0.0000 
     21 CA          9.2660   62.1480   22.7245 C.3       3 GLC5        0.0000 
     22 CA          8.6580   62.5570   24.3540 C.3       6 GLP5        0.0000 
     23 CA         10.9395   62.5560   22.7320 C.3       3 GLC5        0.0000 
     24 CA         12.0050   63.3730   24.3690 C.3       6 GLP5        0.0000 
     25 CA         12.5095   59.1870   16.8880 C.3       3 GLC5        0.0000 
     26 CA         12.6140   61.1770   17.5660 C.3       9 GLL5        0.0000 
     27 CA         12.4050   57.1970   16.2100 C.3       6 GLP5        0.0000 
     28 N          15.0075   60.4680   17.3575 N.am      2 SEC2        0.0000 
     29 N          14.9180   61.2810   18.3050 N.am      8 SEL2        0.0000 
     30 N          15.0970   59.6550   16.4100 N.am      5 SEP2        0.0000 
     31 O          15.3635   60.7165   19.5270 O.2       1 ALC1        0.0000 
     32 O          14.9180   61.2810   18.3050 O.2       7 ALL1        0.0000 
     33 O          15.8090   60.1520   20.7490 O.2       4 ALP1        0.0000 
     34 O          14.6580   61.4835   19.8770 O.2       1 ALC1        0.0000 
     35 O          14.3980   61.6860   21.4490 O.2       4 ALP1        0.0000 
     36 O          16.5035   63.5945   17.8050 O.2       1 ALC1        0.0000 
     37 O          14.9710   64.1310   17.7720 O.2       7 ALL1        0.0000 
     38 O          18.0360   63.0580   17.8380 O.2       4 ALP1        0.0000 
     39 CA         13.6720   67.8795   19.9605 C.3       3 GLC5        0.0000 
     40 CA         15.6310   67.3850   19.0220 C.3       9 GLL5        0.0000 
     41 CA         11.7130   68.3740   20.8990 C.3       6 GLP5        0.0000 
     42 CA         16.7535   65.7675   21.0695 C.3       3 GLC5        0.0000 
     43 CA         16.2760   67.5730   20.4170 C.3       9 GLL5        0.0000 
     44 CA         17.2310   63.9620   21.7220 C.3       6 GLP5        0.0000 
     45 CA         17.7135   68.3790   21.7955 C.3       3 GLC5        0.0000 
     46 CA         19.1510   69.1850   23.1740 C.3       6 GLP5        0.0000 
     47 CA         15.1720   69.3245   20.7900 C.3       3 GLC5        0.0000 
     48 CA         14.0680   71.0760   21.1630 C.3       6 GLP5        0.0000 
     49 CA         14.9680   66.3940   21.5770 C.3       3 GLC5        0.0000 
     50 N          18.8795   67.2670   21.3885 N.am      2 SEC2        0.0000 
     51 N          17.7030   67.4920   20.2200 N.am      8 SEL2        0.0000 
     52 N          20.0560   67.0420   22.5570 N.am      5 SEP2        0.0000 
     53 CA         18.0655   65.9045   19.7135 C.3       3 GLC5        0.0000 
     54 CA         17.9450   67.9230   18.8900 C.3       9 GLL5        0.0000 
     55 CA         18.1860   63.8860   20.5370 C.3       6 GLP5        0.0000 
     56 CA         19.7980   67.5595   19.4075 C.3       3 GLC5        0.0000 
     57 CA         21.6510   67.1960   19.9250 C.3       6 GLP5        0.0000 
     58 N          19.4240   66.2600   19.2670 N.am      2 SEC2        0.0000 
     59 N          18.8550   67.0570   18.1820 N.am      8 SEL2        0.0000 
     60 N          19.9930   65.4630   20.3520 N.am      5 SEP2        0.0000 
     61 CA         18.1320   65.2155   18.8220 C.3       3 GLC5        0.0000 
     62 CA         18.0780   66.5450   17.1070 C.3       9 GLL5        0.0000 
     63 CA         16.1280   70.1230   18.7600 C.3       3 GLC5        0.0000 
     64 CA         16.6820   68.1000   18.1650 C.3       9 GLL5        0.0000 
     65 CA         15.5740   72.1460   19.3550 C.3       6 GLP5        0.0000 
     66 CA         17.8285   62.7310   14.7450 C.3       3 GLC5        0.0000 
     67 CA         16.5910   64.3280   14.7970 C.3       9 GLL5        0.0000 
     68 CA         19.0660   61.1340   14.6930 C.3       6 GLP5        0.0000 
     69 CA         12.4050   65.9530   13.0825 C.3       3 GLC5        0.0000 
     70 CA         14.6090   65.7340   13.4210 C.3       9 GLL5        0.0000 
     71 CA         10.2010   66.1720   12.7440 C.3       6 GLP5        0.0000 
     72 CA         10.8732   57.8700   15.3155 C.3       3 GLC5        0.0000 
     73 CA         10.0100   58.6630   14.2710 C.3       9 GLL5        0.0000 
     74 CA          8.2712   59.3510   12.7880 C.3       3 GLC5        0.0000 
     75 CA          7.2010   60.1590   11.1550 C.3       6 GLP5        0.0000 
     76 CA         10.1253   60.7980   13.3280 C.3       3 GLC5        0.0000 
     77 CA          9.9550   62.3480   12.1670 C.3       6 GLP5        0.0000 
     78 CA         11.2892   58.7355   15.6388 C.3       3 GLC5        0.0000 
     79 CA         10.0091   58.7215   12.7195 C.3       3 GLC5        0.0000 
     80 CA         10.0570   58.2550   10.8750 C.3       6 GLP5        0.0000 
     81 CA          9.5263   61.4730   13.8740 C.3       3 GLC5        0.0000 
     82 CA          9.7660   60.7150   15.4280 C.3       9 GLL5        0.0000 
     83 CA         16.8530   63.9633   12.8633 C.3       3 GLC5        0.0000 
     84 CA         16.9310   63.0380   11.3340 C.3       6 GLP5        0.0000 
     85 CA         14.6360   66.4865   11.7805 C.3       3 GLC5        0.0000 
     86 CA         15.9410   66.1220   13.3210 C.3       9 GLL5        0.0000 
     87 CA         13.9970   67.0450   10.1900 C.3       6 GLP5        0.0000 
     88 CA         16.1030   64.4830   12.3525 C.3       3 GLC5        0.0000 
     89 CA         15.8525   63.6595   12.9497 C.3       3 GLC5        0.0000 
     90 CA         14.2890   64.6420   14.2180 C.3       9 GLL5        0.0000 
     91 CA         14.3826   62.4292   13.6970 C.3       3 GLC5        0.0000 
     92 CA         13.7265   66.6290   14.3507 C.3       3 GLC5        0.0000 
     93 CA         12.6710   67.9730   14.9070 C.3       6 GLP5        0.0000 
@<TRIPOS>BOND
@<TRIPOS>SUBSTRUCTURE
     1 ALC1        1 GROUP        1 X    ALC  0     ROOT ALC X 1
     2 SEC2       28 GROUP        1 X    SEC  0     **** SEC X 2
     3 GLC5        6 GROUP        1 X    GLC  0     **** GLC X 6
     4 ALP1        3 GROUP        1 Y    ALP  0     ROOT ALP Y 8
     5 SEP2       30 GROUP        1 Y    SEP  0     **** SEP Y 9
     6 GLP5        8 GROUP        1 Y    GLP  0     **** GLP Y 13
     7 ALL1        2 GROUP        1 Z    ALL  0     ROOT ALL Z 15
     8 SEL2       29 GROUP        1 Z    SEL  0     **** SEL Z 16
     9 GLL5        7 GROUP        1 Z    GLL  0     **** GLL Z 20
@<TRIPOS>SET

