#    Name: 2f81_017_1_ligand
#    Modification time : Mon Apr  7 18:16:03 2014

@<TRIPOS>MOLECULE
2f81_017_1_ligand
   75    78     1     0     0
SMALL
NO_CHARGES


@<TRIPOS>ATOM
      1 N1          8.1990   57.2630   14.1130 N.pl3     1 017302      0.0000 
      2 C2          8.6730   58.4230   14.5710 C.ar      1 017302      0.0000 
      3 C3         10.0100   58.6630   14.2710 C.ar      1 017302      0.0000 
      4 C4         10.5810   59.8330   14.7070 C.ar      1 017302      0.0000 
      5 C5          9.7660   60.7150   15.4280 C.ar      1 017302      0.0000 
      6 C6          8.4290   60.4810   15.7340 C.ar      1 017302      0.0000 
      7 C7          7.8370   59.2820   15.2920 C.ar      1 017302      0.0000 
      8 S8         10.6440   62.2180   15.9530 S.o2      1 017302      0.0000 
      9 O9         11.8530   62.4980   15.0290 O.2       1 017302      0.0000 
     10 O10         9.6620   63.3930   16.1790 O.2       1 017302      0.0000 
     11 N11        11.3060   61.8570   17.5900 N.pl3     1 017302      0.0000 
     12 C12        10.2860   61.5940   18.6410 C.3       1 017302      0.0000 
     13 C13        10.7920   62.1880   19.9860 C.3       1 017302      0.0000 
     14 C14        10.7790   63.6990   19.8520 C.3       1 017302      0.0000 
     15 C15         9.8740   61.7390   21.0950 C.3       1 017302      0.0000 
     16 C16        12.6140   61.1770   17.5660 C.3       1 017302      0.0000 
     17 C17        13.7530   62.0970   18.1130 C.3       1 017302      0.0000 
     18 O18        14.9180   61.2810   18.3050 O.3       1 017302      0.0000 
     19 C19        14.1140   63.2160   17.0780 C.3       1 017302      0.0000 
     20 N20        14.9710   64.1310   17.7720 N.am      1 017302      0.0000 
     21 C21        14.6300   65.3880   18.1050 C.2       1 017302      0.0000 
     22 O22        13.5360   65.9490   17.8240 O.2       1 017302      0.0000 
     23 O23        15.7420   65.9160   18.8150 O.3       1 017302      0.0000 
     24 C24        15.6310   67.3850   19.0220 C.3       1 017302      0.0000 
     25 C25        16.2760   67.5730   20.4170 C.3       1 017302      0.0000 
     26 O26        17.7030   67.4920   20.2200 O.3       1 017302      0.0000 
     27 C27        17.9450   67.9230   18.8900 C.3       1 017302      0.0000 
     28 O28        18.8550   67.0570   18.1820 O.3       1 017302      0.0000 
     29 C29        18.0780   66.5450   17.1070 C.3       1 017302      0.0000 
     30 C30        17.0330   67.6250   16.7630 C.3       1 017302      0.0000 
     31 C31        16.6820   68.1000   18.1650 C.3       1 017302      0.0000 
     32 C32        14.8240   62.7100   15.7830 C.3       1 017302      0.0000 
     33 C33        16.5910   64.3280   14.7970 C.ar      1 017302      0.0000 
     34 C34        16.9590   65.4490   13.9880 C.ar      1 017302      0.0000 
     35 C35        15.9410   66.1220   13.3210 C.ar      1 017302      0.0000 
     36 C36        14.6090   65.7340   13.4210 C.ar      1 017302      0.0000 
     37 C37        14.2890   64.6420   14.2180 C.ar      1 017302      0.0000 
     38 C38        15.2590   63.9200   14.9130 C.ar      1 017302      0.0000 
     39 H           8.8393   56.7028   13.5874 H         1 017302      0.0000 
     40 H           7.2461   57.0580   14.3365 H         1 017302      0.0000 
     41 H          10.5481   57.9784   13.7374 H         1 017302      0.0000 
     42 H          11.5481   60.0607   14.5222 H         1 017302      0.0000 
     43 H           7.8854   61.1549   16.2639 H         1 017302      0.0000 
     44 H           6.8862   59.0646   15.4825 H         1 017302      0.0000 
     45 H          10.1376   60.5313   18.7764 H         1 017302      0.0000 
     46 H           9.3469   62.0703   18.3942 H         1 017302      0.0000 
     47 H          11.7795   61.8450   20.1518 H         1 017302      0.0000 
     48 H          12.8869   60.8869   16.5460 H         1 017302      0.0000 
     49 H          12.5974   60.2723   18.1826 H         1 017302      0.0000 
     50 H          13.4282   62.5504   19.0085 H         1 017302      0.0000 
     51 H          13.1937   63.7080   16.7979 H         1 017302      0.0000 
     52 H          15.9316   63.7578   18.0243 H         1 017302      0.0000 
     53 H          14.7441   67.7771   18.9808 H         1 017302      0.0000 
     54 H          15.9098   66.7865   21.0580 H         1 017302      0.0000 
     55 H          15.9726   68.5374   20.7930 H         1 017302      0.0000 
     56 H          18.4232   68.9442   18.9413 H         1 017302      0.0000 
     57 H          17.5408   65.6439   17.3768 H         1 017302      0.0000 
     58 H          18.6692   66.3663   16.2171 H         1 017302      0.0000 
     59 H          16.2037   67.1775   16.3125 H         1 017302      0.0000 
     60 H          17.4898   68.3933   16.2226 H         1 017302      0.0000 
     61 H          16.4799   69.1620   18.1474 H         1 017302      0.0000 
     62 H          14.1356   62.0977   15.2228 H         1 017302      0.0000 
     63 H          15.6958   62.1400   16.0617 H         1 017302      0.0000 
     64 H          17.3336   63.8199   15.2991 H         1 017302      0.0000 
     65 H          17.9220   65.7249   13.9165 H         1 017302      0.0000 
     66 H          16.1840   66.9440   12.7267 H         1 017302      0.0000 
     67 H          13.8816   66.2421   12.9184 H         1 017302      0.0000 
     68 H          13.2908   64.3506   14.3009 H         1 017302      0.0000 
     69 H          11.0942   64.1487   20.6877 H         1 017302      0.0000 
     70 H          11.3719   64.0111   19.1097 H         1 017302      0.0000 
     71 H           9.8613   64.0470   19.6601 H         1 017302      0.0000 
     72 H           9.8515   60.7427   21.1780 H         1 017302      0.0000 
     73 H          10.1592   62.1007   21.9826 H         1 017302      0.0000 
     74 H           8.9330   62.0418   20.9437 H         1 017302      0.0000 
     75 H          14.7803   60.8379   19.1907 H         1 017302      0.0000 
@<TRIPOS>BOND
     1    2    1 1    
     2   39    1 1    
     3   40    1 1    
     4    3    2 ar   
     5    7    2 ar   
     6    4    3 ar   
     7   41    3 1    
     8    5    4 ar   
     9   42    4 1    
    10    6    5 ar   
    11    8    5 1    
    12    7    6 ar   
    13   43    6 1    
    14   44    7 1    
    15    9    8 2    
    16   10    8 2    
    17   11    8 1    
    18   12   11 1    
    19   16   11 1    
    20   13   12 1    
    21   45   12 1    
    22   46   12 1    
    23   14   13 1    
    24   15   13 1    
    25   47   13 1    
    26   69   14 1    
    27   70   14 1    
    28   71   14 1    
    29   72   15 1    
    30   73   15 1    
    31   74   15 1    
    32   17   16 1    
    33   48   16 1    
    34   49   16 1    
    35   18   17 1    
    36   19   17 1    
    37   50   17 1    
    38   75   18 1    
    39   20   19 1    
    40   32   19 1    
    41   51   19 1    
    42   21   20 am   
    43   52   20 1    
    44   22   21 2    
    45   23   21 1    
    46   24   23 1    
    47   25   24 1    
    48   31   24 1    
    49   53   24 1    
    50   26   25 1    
    51   54   25 1    
    52   55   25 1    
    53   27   26 1    
    54   28   27 1    
    55   31   27 1    
    56   56   27 1    
    57   29   28 1    
    58   30   29 1    
    59   57   29 1    
    60   58   29 1    
    61   31   30 1    
    62   59   30 1    
    63   60   30 1    
    64   61   31 1    
    65   38   32 1    
    66   62   32 1    
    67   63   32 1    
    68   34   33 ar   
    69   38   33 ar   
    70   64   33 1    
    71   35   34 ar   
    72   65   34 1    
    73   36   35 ar   
    74   66   35 1    
    75   37   36 ar   
    76   67   36 1    
    77   38   37 ar   
    78   68   37 1    
@<TRIPOS>SUBSTRUCTURE
     1 017302      1 GROUP   
@<TRIPOS>SET

