#    Name: 2vwx_7X4_1_INTS_M
#    Modification time : Tue Mar 25 03:12:33 2014

@<TRIPOS>MOLECULE
2vwx_7X4_1_INTS_M
   64     0     9     0     0
SMALL
NO_CHARGES


@<TRIPOS>ATOM
      1 CA         12.7445    5.6855   13.6785 C.3       3 GLC5        0.0000 
      2 CA         12.9970    6.3020   11.7750 C.3       9 GLL5        0.0000 
      3 CA         12.4920    5.0690   15.5820 C.3       6 GLP5        0.0000 
      4 CA         14.6965    5.5785   10.8535 C.3       3 GLC5        0.0000 
      5 CA         16.3960    4.8550    9.9320 C.3       6 GLP5        0.0000 
      6 CA         12.6400    4.7665   10.3060 C.3       3 GLC5        0.0000 
      7 CA         12.2830    3.2310    8.8370 C.3       6 GLP5        0.0000 
      8 N          15.3130    5.2795   12.2325 N.am      2 SEC2        0.0000 
      9 N          13.7700    5.2890   12.1410 N.am      8 SEL2        0.0000 
     10 N          16.8560    5.2700   12.3240 N.am      5 SEP2        0.0000 
     11 CA         15.0700    4.3130   13.5480 C.3       3 GLC5        0.0000 
     12 CA         13.2940    4.0690   12.4650 C.3       9 GLL5        0.0000 
     13 CA         16.8460    4.5570   14.6310 C.3       6 GLP5        0.0000 
     14 CA         14.7575    3.6845   11.2555 C.3       3 GLC5        0.0000 
     15 CA         16.2210    3.3000   10.0460 C.3       6 GLP5        0.0000 
     16 CA          9.9730    6.4170   13.1820 C.3       3 GLC5        0.0000 
     17 CA         11.1140    4.9740   11.9830 C.3       9 GLL5        0.0000 
     18 CA          8.8320    7.8600   14.3810 C.3       6 GLP5        0.0000 
     19 CA         10.7715    4.1355   14.5970 C.3       3 GLC5        0.0000 
     20 CA          9.0510    3.2020   13.6120 C.3       9 GLL5        0.0000 
     21 CA          7.3640    3.6745   14.5270 C.3       3 GLC5        0.0000 
     22 CA          5.6770    4.1470   15.4420 C.3       6 GLP5        0.0000 
     23 CA         11.0415    3.9290   15.6575 C.3       3 GLC5        0.0000 
     24 CA          9.5910    2.7890   15.7330 C.3       9 GLL5        0.0000 
     25 CA          9.6275    3.8440   17.4210 C.3       3 GLC5        0.0000 
     26 CA          9.6640    4.8990   19.1090 C.3       6 GLP5        0.0000 
     27 CA          7.6340    3.4680   15.5875 C.3       3 GLC5        0.0000 
     28 CA         10.3670    1.1340   15.4175 C.3       3 GLC5        0.0000 
     29 CA         11.1430   -0.5210   15.1020 C.3       6 GLP5        0.0000 
     30 CA          6.7125    2.5720   14.2355 C.3       3 GLC5        0.0000 
     31 CA          8.4030    2.0170   13.9740 C.3       9 GLL5        0.0000 
     32 CA          5.0220    3.1270   14.4970 C.3       6 GLP5        0.0000 
     33 CA          8.0315   -0.7350   13.5155 C.3       3 GLC5        0.0000 
     34 CA          7.7650    1.2030   13.0270 C.3       9 GLL5        0.0000 
     35 CA          8.2980   -2.6730   14.0040 C.3       6 GLP5        0.0000 
     36 CA         10.4155    3.3025    9.2285 C.3       3 GLC5        0.0000 
     37 CA          8.5480    3.3740    9.6200 C.3       9 GLL5        0.0000 
     38 CA          9.3030    1.9535    8.4955 C.3       3 GLC5        0.0000 
     39 CA         10.0580    0.5330    7.3710 C.3       6 GLP5        0.0000 
     40 O          16.6315   11.5805    9.9040 O.2       1 ALC1        0.0000 
     41 O          15.5190   12.2480    9.5740 O.2       7 ALL1        0.0000 
     42 O          17.7440   10.9130   10.2340 O.2       4 ALP1        0.0000 
     43 CA         10.2915    8.4050   12.7710 C.3       3 GLC5        0.0000 
     44 CA         11.7510    8.9500   11.1610 C.3       9 GLL5        0.0000 
     45 O          15.0500    7.5845   11.0435 O.2       1 ALC1        0.0000 
     46 O          13.6840    7.4780   11.4750 O.2       7 ALL1        0.0000 
     47 O          16.4160    7.6910   10.6120 O.2       4 ALP1        0.0000 
     48 CA         12.1786    4.7730   13.8919 C.3       3 GLC5        0.0000 
     49 CA         12.0741    3.8540   10.5194 C.3       3 GLC5        0.0000 
     50 CA          6.9415    3.4005   12.4062 C.3       3 GLC5        0.0000 
     51 CA          9.0770    3.6200   12.2740 C.3       9 GLL5        0.0000 
     52 CA          5.1070    3.5710   13.0250 C.3       6 GLP5        0.0000 
     53 CA          9.6135    0.5445   14.3012 C.3       3 GLC5        0.0000 
     54 CA          6.4558    2.4980   12.6925 C.3       3 GLC5        0.0000 
     55 CA         12.5925   10.6830   12.6817 C.3       3 GLC5        0.0000 
     56 CA         12.1580   11.3120   10.9290 C.3       9 GLL5        0.0000 
     57 CA         12.3440   10.1620   14.3790 C.3       6 GLP5        0.0000 
     58 CA         14.0020    9.7353    9.3902 C.3       3 GLC5        0.0000 
     59 CA         13.5240   11.0960   11.0400 C.3       9 GLL5        0.0000 
     60 CA         14.2360    9.0100    7.6470 C.3       6 GLP5        0.0000 
     61 CA         11.9277    9.8803   12.7242 C.3       3 GLC5        0.0000 
     62 CA         13.3368    8.9275    9.4335 C.3       3 GLC5        0.0000 
     63 CA         12.9560    9.7223   12.8160 C.3       3 GLC5        0.0000 
     64 CA         13.1240    8.7400   11.2790 C.3       9 GLL5        0.0000 
@<TRIPOS>BOND
@<TRIPOS>SUBSTRUCTURE
     1 ALC1       40 GROUP        1 X    ALC  0     ROOT ALC X 1
     2 SEC2        8 GROUP        1 X    SEC  0     **** SEC X 2
     3 GLC5        1 GROUP        1 X    GLC  0     **** GLC X 6
     4 ALP1       42 GROUP        1 Y    ALP  0     ROOT ALP Y 8
     5 SEP2       10 GROUP        1 Y    SEP  0     **** SEP Y 9
     6 GLP5        3 GROUP        1 Y    GLP  0     **** GLP Y 13
     7 ALL1       41 GROUP        1 Z    ALL  0     ROOT ALL Z 15
     8 SEL2        9 GROUP        1 Z    SEL  0     **** SEL Z 16
     9 GLL5        2 GROUP        1 Z    GLL  0     **** GLL Z 20
@<TRIPOS>SET

