#    Name: 2vwx_7X4_1_ligand
#    Modification time : Tue Mar 25 03:12:33 2014

@<TRIPOS>MOLECULE
2vwx_7X4_1_ligand
   42    45     1     0     0
SMALL
NO_CHARGES


@<TRIPOS>ATOM
      1 C11        12.9970    6.3020   11.7750 C.ar      1 7X41889     0.0000 
      2 N12        13.7700    5.2890   12.1410 N.ar      1 7X41889     0.0000 
      3 C13        13.2940    4.0690   12.4650 C.ar      1 7X41889     0.0000 
      4 C14        11.9390    3.8910   12.3760 C.ar      1 7X41889     0.0000 
      5 C15        11.1140    4.9740   11.9830 C.ar      1 7X41889     0.0000 
      6 N16         9.7270    4.8120   11.9070 N.pl3     1 7X41889     0.0000 
      7 C17         9.0770    3.6200   12.2740 C.ar      1 7X41889     0.0000 
      8 C18         9.0510    3.2020   13.6120 C.ar      1 7X41889     0.0000 
      9 O19         9.5940    3.8200   14.7130 O.3       1 7X41889     0.0000 
     10 C20         9.5910    2.7890   15.7330 C.3       1 7X41889     0.0000 
     11 O21         8.5220    1.8730   15.3200 O.3       1 7X41889     0.0000 
     12 C22         8.4030    2.0170   13.9740 C.ar      1 7X41889     0.0000 
     13 C23         7.7650    1.2030   13.0270 C.ar      1 7X41889     0.0000 
     14 C24         7.8440    1.6470   11.6930 C.ar      1 7X41889     0.0000 
     15 C25         8.4750    2.8400   11.3010 C.ar      1 7X41889     0.0000 
     16 CL2         8.5480    3.3740    9.6200 Cl        1 7X41889     0.0000 
     17 N27        11.6620    6.1650   11.7000 N.ar      1 7X41889     0.0000 
     18 N1         15.5190   12.2480    9.5740 N.pl3     1 7X41889     0.0000 
     19 S2         14.6830   12.4160   10.9870 S.o2      1 7X41889     0.0000 
     20 O3         15.6060   12.1570   12.0490 O.2       1 7X41889     0.0000 
     21 O4         13.9320   13.6460   10.9730 O.2       1 7X41889     0.0000 
     22 C5         13.5240   11.0960   11.0400 C.ar      1 7X41889     0.0000 
     23 C6         12.1580   11.3120   10.9290 C.ar      1 7X41889     0.0000 
     24 C7         11.2720   10.2470   10.9780 C.ar      1 7X41889     0.0000 
     25 C8         11.7510    8.9500   11.1610 C.ar      1 7X41889     0.0000 
     26 C9         13.1240    8.7400   11.2790 C.ar      1 7X41889     0.0000 
     27 N10        13.6840    7.4780   11.4750 N.pl3     1 7X41889     0.0000 
     28 C28        14.0120    9.8250   11.2270 C.ar      1 7X41889     0.0000 
     29 H          13.9039    3.3113   12.7622 H         1 7X41889     0.0000 
     30 H          11.5033    2.9876   12.5880 H         1 7X41889     0.0000 
     31 H           9.1457    5.6089   11.5632 H         1 7X41889     0.0000 
     32 H           9.3667    3.2083   16.7007 H         1 7X41889     0.0000 
     33 H          10.5358    2.2700   15.7557 H         1 7X41889     0.0000 
     34 H           7.2889    0.3692   13.2773 H         1 7X41889     0.0000 
     35 H           7.4051    1.0506   10.9479 H         1 7X41889     0.0000 
     36 H          14.9994   12.4047    8.7340 H         1 7X41889     0.0000 
     37 H          16.4843   12.0018    9.6605 H         1 7X41889     0.0000 
     38 H          11.7993   12.2730   10.8091 H         1 7X41889     0.0000 
     39 H          10.2615   10.4092   10.8799 H         1 7X41889     0.0000 
     40 H          11.1018    8.1619   11.2081 H         1 7X41889     0.0000 
     41 H          14.7515    7.4043   11.3860 H         1 7X41889     0.0000 
     42 H          15.0198    9.6566   11.3296 H         1 7X41889     0.0000 
@<TRIPOS>BOND
     1    2    1 ar   
     2   17    1 ar   
     3   27    1 1    
     4    3    2 ar   
     5    4    3 ar   
     6   29    3 1    
     7    5    4 ar   
     8   30    4 1    
     9    6    5 1    
    10   17    5 ar   
    11    7    6 1    
    12   31    6 1    
    13    8    7 ar   
    14   15    7 ar   
    15    9    8 1    
    16   12    8 ar   
    17   10    9 1    
    18   11   10 1    
    19   32   10 1    
    20   33   10 1    
    21   12   11 1    
    22   13   12 ar   
    23   14   13 ar   
    24   34   13 1    
    25   15   14 ar   
    26   35   14 1    
    27   16   15 1    
    28   19   18 1    
    29   36   18 1    
    30   37   18 1    
    31   20   19 2    
    32   21   19 2    
    33   22   19 1    
    34   23   22 ar   
    35   28   22 ar   
    36   24   23 ar   
    37   38   23 1    
    38   25   24 ar   
    39   39   24 1    
    40   26   25 ar   
    41   40   25 1    
    42   27   26 1    
    43   28   26 ar   
    44   41   27 1    
    45   42   28 1    
@<TRIPOS>SUBSTRUCTURE
     1 7X41889     1 GROUP   
@<TRIPOS>SET

