#    Name: 2qtu_3AS_1_INTS_M
#    Modification time : Mon Mar 24 22:49:28 2014

@<TRIPOS>MOLECULE
2qtu_3AS_1_INTS_M
   80     0     6     0     0
SMALL
NO_CHARGES


@<TRIPOS>ATOM
      1 CA         82.2195   42.3760   67.5835 C.3       2 GLC5        0.0000 
      2 CA         80.6000   42.5230   68.0700 C.3       6 GLL5        0.0000 
      3 CA         83.8390   42.2290   67.0970 C.3       4 GLP5        0.0000 
      4 CA         74.4880   38.7115   74.5585 C.3       2 GLC5        0.0000 
      5 CA         75.7930   37.8710   72.9670 C.3       6 GLL5        0.0000 
      6 CA         73.1830   39.5520   76.1500 C.3       4 GLP5        0.0000 
      7 O          74.5765   36.2250   74.6335 O.2       1 ALC1        0.0000 
      8 O          74.2130   36.1510   73.3720 O.2       5 ALL1        0.0000 
      9 O          74.9400   36.2990   75.8950 O.2       3 ALP1        0.0000 
     10 CA         74.5420   34.7435   70.0155 C.3       2 GLC5        0.0000 
     11 CA         74.9820   36.5220   71.1520 C.3       6 GLL5        0.0000 
     12 CA         74.1020   32.9650   68.8790 C.3       4 GLP5        0.0000 
     13 CA         75.6140   35.8345   68.7785 C.3       2 GLC5        0.0000 
     14 CA         75.7910   37.2320   70.2650 C.3       6 GLL5        0.0000 
     15 CA         75.4370   34.4370   67.2920 C.3       4 GLP5        0.0000 
     16 CA         78.2660   43.1220   66.4190 C.3       2 GLC5        0.0000 
     17 CA         79.6760   41.7130   67.4260 C.3       6 GLL5        0.0000 
     18 CA         76.8560   44.5310   65.4120 C.3       4 GLP5        0.0000 
     19 CA         81.6985   41.3255   67.6610 C.3       2 GLC5        0.0000 
     20 CA         83.7210   40.9380   67.8960 C.3       4 GLP5        0.0000 
     21 CA         77.3790   41.0520   64.7010 C.3       2 GLC5        0.0000 
     22 CA         76.9030   40.9690   66.5510 C.3       6 GLL5        0.0000 
     23 CA         77.8550   41.1350   62.8510 C.3       4 GLP5        0.0000 
     24 CA         78.4880   39.8345   65.5495 C.3       2 GLC5        0.0000 
     25 CA         80.0730   38.7000   64.5480 C.3       4 GLP5        0.0000 
     26 CA         73.1240   40.5040   68.1945 C.3       2 GLC5        0.0000 
     27 CA         74.5270   40.5530   66.5830 C.3       6 GLL5        0.0000 
     28 CA         71.7210   40.4550   69.8060 C.3       4 GLP5        0.0000 
     29 CA         73.4895   39.2015   66.1290 C.3       2 GLC5        0.0000 
     30 CA         72.4520   37.8500   65.6750 C.3       4 GLP5        0.0000 
     31 CA         74.0385   40.0385   69.7010 C.3       2 GLC5        0.0000 
     32 CA         75.6920   40.4070   68.6630 C.3       6 GLL5        0.0000 
     33 CA         72.3850   39.6700   70.7390 C.3       4 GLP5        0.0000 
     34 CA         77.9520   42.6850   72.1340 C.3       2 GLC5        0.0000 
     35 CA         79.8260   41.8320   71.6730 C.3       6 GLL5        0.0000 
     36 CA         76.0780   43.5380   72.5950 C.3       4 GLP5        0.0000 
     37 CA         80.1080   41.9925   74.4060 C.3       2 GLC5        0.0000 
     38 CA         80.6160   40.8770   73.5180 C.3       6 GLL5        0.0000 
     39 CA         79.6000   43.1080   75.2940 C.3       4 GLP5        0.0000 
     40 CA         80.0080   39.7165   74.3010 C.3       2 GLC5        0.0000 
     41 CA         79.4000   38.5560   75.0840 C.3       4 GLP5        0.0000 
     42 CA         81.8420   40.7780   74.3015 C.3       2 GLC5        0.0000 
     43 CA         83.0680   40.6790   75.0850 C.3       4 GLP5        0.0000 
     44 O          81.1860   43.8165   66.2650 O.2       1 ALC1        0.0000 
     45 O          81.4450   43.2770   67.3500 O.2       5 ALL1        0.0000 
     46 O          80.9270   44.3560   65.1800 O.2       3 ALP1        0.0000 
     47 CA         80.5030   43.0335   65.8070 C.3       2 GLC5        0.0000 
     48 CA         80.8680   43.9490   63.8660 C.3       4 GLP5        0.0000 
     49 CA         79.5219   44.0629   69.1081 C.3       2 GLC5        0.0000 
     50 CA         79.7810   41.7960   70.1760 C.3       6 GLL5        0.0000 
     51 CA         78.8420   45.9560   68.7480 C.3       4 GLP5        0.0000 
     52 CA         80.3882   43.1005   72.2828 C.3       2 GLC5        0.0000 
     53 CA         80.9730   44.3870   73.6410 C.3       4 GLP5        0.0000 
     54 CA         77.7990   38.3918   73.8053 C.3       2 GLC5        0.0000 
     55 CA         76.6030   38.5840   72.0860 C.3       6 GLL5        0.0000 
     56 CA         77.2780   36.5798   73.1142 C.3       2 GLC5        0.0000 
     57 CA         78.3580   34.9320   73.7020 C.3       4 GLP5        0.0000 
     58 CA         78.0124   37.0335   69.4854 C.3       2 GLC5        0.0000 
     59 CA         79.5950   36.1210   68.7220 C.3       4 GLP5        0.0000 
     60 CA         76.0396   35.3094   71.7138 C.3       2 GLC5        0.0000 
     61 CA         76.6920   33.6620   72.3810 C.3       4 GLP5        0.0000 
     62 CA         78.9425   38.6157   68.0532 C.3       2 GLC5        0.0000 
     63 CA         76.8140   39.3880   68.4170 C.3       6 GLL5        0.0000 
     64 CA         80.5760   37.4970   68.1840 C.3       4 GLP5        0.0000 
     65 CA         77.0290   38.0722   66.8922 C.3       2 GLC5        0.0000 
     66 CA         77.8040   40.0810   67.4280 C.3       6 GLL5        0.0000 
     67 CA         76.7490   36.4100   65.8620 C.3       4 GLP5        0.0000 
     68 CA         79.9120   39.4164   68.1619 C.3       2 GLC5        0.0000 
     69 CA         79.5306   39.9056   66.0791 C.3       2 GLC5        0.0000 
     70 CA         75.1958   40.2198   65.1398 C.3       2 GLC5        0.0000 
     71 CA         75.5620   41.1300   67.3020 C.3       6 GLL5        0.0000 
     72 CA         75.3470   39.5980   63.3370 C.3       4 GLP5        0.0000 
     73 CA         76.3114   43.1469   66.3051 C.3       2 GLC5        0.0000 
     74 CA         75.3010   42.4760   67.4700 C.3       6 GLL5        0.0000 
     75 CA         73.5846   42.0610   66.7293 C.3       2 GLC5        0.0000 
     76 CA         72.1900   42.9440   66.4740 C.3       4 GLP5        0.0000 
     77 CA         75.3209   42.5820   69.2093 C.3       2 GLC5        0.0000 
     78 CA         75.0800   44.0590   70.3940 C.3       4 GLP5        0.0000 
     79 CA         81.8593   41.9605   70.4646 C.3       2 GLC5        0.0000 
     80 CA         83.6990   41.9150   70.1860 C.3       4 GLP5        0.0000 
@<TRIPOS>BOND
@<TRIPOS>SUBSTRUCTURE
     1 ALC1        7 GROUP        1 X    ALC  0     ROOT ALC X 1
     2 GLC5        1 GROUP        1 X    GLC  0     **** GLC X 6
     3 ALP1        9 GROUP        1 Y    ALP  0     ROOT ALP Y 8
     4 GLP5        3 GROUP        1 Y    GLP  0     **** GLP Y 13
     5 ALL1        8 GROUP        1 Z    ALL  0     ROOT ALL Z 15
     6 GLL5        2 GROUP        1 Z    GLL  0     **** GLL Z 20
@<TRIPOS>SET

