#    Name: 2qtu_3AS_1_ligand
#    Modification time : Mon Mar 24 22:49:28 2014

@<TRIPOS>MOLECULE
2qtu_3AS_1_ligand
   46    49     1     0     0
SMALL
NO_CHARGES


@<TRIPOS>ATOM
      1 C1         80.6000   42.5230   68.0700 C.ar      1 3AS1        0.0000 
      2 C2         80.6450   42.5640   69.4510 C.ar      1 3AS1        0.0000 
      3 C3         79.7810   41.7960   70.1760 C.ar      1 3AS1        0.0000 
      4 C4         78.8430   40.9790   69.5460 C.ar      1 3AS1        0.0000 
      5 O5         78.0110   40.2480   70.3720 O.3       1 3AS1        0.0000 
      6 C6         77.5250   39.0520   69.7450 C.3       1 3AS1        0.0000 
      7 C8         76.6120   38.2680   70.7200 C.ar      1 3AS1        0.0000 
      8 C9         76.6030   38.5840   72.0860 C.ar      1 3AS1        0.0000 
      9 C10        75.7930   37.8710   72.9670 C.ar      1 3AS1        0.0000 
     10 C11        74.9850   36.8410   72.5040 C.ar      1 3AS1        0.0000 
     11 O12        74.2130   36.1510   73.3720 O.3       1 3AS1        0.0000 
     12 C13        74.9820   36.5220   71.1520 C.ar      1 3AS1        0.0000 
     13 C14        75.7910   37.2320   70.2650 C.ar      1 3AS1        0.0000 
     14 C15        76.8140   39.3880   68.4170 C.3       1 3AS1        0.0000 
     15 C17        77.8040   40.0810   67.4280 C.3       1 3AS1        0.0000 
     16 C19        78.7970   40.9380   68.1610 C.ar      1 3AS1        0.0000 
     17 C20        79.6760   41.7130   67.4260 C.ar      1 3AS1        0.0000 
     18 C21        76.9030   40.9690   66.5510 C.3       1 3AS1        0.0000 
     19 C22        75.5620   41.1300   67.3020 C.3       1 3AS1        0.0000 
     20 F23        75.3010   42.4760   67.4700 F         1 3AS1        0.0000 
     21 F24        74.5270   40.5530   66.5830 F         1 3AS1        0.0000 
     22 C25        75.6920   40.4070   68.6630 C.3       1 3AS1        0.0000 
     23 C26        79.8260   41.8320   71.6730 C.3       1 3AS1        0.0000 
     24 O27        80.6290   40.7550   72.1170 O.3       1 3AS1        0.0000 
     25 C28        80.6160   40.8770   73.5180 C.3       1 3AS1        0.0000 
     26 O29        81.4450   43.2770   67.3500 O.3       1 3AS1        0.0000 
     27 H          81.3299   43.1736   69.9226 H         1 3AS1        0.0000 
     28 H          78.3698   38.3914   69.4998 H         1 3AS1        0.0000 
     29 H          77.1983   39.3460   72.4351 H         1 3AS1        0.0000 
     30 H          75.7949   38.1114   73.9701 H         1 3AS1        0.0000 
     31 H          74.3838   35.7623   70.8024 H         1 3AS1        0.0000 
     32 H          75.7844   36.9911   69.2621 H         1 3AS1        0.0000 
     33 H          76.4237   38.5270   67.9684 H         1 3AS1        0.0000 
     34 H          78.2585   39.3537   66.8329 H         1 3AS1        0.0000 
     35 H          79.6457   41.6898   66.3950 H         1 3AS1        0.0000 
     36 H          76.7280   40.4866   65.6128 H         1 3AS1        0.0000 
     37 H          77.3572   41.9292   66.4271 H         1 3AS1        0.0000 
     38 H          75.9902   41.0991   69.4021 H         1 3AS1        0.0000 
     39 H          74.7903   39.9036   68.8816 H         1 3AS1        0.0000 
     40 H          78.8017   41.7584   72.0516 H         1 3AS1        0.0000 
     41 H          80.2346   42.7987   71.9835 H         1 3AS1        0.0000 
     42 H          81.1596   40.1623   73.9581 H         1 3AS1        0.0000 
     43 H          80.9888   41.7552   73.8178 H         1 3AS1        0.0000 
     44 H          79.6894   40.8102   73.8880 H         1 3AS1        0.0000 
     45 H          74.6007   36.3445   74.2733 H         1 3AS1        0.0000 
     46 H          81.1212   43.1998   66.4070 H         1 3AS1        0.0000 
@<TRIPOS>BOND
     1    2    1 ar   
     2   17    1 ar   
     3   26    1 1    
     4    3    2 ar   
     5   27    2 1    
     6    4    3 ar   
     7   23    3 1    
     8    5    4 1    
     9   16    4 ar   
    10    6    5 1    
    11    7    6 1    
    12   14    6 1    
    13   28    6 1    
    14    8    7 ar   
    15   13    7 ar   
    16    9    8 ar   
    17   29    8 1    
    18   10    9 ar   
    19   30    9 1    
    20   11   10 1    
    21   12   10 ar   
    22   45   11 1    
    23   13   12 ar   
    24   31   12 1    
    25   32   13 1    
    26   15   14 1    
    27   22   14 1    
    28   33   14 1    
    29   16   15 1    
    30   18   15 1    
    31   34   15 1    
    32   17   16 ar   
    33   35   17 1    
    34   19   18 1    
    35   36   18 1    
    36   37   18 1    
    37   20   19 1    
    38   21   19 1    
    39   22   19 1    
    40   38   22 1    
    41   39   22 1    
    42   24   23 1    
    43   40   23 1    
    44   41   23 1    
    45   25   24 1    
    46   42   25 1    
    47   43   25 1    
    48   44   25 1    
    49   46   26 1    
@<TRIPOS>SUBSTRUCTURE
     1 3AS1        1 GROUP   
@<TRIPOS>SET

