#    Name: 1iyz_NDP_1_INTS_M
#    Modification time : Tue Mar 25 08:19:35 2014

@<TRIPOS>MOLECULE
1iyz_NDP_1_INTS_M
   77     0    12     0     0
SMALL
NO_CHARGES


@<TRIPOS>ATOM
      1 N          27.3780  -23.7515 -110.0210 N.am      2 SEC2        0.0000 
      2 N          26.1210  -23.9330 -110.4750 N.am     10 SEL2        0.0000 
      3 N          28.6350  -23.5700 -109.5670 N.am      6 SEP2        0.0000 
      4 CA         23.6760  -19.6150 -108.5330 C.3       4 GLC5        0.0000 
      5 CA         22.8710  -21.1170 -109.3490 C.3      12 GLL5        0.0000 
      6 CA         24.4810  -18.1130 -107.7170 C.3       8 GLP5        0.0000 
      7 N          22.1155  -22.0605 -105.3560 N.am      2 SEC2        0.0000 
      8 N          21.9950  -20.7050 -106.4180 N.am     10 SEL2        0.0000 
      9 N          22.2360  -23.4160 -104.2940 N.am      6 SEP2        0.0000 
     10 O          15.5235  -17.9145 -109.6810 O.2       1 ALC1        0.0000 
     11 O          15.7000  -19.1210 -110.2330 O.2       9 ALL1        0.0000 
     12 O          15.3470  -16.7080 -109.1290 O.2       5 ALP1        0.0000 
     13 CA         17.7140  -22.3730 -108.9775 C.3       4 GLC5        0.0000 
     14 CA         18.2000  -21.6150 -110.8380 C.3      12 GLL5        0.0000 
     15 CA         17.2280  -23.1310 -107.1170 C.3       8 GLP5        0.0000 
     16 CA         24.3210  -17.0085 -112.8195 C.3       4 GLC5        0.0000 
     17 CA         24.2590  -18.9150 -114.0100 C.3      12 GLL5        0.0000 
     18 CA         24.3830  -15.1020 -111.6290 C.3       8 GLP5        0.0000 
     19 CA         21.5640  -18.2815 -114.3690 C.3       4 GLC5        0.0000 
     20 CA         23.2890  -18.6300 -115.1570 C.3      12 GLL5        0.0000 
     21 CA         19.8390  -17.9330 -113.5810 C.3       8 GLP5        0.0000 
     22 CA         26.5385  -16.0260 -115.7045 C.3       4 GLC5        0.0000 
     23 CA         25.3670  -17.7820 -115.7210 C.3      12 GLL5        0.0000 
     24 CA         27.7100  -14.2700 -115.6880 C.3       8 GLP5        0.0000 
     25 N          29.4610  -15.2810 -121.4965 N.am      2 SEC2        0.0000 
     26 N          28.4550  -15.8240 -120.6150 N.am     10 SEL2        0.0000 
     27 N          30.4670  -14.7380 -122.3780 N.am      6 SEP2        0.0000 
     28 O          26.2840  -14.2720 -118.3605 O.2       1 ALC1        0.0000 
     29 O          27.1820  -14.5130 -119.3490 O.2       9 ALL1        0.0000 
     30 O          25.3860  -14.0310 -117.3720 O.2       5 ALP1        0.0000 
     31 O          27.1735  -13.1935 -119.9630 O.2       1 ALC1        0.0000 
     32 O          27.1650  -11.8740 -120.5770 O.2       5 ALP1        0.0000 
     33 CA         28.6580  -18.3335 -114.7380 C.3       4 GLC5        0.0000 
     34 CA         27.6090  -18.7580 -116.5060 C.3      12 GLL5        0.0000 
     35 CA         29.7070  -17.9090 -112.9700 C.3       8 GLP5        0.0000 
     36 NZ         22.3225  -21.6855 -104.1890 N.4       3 LYC4        0.0000 
     37 NZ         22.4090  -19.9550 -104.0840 N.4      11 LYL4        0.0000 
     38 NZ         22.2360  -23.4160 -104.2940 N.4       7 LYP4        0.0000 
     39 N          21.6765  -19.2380 -103.0140 N.am      2 SEC2        0.0000 
     40 N          22.4090  -19.9550 -104.0840 N.am     10 SEL2        0.0000 
     41 N          20.9440  -18.5210 -101.9440 N.am      6 SEP2        0.0000 
     42 NZ         19.3590  -18.7730 -105.6405 N.4       3 LYC4        0.0000 
     43 NZ         20.5840  -18.9270 -105.3720 N.4      11 LYL4        0.0000 
     44 NZ         17.2300  -19.4950 -106.3320 N.4       7 LYP4        0.0000 
     45 N          19.3590  -18.7730 -105.6405 N.am      2 SEC2        0.0000 
     46 N          20.5840  -18.9270 -105.3720 N.am     10 SEL2        0.0000 
     47 N          18.1340  -18.6190 -105.9090 N.am      6 SEP2        0.0000 
     48 N          21.2635  -17.6630 -105.4130 N.am      2 SEC2        0.0000 
     49 N          21.9430  -16.3990 -105.4540 N.am      6 SEP2        0.0000 
     50 NZ         18.9420  -21.0305 -105.5275 N.4       3 LYC4        0.0000 
     51 NZ         20.3650  -21.2720 -104.6560 N.4      11 LYL4        0.0000 
     52 NZ         21.3005  -22.3440 -104.4750 N.4       3 LYC4        0.0000 
     53 N          19.5145  -20.8800 -103.7095 N.am      2 SEC2        0.0000 
     54 N          20.3650  -21.2720 -104.6560 N.am     10 SEL2        0.0000 
     55 N          18.6640  -20.4880 -102.7630 N.am      6 SEP2        0.0000 
     56 N          21.3005  -22.3440 -104.4750 N.am      2 SEC2        0.0000 
     57 N          18.9420  -21.0305 -105.5275 N.am      2 SEC2        0.0000 
     58 N          17.5190  -20.7890 -106.3990 N.am      6 SEP2        0.0000 
     59 CA         22.8975  -19.1313 -107.8960 C.3       4 GLC5        0.0000 
     60 CA         21.2540  -20.8040 -107.6270 C.3      12 GLL5        0.0000 
     61 CA         16.6152  -17.8830 -111.0207 C.3       4 GLC5        0.0000 
     62 CA         17.9970  -19.2530 -109.5920 C.3      12 GLL5        0.0000 
     63 CA         15.7980  -16.2630 -112.1320 C.3       8 GLP5        0.0000 
     64 CA         17.4381  -20.7570 -108.2941 C.3       4 GLC5        0.0000 
     65 CA         16.8680  -19.7530 -110.2270 C.3      12 GLL5        0.0000 
     66 CA         16.5690  -21.7990 -106.8470 C.3       8 GLP5        0.0000 
     67 CA         23.5590  -20.8310 -115.1813 C.3       4 GLC5        0.0000 
     68 CA         24.2290  -20.4370 -113.6430 C.3      12 GLL5        0.0000 
     69 CA         22.8740  -21.9860 -116.5360 C.3       8 GLP5        0.0000 
     70 CA         23.3060  -20.2985 -116.1492 C.3       4 GLC5        0.0000 
     71 CA         29.8670  -19.8742 -118.2562 C.3       4 GLC5        0.0000 
     72 CA         28.7380  -17.7360 -118.3380 C.3      12 GLL5        0.0000 
     73 CA         31.0190  -21.5230 -118.6560 C.3       8 GLP5        0.0000 
     74 CA         27.8306  -15.7631 -116.9403 C.3       4 GLC5        0.0000 
     75 CA         29.9426  -16.9902 -117.1876 C.3       4 GLC5        0.0000 
     76 CA         27.7350  -16.7600 -118.4970 C.3      12 GLL5        0.0000 
     77 CA         31.4210  -15.9990 -116.4790 C.3       8 GLP5        0.0000 
@<TRIPOS>BOND
@<TRIPOS>SUBSTRUCTURE
     1 ALC1       10 GROUP        1 X    ALC  0     ROOT ALC X 1
     2 SEC2        1 GROUP        1 X    SEC  0     **** SEC X 2
     3 LYC4       36 GROUP        1 X    LYC  0     **** LYC X 4
     4 GLC5        4 GROUP        1 X    GLC  0     **** GLC X 6
     5 ALP1       12 GROUP        1 Y    ALP  0     ROOT ALP Y 8
     6 SEP2        3 GROUP        1 Y    SEP  0     **** SEP Y 9
     7 LYP4       38 GROUP        1 Y    LYP  0     **** LYP Y 11
     8 GLP5        6 GROUP        1 Y    GLP  0     **** GLP Y 13
     9 ALL1       11 GROUP        1 Z    ALL  0     ROOT ALL Z 15
    10 SEL2        2 GROUP        1 Z    SEL  0     **** SEL Z 16
    11 LYL4       37 GROUP        1 Z    LYL  0     **** LYL Z 18
    12 GLL5        5 GROUP        1 Z    GLL  0     **** GLL Z 20
@<TRIPOS>SET

