#    Name: 1iyz_NDP_1_ligand
#    Modification time : Tue Mar 25 08:19:35 2014

@<TRIPOS>MOLECULE
1iyz_NDP_1_ligand
   74    78     1     0     0
SMALL
NO_CHARGES


@<TRIPOS>ATOM
      1 PA         25.7100  -22.7920 -110.8290 P.3       1 NDP350      0.0000 
      2 O1A        26.1210  -23.9330 -110.4750 O.co2     1 NDP350      0.0000 
      3 O2A        25.9990  -21.3940 -110.2280 O.co2     1 NDP350      0.0000 
      4 O5B        23.9410  -22.7310 -110.6960 O.3       1 NDP350      0.0000 
      5 C5B        23.0990  -21.6090 -110.7460 C.3       1 NDP350      0.0000 
      6 C4B        22.8710  -21.1170 -109.3490 C.3       1 NDP350      0.0000 
      7 O4B        22.2530  -19.8570 -109.5790 O.3       1 NDP350      0.0000 
      8 C3B        21.8800  -21.9000 -108.4770 C.3       1 NDP350      0.0000 
      9 O3B        22.5690  -22.9980 -107.8230 O.3       1 NDP350      0.0000 
     10 C2B        21.2540  -20.8040 -107.6270 C.3       1 NDP350      0.0000 
     11 O2B        21.9950  -20.7050 -106.4180 O.3       1 NDP350      0.0000 
     12 C1B        21.3740  -19.4950 -108.5230 C.3       1 NDP350      0.0000 
     13 N9A        19.9840  -19.1410 -108.8490 N.pl3     1 NDP350      0.0000 
     14 C8A        19.3050  -18.0610 -108.4600 C.2       1 NDP350      0.0000 
     15 N7A        18.0510  -18.1220 -108.9240 N.2       1 NDP350      0.0000 
     16 C5A        17.9970  -19.2530 -109.5920 C.ar      1 NDP350      0.0000 
     17 C6A        16.8680  -19.7530 -110.2270 C.ar      1 NDP350      0.0000 
     18 N6A        15.7000  -19.1210 -110.2330 N.pl3     1 NDP350      0.0000 
     19 N1A        17.0210  -20.9320 -110.8320 N.ar      1 NDP350      0.0000 
     20 C2A        18.2000  -21.6150 -110.8380 C.ar      1 NDP350      0.0000 
     21 N3A        19.2770  -21.1260 -110.2190 N.ar      1 NDP350      0.0000 
     22 C4A        19.1820  -19.9270 -109.5730 C.ar      1 NDP350      0.0000 
     23 O3         25.6440  -22.2260 -112.2890 O.3       1 NDP350      0.0000 
     24 PN         25.9440  -22.6340 -113.7850 P.3       1 NDP350      0.0000 
     25 O1N        27.2470  -22.2920 -114.3210 O.co2     1 NDP350      0.0000 
     26 O2N        24.7060  -22.8960 -114.5950 O.co2     1 NDP350      0.0000 
     27 O5D        25.5260  -21.0590 -113.9850 O.3       1 NDP350      0.0000 
     28 C5D        24.2290  -20.4370 -113.6430 C.3       1 NDP350      0.0000 
     29 C4D        24.2590  -18.9150 -114.0100 C.3       1 NDP350      0.0000 
     30 O4D        25.5610  -18.5460 -114.5100 O.3       1 NDP350      0.0000 
     31 C3D        23.2890  -18.6300 -115.1570 C.3       1 NDP350      0.0000 
     32 O3D        22.5930  -17.4190 -114.8770 O.3       1 NDP350      0.0000 
     33 C2D        24.1870  -18.5920 -116.3680 C.3       1 NDP350      0.0000 
     34 O2D        23.5520  -17.9940 -117.4870 O.3       1 NDP350      0.0000 
     35 C1D        25.3670  -17.7820 -115.7210 C.3       1 NDP350      0.0000 
     36 N1N        26.5710  -17.8120 -116.6130 N.pl3     1 NDP350      0.0000 
     37 C2N        26.5940  -16.7930 -117.5970 C.2       1 NDP350      0.0000 
     38 C3N        27.7350  -16.7600 -118.4970 C.2       1 NDP350      0.0000 
     39 C7N        27.8150  -15.7020 -119.5410 C.2       1 NDP350      0.0000 
     40 O7N        28.4550  -15.8240 -120.6150 O.2       1 NDP350      0.0000 
     41 N7N        27.1820  -14.5130 -119.3490 N.am      1 NDP350      0.0000 
     42 C4N        28.7380  -17.7360 -118.3380 C.3       1 NDP350      0.0000 
     43 C5N        28.6920  -18.7150 -117.3750 C.2       1 NDP350      0.0000 
     44 C6N        27.6090  -18.7580 -116.5060 C.2       1 NDP350      0.0000 
     45 P2B        21.2790  -20.1700 -105.0130 P.3       1 NDP350      0.0000 
     46 O1X        22.4090  -19.9550 -104.0840 O.co2     1 NDP350      0.0000 
     47 O2X        20.5840  -18.9270 -105.3720 O.co2     1 NDP350      0.0000 
     48 O3X        20.3650  -21.2720 -104.6560 O.co2     1 NDP350      0.0000 
     49 H          22.1229  -21.8461 -111.1891 H         1 NDP350      0.0000 
     50 H          23.5387  -20.7899 -111.3300 H         1 NDP350      0.0000 
     51 H          23.7866  -20.9836 -108.8424 H         1 NDP350      0.0000 
     52 H          21.1144  -22.2551 -109.1734 H         1 NDP350      0.0000 
     53 H          20.2323  -21.0143 -107.5019 H         1 NDP350      0.0000 
     54 H          21.8074  -18.7669 -107.8541 H         1 NDP350      0.0000 
     55 H          19.6673  -17.3310 -107.9162 H         1 NDP350      0.0000 
     56 H          15.7399  -18.1224 -110.2001 H         1 NDP350      0.0000 
     57 H          14.8861  -19.7009 -110.2698 H         1 NDP350      0.0000 
     58 H          18.2495  -22.5345 -111.3381 H         1 NDP350      0.0000 
     59 H          24.0250  -20.5153 -112.5792 H         1 NDP350      0.0000 
     60 H          23.4161  -20.8940 -114.1996 H         1 NDP350      0.0000 
     61 H          23.9797  -18.3461 -113.1687 H         1 NDP350      0.0000 
     62 H          22.6444  -19.4829 -115.2307 H         1 NDP350      0.0000 
     63 H          24.5526  -19.5819 -116.5160 H         1 NDP350      0.0000 
     64 H          25.0180  -16.8216 -115.5274 H         1 NDP350      0.0000 
     65 H          25.8675  -16.1195 -117.6827 H         1 NDP350      0.0000 
     66 H          27.2807  -13.8388 -120.0809 H         1 NDP350      0.0000 
     67 H          26.6739  -14.4182 -118.4929 H         1 NDP350      0.0000 
     68 H          29.7669  -17.1756 -118.2592 H         1 NDP350      0.0000 
     69 H          28.9078  -18.2417 -119.3841 H         1 NDP350      0.0000 
     70 H          29.4433  -19.4076 -117.2932 H         1 NDP350      0.0000 
     71 H          27.5570  -19.4818 -115.7772 H         1 NDP350      0.0000 
     72 H          22.9192  -22.6120 -106.9696 H         1 NDP350      0.0000 
     73 H          23.2787  -16.8142 -114.4720 H         1 NDP350      0.0000 
     74 H          22.8199  -17.4334 -117.0999 H         1 NDP350      0.0000 
@<TRIPOS>BOND
     1    2    1 ar   
     2    3    1 ar   
     3    4    1 1    
     4   23    1 1    
     5    5    4 1    
     6    6    5 1    
     7   49    5 1    
     8   50    5 1    
     9    7    6 1    
    10    8    6 1    
    11   51    6 1    
    12   12    7 1    
    13    9    8 1    
    14   10    8 1    
    15   52    8 1    
    16   72    9 1    
    17   11   10 1    
    18   12   10 1    
    19   53   10 1    
    20   45   11 1    
    21   13   12 1    
    22   54   12 1    
    23   14   13 1    
    24   22   13 1    
    25   15   14 2    
    26   55   14 1    
    27   16   15 1    
    28   17   16 ar   
    29   22   16 ar   
    30   18   17 1    
    31   19   17 ar   
    32   56   18 1    
    33   57   18 1    
    34   20   19 ar   
    35   21   20 ar   
    36   58   20 1    
    37   22   21 ar   
    38   24   23 1    
    39   25   24 ar   
    40   26   24 ar   
    41   27   24 1    
    42   28   27 1    
    43   29   28 1    
    44   59   28 1    
    45   60   28 1    
    46   30   29 1    
    47   31   29 1    
    48   61   29 1    
    49   35   30 1    
    50   32   31 1    
    51   33   31 1    
    52   62   31 1    
    53   73   32 1    
    54   34   33 1    
    55   35   33 1    
    56   63   33 1    
    57   74   34 1    
    58   36   35 1    
    59   64   35 1    
    60   37   36 1    
    61   44   36 1    
    62   38   37 2    
    63   65   37 1    
    64   39   38 1    
    65   42   38 1    
    66   40   39 2    
    67   41   39 am   
    68   66   41 1    
    69   67   41 1    
    70   43   42 1    
    71   68   42 1    
    72   69   42 1    
    73   44   43 2    
    74   70   43 1    
    75   71   44 1    
    76   46   45 ar   
    77   47   45 ar   
    78   48   45 ar   
@<TRIPOS>SUBSTRUCTURE
     1 NDP350      1 GROUP   
@<TRIPOS>SET

