#    Name: 1w29_TS1_1_INTS_M
#    Modification time : Tue Mar 25 08:31:19 2014

@<TRIPOS>MOLECULE
1w29_TS1_1_INTS_M
   83     0    12     0     0
SMALL
NO_CHARGES


@<TRIPOS>ATOM
      1 N         -25.4535   -3.4435    7.9800 N.am      2 SEC2        0.0000 
      2 N         -25.0960   -3.6640    6.5880 N.am     10 SEL2        0.0000 
      3 N         -25.8110   -3.2230    9.3720 N.am      6 SEP2        0.0000 
      4 O         -23.3115   -4.3230    4.7915 O.2       1 ALC1        0.0000 
      5 O         -23.5920   -3.0330    5.0640 O.2       9 ALL1        0.0000 
      6 O         -23.0310   -5.6130    4.5190 O.2       5 ALP1        0.0000 
      7 CA        -25.1000   -0.7280    4.5020 C.3       4 GLC5        0.0000 
      8 CA        -23.9360   -0.5100    5.8830 C.3      12 GLL5        0.0000 
      9 CA        -26.2640   -0.9460    3.1210 C.3       8 GLP5        0.0000 
     10 CA        -24.0585   -0.9175    3.5615 C.3       4 GLC5        0.0000 
     11 CA        -22.9950   -0.7670    4.7920 C.3      12 GLL5        0.0000 
     12 CA        -25.1220   -1.0680    2.3310 C.3       8 GLP5        0.0000 
     13 CA        -21.1670   -1.9575    5.3275 C.3       4 GLC5        0.0000 
     14 CA        -19.3390   -3.1480    5.8630 C.3       8 GLP5        0.0000 
     15 N         -22.7920   -3.2745    2.1710 N.am      2 SEC2        0.0000 
     16 N         -22.1200   -2.5550    3.5170 N.am     10 SEL2        0.0000 
     17 N         -23.4640   -3.9940    0.8250 N.am      6 SEP2        0.0000 
     18 CA        -25.4215    1.5850    5.0010 C.3       4 GLC5        0.0000 
     19 CA        -24.6750    1.6480    7.0880 C.3      12 GLL5        0.0000 
     20 CA        -26.1680    1.5220    2.9140 C.3       8 GLP5        0.0000 
     21 CA        -26.5670   -0.4480    8.3570 C.3       4 GLC5        0.0000 
     22 CA        -25.4410    1.1330    8.2490 C.3      12 GLL5        0.0000 
     23 CA        -27.6930   -2.0290    8.4650 C.3       8 GLP5        0.0000 
     24 CA        -24.1765    0.7515    9.9410 C.3       4 GLC5        0.0000 
     25 CA        -22.9120    0.3700   11.6330 C.3       8 GLP5        0.0000 
     26 CA        -25.0040    1.3100   10.8135 C.3       4 GLC5        0.0000 
     27 CA        -25.7710    2.2650    9.2190 C.3      12 GLL5        0.0000 
     28 CA        -24.2370    0.3550   12.4080 C.3       8 GLP5        0.0000 
     29 CA        -27.6870    5.5255   11.2835 C.3       4 GLC5        0.0000 
     30 CA        -26.4790    4.6360    9.7600 C.3      12 GLL5        0.0000 
     31 CA        -28.8950    6.4150   12.8070 C.3       8 GLP5        0.0000 
     32 CA        -25.3335    5.7630   11.0555 C.3       4 GLC5        0.0000 
     33 CA        -24.1880    6.8900   12.3510 C.3       8 GLP5        0.0000 
     34 CA        -27.4700    6.2200    9.5505 C.3       4 GLC5        0.0000 
     35 CA        -28.4610    7.8040    9.3410 C.3       8 GLP5        0.0000 
     36 N         -26.0460    5.1645   11.8920 N.am      2 SEC2        0.0000 
     37 N         -26.6690    4.1210   11.0940 N.am     10 SEL2        0.0000 
     38 N         -25.4230    6.2080   12.6900 N.am      6 SEP2        0.0000 
     39 O         -27.4070    2.9950   11.5735 O.2       1 ALC1        0.0000 
     40 O         -26.6690    4.1210   11.0940 O.2       9 ALL1        0.0000 
     41 O         -28.1450    1.8690   12.0530 O.2       5 ALP1        0.0000 
     42 O         -24.0815    5.4275    9.5175 O.2       1 ALC1        0.0000 
     43 O         -24.1730    4.1020    9.1060 O.2       9 ALL1        0.0000 
     44 O         -23.9900    6.7530    9.9290 O.2       5 ALP1        0.0000 
     45 O         -27.9355    1.1410    9.9730 O.2       1 ALC1        0.0000 
     46 O         -27.1560    2.1250    9.1750 O.2       9 ALL1        0.0000 
     47 O         -28.7150    0.1570   10.7710 O.2       5 ALP1        0.0000 
     48 O         -27.6505    1.9970   10.6140 O.2       1 ALC1        0.0000 
     49 N         -24.8235   -0.8835   10.3095 N.am      2 SEC2        0.0000 
     50 N         -24.8430    0.0780    8.9960 N.am     10 SEL2        0.0000 
     51 N         -24.8040   -1.8450   11.6230 N.am      6 SEP2        0.0000 
     52 N         -23.4055    3.5015    3.9950 N.am      2 SEC2        0.0000 
     53 N         -22.9080    2.5040    5.3010 N.am     10 SEL2        0.0000 
     54 N         -23.9030    4.4990    2.6890 N.am      6 SEP2        0.0000 
     55 CA        -23.0060    0.3645    2.6465 C.3       4 GLC5        0.0000 
     56 CA        -21.5010    0.6460    3.4260 C.3      12 GLL5        0.0000 
     57 CA        -24.5110    0.0830    1.8670 C.3       8 GLP5        0.0000 
     58 CA        -19.7120   -1.4050    4.8665 C.3       4 GLC5        0.0000 
     59 CA        -20.0850    0.3380    3.8700 C.3      12 GLL5        0.0000 
     60 CA        -17.7235    1.2055   -0.0610 C.3       4 GLC5        0.0000 
     61 CA        -19.2750    1.4830    1.2640 C.3      12 GLL5        0.0000 
     62 CA        -16.1720    0.9280   -1.3860 C.3       8 GLP5        0.0000 
     63 N         -15.5585    4.3520    0.3150 N.am      2 SEC2        0.0000 
     64 N         -16.9640    3.9060    0.8340 N.am     10 SEL2        0.0000 
     65 N         -14.1530    4.7980   -0.2040 N.am      6 SEP2        0.0000 
     66 N         -16.4365    4.9510    1.5110 N.am      2 SEC2        0.0000 
     67 N         -15.9090    5.9960    2.1880 N.am      6 SEP2        0.0000 
     68 NZ        -19.3345    6.3945   -0.0955 N.4       3 LYC4        0.0000 
     69 NZ        -19.3350    4.9780    0.4080 N.4      11 LYL4        0.0000 
     70 NZ        -18.7820    7.9590   -1.8020 N.4       7 LYP4        0.0000 
     71 N         -19.3345    6.3945   -0.0955 N.am      2 SEC2        0.0000 
     72 N         -19.3350    4.9780    0.4080 N.am     10 SEL2        0.0000 
     73 N         -19.3340    7.8110   -0.5990 N.am      6 SEP2        0.0000 
     74 N         -16.5710    3.4990   -1.7500 N.am      2 SEC2        0.0000 
     75 N         -18.0120    3.9690   -1.4590 N.am     10 SEL2        0.0000 
     76 N         -15.1300    3.0290   -2.0410 N.am      6 SEP2        0.0000 
     77 N         -18.0955    5.4495   -1.9185 N.am      2 SEC2        0.0000 
     78 N         -18.1790    6.9300   -2.3780 N.am      6 SEP2        0.0000 
     79 CA        -19.7677    2.3770    4.7585 C.3       4 GLC5        0.0000 
     80 CA        -19.2460    1.1020    2.8580 C.3      12 GLL5        0.0000 
     81 CA        -19.8700    4.0340    6.1530 C.3       8 GLP5        0.0000 
     82 CA        -17.8047    0.5810    4.4645 C.3       4 GLC5        0.0000 
     83 CA        -15.9440    0.4420    5.5650 C.3       8 GLP5        0.0000 
@<TRIPOS>BOND
@<TRIPOS>SUBSTRUCTURE
     1 ALC1        4 GROUP        1 X    ALC  0     ROOT ALC X 1
     2 SEC2        1 GROUP        1 X    SEC  0     **** SEC X 2
     3 LYC4       68 GROUP        1 X    LYC  0     **** LYC X 4
     4 GLC5        7 GROUP        1 X    GLC  0     **** GLC X 6
     5 ALP1        6 GROUP        1 Y    ALP  0     ROOT ALP Y 8
     6 SEP2        3 GROUP        1 Y    SEP  0     **** SEP Y 9
     7 LYP4       70 GROUP        1 Y    LYP  0     **** LYP Y 11
     8 GLP5        9 GROUP        1 Y    GLP  0     **** GLP Y 13
     9 ALL1        5 GROUP        1 Z    ALL  0     ROOT ALL Z 15
    10 SEL2        2 GROUP        1 Z    SEL  0     **** SEL Z 16
    11 LYL4       69 GROUP        1 Z    LYL  0     **** LYL Z 18
    12 GLL5        8 GROUP        1 Z    GLL  0     **** GLL Z 20
@<TRIPOS>SET

