#    Name: 1w29_TS1_1_ligand
#    Modification time : Tue Mar 25 08:31:19 2014

@<TRIPOS>MOLECULE
1w29_TS1_1_ligand
   51    52     1     0     0
SMALL
NO_CHARGES


@<TRIPOS>ATOM
      1 O2        -25.0960   -3.6640    6.5880 O.2       1 TS11162     0.0000 
      2 C2        -24.4490   -2.7510    6.0680 C.2       1 TS11162     0.0000 
      3 N3        -23.5920   -3.0330    5.0640 N.am      1 TS11162     0.0000 
      4 N1        -24.6530   -1.5460    6.5160 N.am      1 TS11162     0.0000 
      5 C8        -23.9360   -0.5100    5.8830 C.2       1 TS11162     0.0000 
      6 C9        -22.9950   -0.7670    4.7920 C.2       1 TS11162     0.0000 
      7 C4        -22.8660   -2.1650    4.4170 C.2       1 TS11162     0.0000 
      8 O4        -22.1200   -2.5550    3.5170 O.2       1 TS11162     0.0000 
      9 N7        -23.9730    0.7650    6.1540 N.am      1 TS11162     0.0000 
     10 C10       -24.6750    1.6480    7.0880 C.3       1 TS11162     0.0000 
     11 C11       -25.4410    1.1330    8.2490 C.3       1 TS11162     0.0000 
     12 C12       -25.7710    2.2650    9.2190 C.3       1 TS11162     0.0000 
     13 C13       -25.5340    3.7600    8.9090 C.3       1 TS11162     0.0000 
     14 C14       -26.4790    4.6360    9.7600 C.3       1 TS11162     0.0000 
     15 O26       -26.6690    4.1210   11.0940 O.3       1 TS11162     0.0000 
     16 O23       -24.1730    4.1020    9.1060 O.3       1 TS11162     0.0000 
     17 O21       -27.1560    2.1250    9.1750 O.3       1 TS11162     0.0000 
     18 O19       -24.8430    0.0780    8.9960 O.3       1 TS11162     0.0000 
     19 C6        -23.0960    1.2520    5.2890 C.2       1 TS11162     0.0000 
     20 O6        -22.9080    2.5040    5.3010 O.2       1 TS11162     0.0000 
     21 N5        -22.4870    0.3960    4.4460 N.am      1 TS11162     0.0000 
     22 C15       -21.5010    0.6460    3.4260 C.3       1 TS11162     0.0000 
     23 C16       -20.0850    0.3380    3.8700 C.3       1 TS11162     0.0000 
     24 C17       -19.2460    1.1020    2.8580 C.3       1 TS11162     0.0000 
     25 C18       -19.2750    1.4830    1.2640 C.3       1 TS11162     0.0000 
     26 O27       -18.9360    2.6400    0.3780 O.3       1 TS11162     0.0000 
     27 P         -18.2360    4.0670   -0.0120 P.3       1 TS11162     0.0000 
     28 O33       -16.9640    3.9060    0.8340 O.co2     1 TS11162     0.0000 
     29 O31       -19.3350    4.9780    0.4080 O.co2     1 TS11162     0.0000 
     30 O32       -18.0120    3.9690   -1.4590 O.co2     1 TS11162     0.0000 
     31 H         -23.5133   -4.0818    4.7837 H         1 TS11162     0.0000 
     32 H         -25.2839   -1.3095    7.2782 H         1 TS11162     0.0000 
     33 H         -25.3794    2.3303    6.4809 H         1 TS11162     0.0000 
     34 H         -23.9224    2.4267    7.4849 H         1 TS11162     0.0000 
     35 H         -26.4412    0.7883    7.8732 H         1 TS11162     0.0000 
     36 H         -25.4325    2.0154   10.1934 H         1 TS11162     0.0000 
     37 H         -25.8256    3.9085    7.8587 H         1 TS11162     0.0000 
     38 H         -27.4390    4.7075    9.2162 H         1 TS11162     0.0000 
     39 H         -26.0524    5.6558    9.7799 H         1 TS11162     0.0000 
     40 H         -21.5319    1.7072    3.0983 H         1 TS11162     0.0000 
     41 H         -21.7115    0.0431    2.5168 H         1 TS11162     0.0000 
     42 H         -19.8951   -0.6994    3.7848 H         1 TS11162     0.0000 
     43 H         -19.9168    0.7234    4.8409 H         1 TS11162     0.0000 
     44 H         -18.0991    0.7033    3.0033 H         1 TS11162     0.0000 
     45 H         -19.0004    2.1834    3.3735 H         1 TS11162     0.0000 
     46 H         -20.3980    1.1183    0.9424 H         1 TS11162     0.0000 
     47 H         -18.7477    0.4982    0.7642 H         1 TS11162     0.0000 
     48 H         -27.2304    3.3017   10.9775 H         1 TS11162     0.0000 
     49 H         -24.1875    5.0519    9.4182 H         1 TS11162     0.0000 
     50 H         -27.3623    1.3900    9.8209 H         1 TS11162     0.0000 
     51 H         -23.8855    0.3465    9.1020 H         1 TS11162     0.0000 
@<TRIPOS>BOND
     1    2    1 2    
     2    3    2 1    
     3    4    2 1    
     4    7    3 1    
     5   31    3 1    
     6    5    4 1    
     7   32    4 1    
     8    6    5 2    
     9    9    5 1    
    10    7    6 1    
    11   21    6 1    
    12    8    7 2    
    13   10    9 1    
    14   19    9 am   
    15   11   10 1    
    16   33   10 1    
    17   34   10 1    
    18   12   11 1    
    19   18   11 1    
    20   35   11 1    
    21   13   12 1    
    22   17   12 1    
    23   36   12 1    
    24   14   13 1    
    25   16   13 1    
    26   37   13 1    
    27   15   14 1    
    28   38   14 1    
    29   39   14 1    
    30   48   15 1    
    31   49   16 1    
    32   50   17 1    
    33   51   18 1    
    34   20   19 2    
    35   21   19 am   
    36   22   21 1    
    37   23   22 1    
    38   40   22 1    
    39   41   22 1    
    40   24   23 1    
    41   42   23 1    
    42   43   23 1    
    43   25   24 1    
    44   44   24 1    
    45   45   24 1    
    46   26   25 1    
    47   46   25 1    
    48   47   25 1    
    49   27   26 1    
    50   28   27 ar   
    51   29   27 ar   
    52   30   27 ar   
@<TRIPOS>SUBSTRUCTURE
     1 TS11162     1 GROUP   
@<TRIPOS>SET

