#    Name: 3da6_BZ9_1_INTS_M
#    Modification time : Mon Mar 24 22:58:29 2014

@<TRIPOS>MOLECULE
3da6_BZ9_1_INTS_M
   99     0     9     0     0
SMALL
NO_CHARGES


@<TRIPOS>ATOM
      1 N         -20.5370   16.7700  -33.0445 N.am      2 SEC2        0.0000 
      2 N         -19.2570   17.1450  -33.1670 N.am      8 SEL2        0.0000 
      3 N         -21.8170   16.3950  -32.9220 N.am      5 SEP2        0.0000 
      4 CA        -17.0810   22.0455  -35.4975 C.3       3 GLC5        0.0000 
      5 CA        -17.5670   20.2010  -35.3850 C.3       9 GLL5        0.0000 
      6 CA        -16.5950   23.8900  -35.6100 C.3       6 GLP5        0.0000 
      7 CA        -18.2895   22.0370  -36.0935 C.3       3 GLC5        0.0000 
      8 CA        -18.9820   20.0290  -35.4140 C.3       9 GLL5        0.0000 
      9 CA        -17.5970   24.0450  -36.7730 C.3       6 GLP5        0.0000 
     10 CA        -16.3465   13.1350  -36.1440 C.3       3 GLC5        0.0000 
     11 CA        -18.4510   13.2750  -35.3900 C.3       9 GLL5        0.0000 
     12 CA        -14.2420   12.9950  -36.8980 C.3       6 GLP5        0.0000 
     13 CA        -18.0140   14.0650  -37.0660 C.3       3 GLC5        0.0000 
     14 CA        -17.5770   14.8550  -38.7420 C.3       6 GLP5        0.0000 
     15 CA        -22.0565   12.1420  -34.5490 C.3       3 GLC5        0.0000 
     16 CA        -19.9060   11.8580  -34.1710 C.3       9 GLL5        0.0000 
     17 CA        -24.2070   12.4260  -34.9270 C.3       6 GLP5        0.0000 
     18 CA        -23.3105   11.6725  -33.3350 C.3       3 GLC5        0.0000 
     19 CA        -22.4140   10.9190  -31.7430 C.3       9 GLL5        0.0000 
     20 CA        -23.2900    7.6495  -33.3925 C.3       3 GLC5        0.0000 
     21 CA        -22.0180    8.5020  -31.9280 C.3       9 GLL5        0.0000 
     22 CA        -24.5620    6.7970  -34.8570 C.3       6 GLP5        0.0000 
     23 CA        -20.9825    8.0830  -30.0040 C.3       3 GLC5        0.0000 
     24 CA        -19.9470    7.6640  -28.0800 C.3       6 GLP5        0.0000 
     25 CA        -23.4610    4.0640  -28.8280 C.3       3 GLC5        0.0000 
     26 CA        -23.8990    4.8560  -30.7440 C.3       9 GLL5        0.0000 
     27 CA        -23.0230    3.2720  -26.9120 C.3       6 GLP5        0.0000 
     28 O         -21.9660    3.6255  -31.5820 O.2       1 ALC1        0.0000 
     29 O         -22.5790    4.9760  -31.3970 O.2       7 ALL1        0.0000 
     30 O         -21.3530    2.2750  -31.7670 O.2       4 ALP1        0.0000 
     31 CA        -23.2700    6.4645  -33.2980 C.3       3 GLC5        0.0000 
     32 CA        -21.9780    6.1320  -31.7390 C.3       9 GLL5        0.0000 
     33 CA        -22.0330    4.9765  -33.3635 C.3       3 GLC5        0.0000 
     34 CA        -22.0880    3.8210  -34.9880 C.3       6 GLP5        0.0000 
     35 CA        -20.2270    4.9975  -31.1170 C.3       3 GLC5        0.0000 
     36 CA        -18.4760    3.8630  -30.4950 C.3       6 GLP5        0.0000 
     37 CA        -20.9625    6.8980  -29.9095 C.3       3 GLC5        0.0000 
     38 N         -20.0155    4.8240  -32.5485 N.am      2 SEC2        0.0000 
     39 N         -20.7910    6.1080  -32.3360 N.am      8 SEL2        0.0000 
     40 N         -19.2400    3.5400  -32.7610 N.am      5 SEP2        0.0000 
     41 CA        -18.6900    5.9010  -31.8005 C.3       3 GLC5        0.0000 
     42 CA        -20.1910    7.2220  -32.6380 C.3       9 GLL5        0.0000 
     43 CA        -17.1890    4.5800  -30.9630 C.3       6 GLP5        0.0000 
     44 CA        -19.4245    9.4725  -31.2090 C.3       3 GLC5        0.0000 
     45 CA        -20.7130    8.5020  -32.4940 C.3       9 GLL5        0.0000 
     46 CA        -18.1360   10.4430  -29.9240 C.3       6 GLP5        0.0000 
     47 CA        -20.3900   12.9975  -27.5535 C.3       3 GLC5        0.0000 
     48 CA        -21.1060   12.7550  -29.4500 C.3       9 GLL5        0.0000 
     49 CA        -19.6740   13.2400  -25.6570 C.3       6 GLP5        0.0000 
     50 CA        -18.0045   15.4660  -35.7745 C.3       3 GLC5        0.0000 
     51 CA        -18.2620   14.0740  -34.2710 C.3       9 GLL5        0.0000 
     52 CA        -17.7470   16.8580  -37.2780 C.3       6 GLP5        0.0000 
     53 O         -16.9130   15.3025  -30.9785 O.2       1 ALC1        0.0000 
     54 O         -18.1020   15.6920  -31.7760 O.2       7 ALL1        0.0000 
     55 O         -15.7240   14.9130  -30.1810 O.2       4 ALP1        0.0000 
     56 CA        -17.4558   17.8370  -35.7437 C.3       3 GLC5        0.0000 
     57 CA        -16.8280   19.3150  -34.5840 C.3       9 GLL5        0.0000 
     58 CA        -18.9592   20.3910  -36.8593 C.3       3 GLC5        0.0000 
     59 CA        -19.6440   20.6670  -38.3190 C.3       6 GLP5        0.0000 
     60 CA        -15.7054   20.1513  -33.8301 C.3       3 GLC5        0.0000 
     61 CA        -14.0450   20.7940  -32.8630 C.3       6 GLP5        0.0000 
     62 CA        -18.0108   18.4865  -36.3388 C.3       3 GLC5        0.0000 
     63 CA        -20.6393   17.6515  -34.3293 C.3       3 GLC5        0.0000 
     64 CA        -19.6400   19.0140  -34.7280 C.3       9 GLL5        0.0000 
     65 CA        -22.0090   16.7100  -34.3340 C.3       6 GLP5        0.0000 
     66 CA        -20.1937   18.7535  -36.0132 C.3       3 GLC5        0.0000 
     67 CA        -21.1180   18.9140  -37.7020 C.3       6 GLP5        0.0000 
     68 CA        -18.5083   17.7255  -35.8012 C.3       3 GLC5        0.0000 
     69 CA        -18.5373   10.8977  -33.6025 C.3       3 GLC5        0.0000 
     70 CA        -19.7590   12.6610  -33.0490 C.3       9 GLL5        0.0000 
     71 CA        -17.2420    9.5360  -33.5950 C.3       6 GLP5        0.0000 
     72 CA        -19.1190   11.4703  -31.1943 C.3       3 GLC5        0.0000 
     73 CA        -18.0385   11.1220  -34.4873 C.3       3 GLC5        0.0000 
     74 CA        -20.6512   13.2350  -35.9866 C.3       3 GLC5        0.0000 
     75 CA        -19.2190   12.1410  -35.3690 C.3       9 GLL5        0.0000 
     76 CA        -21.9320   14.1870  -37.1980 C.3       6 GLP5        0.0000 
     77 CA        -18.0293   13.4612  -30.2688 C.3       3 GLC5        0.0000 
     78 CA        -18.8540   14.5980  -31.9150 C.3       9 GLL5        0.0000 
     79 CA        -16.8430   12.4820  -29.1920 C.3       6 GLP5        0.0000 
     80 CA        -23.6515    9.8407  -33.7462 C.3       3 GLC5        0.0000 
     81 CA        -22.8340    9.6020  -31.7690 C.3       9 GLL5        0.0000 
     82 CA        -23.7760   10.2000  -35.7240 C.3       6 GLP5        0.0000 
     83 CA        -25.2945    8.6655  -33.1452 C.3       3 GLC5        0.0000 
     84 CA        -24.2200    9.3610  -31.7680 C.3       9 GLL5        0.0000 
     85 CA        -25.9490    7.4110  -34.5710 C.3       6 GLP5        0.0000 
     86 CA        -26.1818    9.7923  -31.2526 C.3       3 GLC5        0.0000 
     87 CA        -27.7800    8.7500  -30.8360 C.3       6 GLP5        0.0000 
     88 CA        -24.5003   11.7700  -33.2860 C.3       3 GLC5        0.0000 
     89 CA        -25.0600   10.4790  -31.6710 C.3       9 GLL5        0.0000 
     90 CA        -20.9461    7.6470  -34.3132 C.3       3 GLC5        0.0000 
     91 CA        -21.1140    7.4320  -36.2020 C.3       6 GLP5        0.0000 
     92 CA        -18.8470    8.6990  -33.0805 C.3       3 GLC5        0.0000 
     93 CA        -19.4318   11.6913  -30.0082 C.3       3 GLC5        0.0000 
     94 CA        -20.3490   13.1240  -30.7350 C.3       9 GLL5        0.0000 
     95 CA        -20.5315   14.5594  -34.3740 C.3       3 GLC5        0.0000 
     96 CA        -18.9370   13.7900  -33.0770 C.3       9 GLL5        0.0000 
     97 CA        -22.2580   15.4690  -35.0810 C.3       6 GLP5        0.0000 
     98 CA        -16.7284   13.2856  -33.5384 C.3       3 GLC5        0.0000 
     99 CA        -14.8100   12.8390  -33.1230 C.3       6 GLP5        0.0000 
@<TRIPOS>BOND
@<TRIPOS>SUBSTRUCTURE
     1 ALC1       28 GROUP        1 X    ALC  0     ROOT ALC X 1
     2 SEC2        1 GROUP        1 X    SEC  0     **** SEC X 2
     3 GLC5        4 GROUP        1 X    GLC  0     **** GLC X 6
     4 ALP1       30 GROUP        1 Y    ALP  0     ROOT ALP Y 8
     5 SEP2        3 GROUP        1 Y    SEP  0     **** SEP Y 9
     6 GLP5        6 GROUP        1 Y    GLP  0     **** GLP Y 13
     7 ALL1       29 GROUP        1 Z    ALL  0     ROOT ALL Z 15
     8 SEL2        2 GROUP        1 Z    SEL  0     **** SEL Z 16
     9 GLL5        5 GROUP        1 Z    GLL  0     **** GLL Z 20
@<TRIPOS>SET

