#    Name: 3da6_BZ9_1_ligand
#    Modification time : Mon Mar 24 22:58:29 2014

@<TRIPOS>MOLECULE
3da6_BZ9_1_ligand
   59    64     1     0     0
SMALL
NO_CHARGES


@<TRIPOS>ATOM
      1 N1        -19.2570   17.1450  -33.1670 N.2       1 BZ91        0.0000 
      2 C4        -17.5010   18.3170  -33.8350 C.ar      1 BZ91        0.0000 
      3 C5        -16.8280   19.3150  -34.5840 C.ar      1 BZ91        0.0000 
      4 C6        -17.5670   20.2010  -35.3850 C.ar      1 BZ91        0.0000 
      5 C7        -18.9820   20.0290  -35.4140 C.ar      1 BZ91        0.0000 
      6 C8        -19.6400   19.0140  -34.7280 C.ar      1 BZ91        0.0000 
      7 C10       -19.7590   12.6610  -33.0490 C.ar      1 BZ91        0.0000 
      8 C13       -18.4510   13.2750  -35.3900 C.ar      1 BZ91        0.0000 
      9 C15       -19.9060   11.8580  -34.1710 C.ar      1 BZ91        0.0000 
     10 C17       -20.4450   12.3340  -31.8800 C.ar      1 BZ91        0.0000 
     11 C20       -18.8540   14.5980  -31.9150 C.ar      1 BZ91        0.0000 
     12 C21       -22.8340    9.6020  -31.7690 C.ar      1 BZ91        0.0000 
     13 C22       -24.2200    9.3610  -31.7680 C.ar      1 BZ91        0.0000 
     14 C24       -24.5270   11.7490  -31.6190 C.ar      1 BZ91        0.0000 
     15 C26       -22.4140   10.9190  -31.7430 C.ar      1 BZ91        0.0000 
     16 C28       -22.0180    8.5020  -31.9280 C.ar      1 BZ91        0.0000 
     17 C35       -23.8990    4.8560  -30.7440 C.3       1 BZ91        0.0000 
     18 N34       -22.5790    4.9760  -31.3970 N.pl3     1 BZ91        0.0000 
     19 C32       -21.9780    6.1320  -31.7390 C.ar      1 BZ91        0.0000 
     20 N27       -22.5580    7.3150  -31.5900 N.ar      1 BZ91        0.0000 
     21 N31       -20.7910    6.1080  -32.3360 N.ar      1 BZ91        0.0000 
     22 C30       -20.1910    7.2220  -32.6380 C.ar      1 BZ91        0.0000 
     23 C29       -20.7130    8.5020  -32.4940 C.ar      1 BZ91        0.0000 
     24 C23       -25.0600   10.4790  -31.6710 C.ar      1 BZ91        0.0000 
     25 N25       -23.1970   11.9400  -31.6790 N.ar      1 BZ91        0.0000 
     26 O33       -21.1250   11.1470  -31.8350 O.3       1 BZ91        0.0000 
     27 C18       -20.3490   13.1240  -30.7350 C.ar      1 BZ91        0.0000 
     28 C36       -21.1060   12.7550  -29.4500 C.3       1 BZ91        0.0000 
     29 C19       -19.5770   14.2830  -30.7760 C.ar      1 BZ91        0.0000 
     30 C14       -19.2190   12.1410  -35.3690 C.ar      1 BZ91        0.0000 
     31 C12       -18.2620   14.0740  -34.2710 C.ar      1 BZ91        0.0000 
     32 C11       -18.9370   13.7900  -33.0770 C.ar      1 BZ91        0.0000 
     33 N16       -18.1020   15.6920  -31.7760 N.pl3     1 BZ91        0.0000 
     34 C9        -18.1350   16.6910  -32.6180 C.2       1 BZ91        0.0000 
     35 N2        -17.0420   17.3740  -33.0030 N.pl3     1 BZ91        0.0000 
     36 C3        -18.8990   18.1720  -33.9210 C.ar      1 BZ91        0.0000 
     37 H         -15.8121   19.3844  -34.5374 H         1 BZ91        0.0000 
     38 H         -17.1281   20.9260  -35.9169 H         1 BZ91        0.0000 
     39 H         -19.5393   20.7064  -35.9828 H         1 BZ91        0.0000 
     40 H         -20.6491   18.8968  -34.8213 H         1 BZ91        0.0000 
     41 H         -17.9821   13.5584  -36.2872 H         1 BZ91        0.0000 
     42 H         -20.5298   11.0331  -34.1374 H         1 BZ91        0.0000 
     43 H         -24.5880    8.4307  -31.8338 H         1 BZ91        0.0000 
     44 H         -25.1751   12.5620  -31.5320 H         1 BZ91        0.0000 
     45 H         -22.1056    4.0454  -31.5917 H         1 BZ91        0.0000 
     46 H         -19.1834    7.1848  -33.0444 H         1 BZ91        0.0000 
     47 H         -20.2503    9.3189  -32.7473 H         1 BZ91        0.0000 
     48 H         -26.0812   10.3396  -31.6390 H         1 BZ91        0.0000 
     49 H         -19.5460   14.9049  -29.9557 H         1 BZ91        0.0000 
     50 H         -19.3015   11.5258  -36.1622 H         1 BZ91        0.0000 
     51 H         -17.6238   14.8806  -34.3130 H         1 BZ91        0.0000 
     52 H         -17.4445   15.7422  -30.9309 H         1 BZ91        0.0000 
     53 H         -16.1459   17.2186  -32.7407 H         1 BZ91        0.0000 
     54 H         -24.1479    3.9011  -30.5823 H         1 BZ91        0.0000 
     55 H         -23.9181    5.3181  -29.8574 H         1 BZ91        0.0000 
     56 H         -24.6263    5.2583  -31.3000 H         1 BZ91        0.0000 
     57 H         -20.8328   11.8580  -29.1026 H         1 BZ91        0.0000 
     58 H         -20.9396   13.4159  -28.7182 H         1 BZ91        0.0000 
     59 H         -22.0946   12.7236  -29.5974 H         1 BZ91        0.0000 
@<TRIPOS>BOND
     1   34    1 2    
     2   36    1 1    
     3    3    2 ar   
     4   35    2 1    
     5   36    2 ar   
     6    4    3 ar   
     7   37    3 1    
     8    5    4 ar   
     9   38    4 1    
    10    6    5 ar   
    11   39    5 1    
    12   36    6 ar   
    13   40    6 1    
    14    9    7 ar   
    15   10    7 ar   
    16   32    7 ar   
    17   30    8 ar   
    18   31    8 ar   
    19   41    8 1    
    20   30    9 ar   
    21   42    9 1    
    22   26   10 1    
    23   27   10 ar   
    24   29   11 ar   
    25   32   11 ar   
    26   33   11 1    
    27   13   12 ar   
    28   15   12 ar   
    29   16   12 1    
    30   24   13 ar   
    31   43   13 1    
    32   24   14 ar   
    33   25   14 ar   
    34   44   14 1    
    35   25   15 ar   
    36   26   15 1    
    37   20   16 ar   
    38   23   16 ar   
    39   18   17 1    
    40   54   17 1    
    41   55   17 1    
    42   56   17 1    
    43   19   18 1    
    44   45   18 1    
    45   20   19 ar   
    46   21   19 ar   
    47   22   21 ar   
    48   23   22 ar   
    49   46   22 1    
    50   47   23 1    
    51   48   24 1    
    52   28   27 1    
    53   29   27 ar   
    54   57   28 1    
    55   58   28 1    
    56   59   28 1    
    57   49   29 1    
    58   50   30 1    
    59   32   31 ar   
    60   51   31 1    
    61   34   33 1    
    62   52   33 1    
    63   35   34 1    
    64   53   35 1    
@<TRIPOS>SUBSTRUCTURE
     1 BZ91        1 GROUP   
@<TRIPOS>SET

