#    Name: 3i7i_518_1_INTS_M
#    Modification time : Tue Mar 25 15:58:58 2014

@<TRIPOS>MOLECULE
3i7i_518_1_INTS_M
   71     0     9     0     0
SMALL
NO_CHARGES


@<TRIPOS>ATOM
      1 CA         -5.2840   28.9160   51.1385 C.3       3 GLC5        0.0000 
      2 CA         -7.2570   27.9220   51.0470 C.3       9 GLL5        0.0000 
      3 CA         -3.3110   29.9100   51.2300 C.3       6 GLP5        0.0000 
      4 CA         -8.0495   24.2975   54.3220 C.3       3 GLC5        0.0000 
      5 CA         -6.5040   25.5630   53.7700 C.3       9 GLL5        0.0000 
      6 CA         -9.5950   23.0320   54.8740 C.3       6 GLP5        0.0000 
      7 CA         -8.2290   27.5210   55.7870 C.3       3 GLC5        0.0000 
      8 CA         -6.3440   27.1790   55.2560 C.3       9 GLL5        0.0000 
      9 CA        -10.1140   27.8630   56.3180 C.3       6 GLP5        0.0000 
     10 N          -6.5995   27.3395   58.6205 N.am      2 SEC2        0.0000 
     11 N          -5.6910   27.5660   57.4790 N.am      8 SEL2        0.0000 
     12 N          -7.5080   27.1130   59.7620 N.am      5 SEP2        0.0000 
     13 CA         -6.2400   29.5095   59.0770 C.3       3 GLC5        0.0000 
     14 CA         -6.3990   30.4090   57.1000 C.3       9 GLL5        0.0000 
     15 CA         -6.0810   28.6100   61.0540 C.3       6 GLP5        0.0000 
     16 CA         -8.0000   29.1420   57.4255 C.3       3 GLC5        0.0000 
     17 CA         -9.6010   27.8750   57.7510 C.3       6 GLP5        0.0000 
     18 O          -8.1655   30.9215   58.9745 O.2       1 ALC1        0.0000 
     19 O          -8.5140   31.3930   57.9510 O.2       7 ALL1        0.0000 
     20 O          -7.8170   30.4500   59.9980 O.2       4 ALP1        0.0000 
     21 O          -7.4525   26.4375   47.5905 O.2       1 ALC1        0.0000 
     22 O          -9.0370   26.9700   47.9430 O.2       7 ALL1        0.0000 
     23 O          -5.8680   25.9050   47.2380 O.2       4 ALP1        0.0000 
     24 CA        -10.2290   30.2490   58.2115 C.3       3 GLC5        0.0000 
     25 CA         -9.8600   31.9290   57.7410 C.3       9 GLL5        0.0000 
     26 CA        -10.5980   28.5690   58.6820 C.3       6 GLP5        0.0000 
     27 CA        -11.5850   30.8425   57.6285 C.3       3 GLC5        0.0000 
     28 CA        -13.3100   29.7560   57.5160 C.3       6 GLP5        0.0000 
     29 CA         -9.3605   25.7250   46.2410 C.3       3 GLC5        0.0000 
     30 CA        -10.4290   27.4960   46.0620 C.3       9 GLL5        0.0000 
     31 CA         -8.2920   23.9540   46.4200 C.3       6 GLP5        0.0000 
     32 N         -11.1455   29.3890   49.0505 N.am      2 SEC2        0.0000 
     33 N         -10.7360   28.3510   48.2430 N.am      8 SEL2        0.0000 
     34 N         -11.5550   30.4270   49.8580 N.am      5 SEP2        0.0000 
     35 CA        -13.1390   26.3375   46.8755 C.3       3 GLC5        0.0000 
     36 CA        -11.6380   27.0830   45.5880 C.3       9 GLL5        0.0000 
     37 CA        -14.6400   25.5920   48.1630 C.3       6 GLP5        0.0000 
     38 CA         -8.2820   26.5890   44.3715 C.3       3 GLC5        0.0000 
     39 CA        -10.2020   27.4640   43.8450 C.3       9 GLL5        0.0000 
     40 CA         -6.3620   25.7140   44.8980 C.3       6 GLP5        0.0000 
     41 CA         -8.4875   25.1825   48.0362 C.3       3 GLC5        0.0000 
     42 CA         -8.8220   25.8610   50.0530 C.3       9 GLL5        0.0000 
     43 CA         -9.1028   28.8495   50.6292 C.3       3 GLC5        0.0000 
     44 CA         -8.5440   26.9610   49.2520 C.3       9 GLL5        0.0000 
     45 CA        -10.0570   30.2220   51.7540 C.3       6 GLP5        0.0000 
     46 CA         -9.4512   24.3008   51.6000 C.3       3 GLC5        0.0000 
     47 CA        -10.3240   22.7740   52.5060 C.3       6 GLP5        0.0000 
     48 CA         -7.5480   24.7658   50.3139 C.3       3 GLC5        0.0000 
     49 CA         -8.3350   25.7940   51.3350 C.3       9 GLL5        0.0000 
     50 CA         -6.5870   23.4290   50.1340 C.3       6 GLP5        0.0000 
     51 CA         -8.7340   28.7993   51.6030 C.3       3 GLC5        0.0000 
     52 CA         -7.5650   26.8310   51.8570 C.3       9 GLL5        0.0000 
     53 CA         -7.0510   29.8818   51.0420 C.3       3 GLC5        0.0000 
     54 CA         -6.5970   31.8060   51.6820 C.3       6 GLP5        0.0000 
     55 CA         -6.5080   25.9994   50.5487 C.3       3 GLC5        0.0000 
     56 CA         -7.7530   27.9930   49.7570 C.3       9 GLL5        0.0000 
     57 CA         -5.4340   24.3140   50.4930 C.3       6 GLP5        0.0000 
     58 CA         -5.4971   25.1388   52.9129 C.3       3 GLC5        0.0000 
     59 CA         -7.0150   26.7130   53.2230 C.3       9 GLL5        0.0000 
     60 CA         -4.5780   24.2830   51.5410 C.3       6 GLP5        0.0000 
     61 CA         -4.7410   33.4936   53.8364 C.3       3 GLC5        0.0000 
     62 CA         -5.7390   32.6500   56.0210 C.3       9 GLL5        0.0000 
     63 CA         -5.2480   33.9030   51.9420 C.3       6 GLP5        0.0000 
     64 CA        -12.7435   27.7709   44.3280 C.3       3 GLC5        0.0000 
     65 CA        -14.5960   28.2760   44.3050 C.3       6 GLP5        0.0000 
     66 CA         -8.9070   26.7677   41.8118 C.3       3 GLC5        0.0000 
     67 CA         -7.8130   26.0360   40.4420 C.3       6 GLP5        0.0000 
     68 CA         -9.5705   26.5177   41.0397 C.3       3 GLC5        0.0000 
     69 CA        -10.6790   27.2040   41.5010 C.3       9 GLL5        0.0000 
     70 CA        -13.3908   27.5162   43.3648 C.3       3 GLC5        0.0000 
     71 CA        -11.9770   26.7950   41.7740 C.3       9 GLL5        0.0000 
@<TRIPOS>BOND
@<TRIPOS>SUBSTRUCTURE
     1 ALC1       18 GROUP        1 X    ALC  0     ROOT ALC X 1
     2 SEC2       10 GROUP        1 X    SEC  0     **** SEC X 2
     3 GLC5        1 GROUP        1 X    GLC  0     **** GLC X 6
     4 ALP1       20 GROUP        1 Y    ALP  0     ROOT ALP Y 8
     5 SEP2       12 GROUP        1 Y    SEP  0     **** SEP Y 9
     6 GLP5        3 GROUP        1 Y    GLP  0     **** GLP Y 13
     7 ALL1       19 GROUP        1 Z    ALL  0     ROOT ALL Z 15
     8 SEL2       11 GROUP        1 Z    SEL  0     **** SEL Z 16
     9 GLL5        2 GROUP        1 Z    GLL  0     **** GLL Z 20
@<TRIPOS>SET

