#    Name: 3i7i_518_1_ligand
#    Modification time : Tue Mar 25 15:58:58 2014

@<TRIPOS>MOLECULE
3i7i_518_1_ligand
   66    70     1     0     0
SMALL
NO_CHARGES


@<TRIPOS>ATOM
      1 C1         -8.5440   26.9610   49.2520 C.ar      1 518999      0.0000 
      2 C2         -8.8220   25.8610   50.0530 C.ar      1 518999      0.0000 
      3 C3         -8.3350   25.7940   51.3350 C.ar      1 518999      0.0000 
      4 C4         -7.5650   26.8310   51.8570 C.ar      1 518999      0.0000 
      5 C5         -7.2570   27.9220   51.0470 C.ar      1 518999      0.0000 
      6 C6         -7.7530   27.9930   49.7570 C.ar      1 518999      0.0000 
      7 C7         -7.0150   26.7130   53.2230 C.2       1 518999      0.0000 
      8 C8         -6.5040   25.5630   53.7700 C.2       1 518999      0.0000 
      9 C9         -6.0730   25.8510   55.0730 C.2       1 518999      0.0000 
     10 C10        -6.3440   27.1790   55.2560 C.2       1 518999      0.0000 
     11 O11        -6.9110   27.6780   54.1380 O.3       1 518999      0.0000 
     12 C12        -6.1160   28.0040   56.4250 C.2       1 518999      0.0000 
     13 O13        -5.6910   27.5660   57.4790 O.2       1 518999      0.0000 
     14 N14        -6.4510   29.2820   56.1930 N.am      1 518999      0.0000 
     15 C15        -6.3990   30.4090   57.1000 C.3       1 518999      0.0000 
     16 C16        -7.7810   30.9860   56.8990 C.2       1 518999      0.0000 
     17 C17        -5.2760   31.2760   56.5140 C.3       1 518999      0.0000 
     18 N18        -8.5140   31.3930   57.9510 N.am      1 518999      0.0000 
     19 O19        -8.2680   31.0550   55.7830 O.2       1 518999      0.0000 
     20 N20        -9.0370   26.9700   47.9430 N.am      1 518999      0.0000 
     21 C21        -9.8600   31.9290   57.7410 C.3       1 518999      0.0000 
     22 C22        -5.7390   32.6500   56.0210 C.3       1 518999      0.0000 
     23 C23        -4.6170   33.1710   55.1200 C.3       1 518999      0.0000 
     24 C24        -3.2900   33.2580   55.8910 C.3       1 518999      0.0000 
     25 C25        -2.9360   31.9560   56.6260 C.3       1 518999      0.0000 
     26 C26        -4.1160   31.4910   57.4890 C.3       1 518999      0.0000 
     27 C27       -10.0850   27.6600   47.4870 C.2       1 518999      0.0000 
     28 C28       -10.4290   27.4960   46.0620 C.2       1 518999      0.0000 
     29 O29       -10.7360   28.3510   48.2430 O.2       1 518999      0.0000 
     30 O30        -9.5890   27.7160   45.0240 O.3       1 518999      0.0000 
     31 C31       -11.6380   27.0830   45.5880 C.2       1 518999      0.0000 
     32 C32       -11.5220   27.0520   44.1260 C.ar      1 518999      0.0000 
     33 C33       -10.2020   27.4640   43.8450 C.ar      1 518999      0.0000 
     34 C34        -9.8000   27.5350   42.5180 C.ar      1 518999      0.0000 
     35 C35       -10.6790   27.2040   41.5010 C.ar      1 518999      0.0000 
     36 C36       -11.9770   26.7950   41.7740 C.ar      1 518999      0.0000 
     37 C37       -12.3940   26.7180   43.0750 C.ar      1 518999      0.0000 
     38 H          -9.4001   25.0911   49.6750 H         1 518999      0.0000 
     39 H          -8.5370   24.9687   51.9265 H         1 518999      0.0000 
     40 H          -6.6579   28.6759   51.4133 H         1 518999      0.0000 
     41 H          -7.5403   28.8080   49.1643 H         1 518999      0.0000 
     42 H          -6.4447   24.7116   53.3532 H         1 518999      0.0000 
     43 H          -5.6866   25.2502   55.6706 H         1 518999      0.0000 
     44 H          -6.8154   29.5459   55.2004 H         1 518999      0.0000 
     45 H          -6.2225   30.1244   58.0531 H         1 518999      0.0000 
     46 H          -4.8557   30.7463   55.6364 H         1 518999      0.0000 
     47 H          -8.1784   31.3496   58.9183 H         1 518999      0.0000 
     48 H          -8.4947   26.3433   47.2436 H         1 518999      0.0000 
     49 H          -5.8652   33.3061   56.8537 H         1 518999      0.0000 
     50 H          -6.6364   32.5434   55.4524 H         1 518999      0.0000 
     51 H          -4.8801   34.1605   54.7525 H         1 518999      0.0000 
     52 H          -4.4930   32.4989   54.2738 H         1 518999      0.0000 
     53 H          -3.3553   34.0731   56.6211 H         1 518999      0.0000 
     54 H          -2.4849   33.5005   55.1877 H         1 518999      0.0000 
     55 H          -2.0731   32.1281   57.2613 H         1 518999      0.0000 
     56 H          -2.7002   31.1874   55.8969 H         1 518999      0.0000 
     57 H          -3.8698   30.5693   57.9644 H         1 518999      0.0000 
     58 H          -4.3702   32.2544   58.1881 H         1 518999      0.0000 
     59 H         -12.4133   26.8538   46.0444 H         1 518999      0.0000 
     60 H          -8.8392   27.8367   42.2901 H         1 518999      0.0000 
     61 H         -10.3623   27.2624   40.5132 H         1 518999      0.0000 
     62 H         -12.6105   26.5548   41.0019 H         1 518999      0.0000 
     63 H         -13.3547   26.4136   43.3041 H         1 518999      0.0000 
     64 H          -9.8495   32.7411   57.1576 H         1 518999      0.0000 
     65 H         -10.4615   31.2611   57.3028 H         1 518999      0.0000 
     66 H         -10.2934   32.1927   58.6028 H         1 518999      0.0000 
@<TRIPOS>BOND
     1    2    1 ar   
     2    6    1 ar   
     3   20    1 1    
     4    3    2 ar   
     5   38    2 1    
     6    4    3 ar   
     7   39    3 1    
     8    5    4 ar   
     9    7    4 1    
    10    6    5 ar   
    11   40    5 1    
    12   41    6 1    
    13    8    7 2    
    14   11    7 1    
    15    9    8 1    
    16   42    8 1    
    17   10    9 2    
    18   43    9 1    
    19   11   10 1    
    20   12   10 1    
    21   13   12 2    
    22   14   12 am   
    23   15   14 1    
    24   44   14 1    
    25   16   15 1    
    26   17   15 1    
    27   45   15 1    
    28   18   16 am   
    29   19   16 2    
    30   22   17 1    
    31   26   17 1    
    32   46   17 1    
    33   21   18 1    
    34   47   18 1    
    35   27   20 am   
    36   48   20 1    
    37   64   21 1    
    38   65   21 1    
    39   66   21 1    
    40   23   22 1    
    41   49   22 1    
    42   50   22 1    
    43   24   23 1    
    44   51   23 1    
    45   52   23 1    
    46   25   24 1    
    47   53   24 1    
    48   54   24 1    
    49   26   25 1    
    50   55   25 1    
    51   56   25 1    
    52   57   26 1    
    53   58   26 1    
    54   28   27 1    
    55   29   27 2    
    56   30   28 1    
    57   31   28 2    
    58   33   30 1    
    59   32   31 1    
    60   59   31 1    
    61   33   32 ar   
    62   37   32 ar   
    63   34   33 ar   
    64   35   34 ar   
    65   60   34 1    
    66   36   35 ar   
    67   61   35 1    
    68   37   36 ar   
    69   62   36 1    
    70   63   37 1    
@<TRIPOS>SUBSTRUCTURE
     1 518999      1 GROUP   
@<TRIPOS>SET

