#    Name: 3G0B_3_CAVITY_N1_6.mol2
#    Modification time : Mon Mar 10 17:57:10 2014

@<TRIPOS>MOLECULE
3G0B_3_CAVITY_N1_6.mol2
   90     0     6     0     0
SMALL
NO_CHARGES


@<TRIPOS>ATOM
      1 CZ         85.6667  -24.0389   49.9557 C.ar      4 PHE5        0.0000 
      2 OG         85.4498  -24.3366   47.8666 O.2       1 SER1        0.0000 
      3 CZ         84.9424  -25.0314   49.0953 C.ar      4 PHE5        0.0000 
      4 NZ         84.4349  -25.7262   50.3240 N.2       3 LYS4        0.0000 
      5 OG         85.7404  -23.9395   44.5488 O.2       1 SER1        0.0000 
      6 OG         85.2330  -24.6343   45.7775 O.2       1 SER1        0.0000 
      7 DU         84.7255  -25.3291   47.0062 H         6 CUB7        0.0000 
      8 NZ         84.2180  -26.0239   48.2349 N.2       3 LYS4        0.0000 
      9 NZ         83.7105  -26.7187   49.4636 N.2       3 LYS4        0.0000 
     10 DU         85.0161  -24.9320   43.6884 H         6 CUB7        0.0000 
     11 O          84.5086  -25.6268   44.9171 O.2       2 ALA2        0.0000 
     12 O          84.0011  -26.3216   46.1458 O.2       2 ALA2        0.0000 
     13 NZ         83.4936  -27.0164   47.3745 N.2       3 LYS4        0.0000 
     14 O          83.7842  -26.6193   44.0567 O.2       2 ALA2        0.0000 
     15 CZ         89.3013  -26.6922   49.9565 C.ar      4 PHE5        0.0000 
     16 CZ         88.7938  -27.3870   51.1852 C.ar      4 PHE5        0.0000 
     17 N          88.2863  -28.0818   52.4139 N.2       2 ALA2        0.0000 
     18 DU         88.5769  -27.6847   49.0961 H         6 CUB7        0.0000 
     19 OG         88.0694  -28.3795   50.3248 O.2       1 SER1        0.0000 
     20 OG         87.5620  -29.0743   51.5535 O.2       1 SER1        0.0000 
     21 OG         87.3451  -29.3720   49.4644 O.2       1 SER1        0.0000 
     22 O          87.1282  -29.6697   47.3753 O.2       2 ALA2        0.0000 
     23 CA         90.7297  -27.2790   52.0458 C.3       5 GLY6        0.0000 
     24 CA         90.2222  -27.9738   53.2745 C.3       5 GLY6        0.0000 
     25 OG         90.0053  -28.2715   51.1854 O.2       1 SER1        0.0000 
     26 OG         89.4978  -28.9663   52.4141 O.2       1 SER1        0.0000 
     27 OG         89.7884  -28.5692   49.0963 O.2       1 SER1        0.0000 
     28 CZ         88.5972  -25.1130   48.7275 C.ar      4 PHE5        0.0000 
     29 CZ         88.0898  -25.8078   49.9562 C.ar      4 PHE5        0.0000 
     30 CZ         87.5823  -26.5026   51.1849 C.ar      4 PHE5        0.0000 
     31 N          87.0748  -27.1974   52.4136 N.2       2 ALA2        0.0000 
     32 DU         87.8729  -26.1055   47.8671 H         6 CUB7        0.0000 
     33 DU         87.3654  -26.8003   49.0958 H         6 CUB7        0.0000 
     34 N          86.8579  -27.4951   50.3245 N.2       2 ALA2        0.0000 
     35 N          86.3505  -28.1899   51.5532 N.2       2 ALA2        0.0000 
     36 DU         87.1485  -27.0980   47.0067 H         6 CUB7        0.0000 
     37 DU         86.6410  -27.7928   48.2354 H         6 CUB7        0.0000 
     38 N          86.1336  -28.4876   49.4641 N.2       2 ALA2        0.0000 
     39 O          85.9167  -28.7853   47.3750 O.2       2 ALA2        0.0000 
     40 DU         86.4445  -25.5188   45.7778 H         6 CUB7        0.0000 
     41 DU         85.9370  -26.2135   47.0065 H         6 CUB7        0.0000 
     42 NZ         85.4295  -26.9083   48.2352 N.2       3 LYS4        0.0000 
     43 NZ         84.9221  -27.6031   49.4639 N.2       3 LYS4        0.0000 
     44 O          85.2126  -27.2060   46.1461 O.2       2 ALA2        0.0000 
     45 NZ         84.7052  -27.9008   47.3748 N.2       3 LYS4        0.0000 
     46 CA         81.8153  -21.6833   47.8658 C.3       5 GLY6        0.0000 
     47 O          81.0909  -22.6758   47.0055 O.2       2 ALA2        0.0000 
     48 OG         80.5835  -23.3706   48.2342 O.2       1 SER1        0.0000 
     49 CA         80.3666  -23.6683   46.1451 C.3       5 GLY6        0.0000 
     50 OG         79.8591  -24.3631   47.3738 O.2       1 SER1        0.0000 
     51 OG         84.2383  -23.4522   47.8663 O.2       1 SER1        0.0000 
     52 CZ         83.7308  -24.1470   49.0951 C.ar      4 PHE5        0.0000 
     53 CZ         83.2234  -24.8418   50.3238 C.ar      4 PHE5        0.0000 
     54 CZ         85.5439  -21.6655   42.0911 C.ar      4 PHE5        0.0000 
     55 CZ         85.0364  -22.3603   43.3198 C.ar      4 PHE5        0.0000 
     56 CZ         84.5289  -23.0551   44.5485 C.ar      4 PHE5        0.0000 
     57 OG         84.0214  -23.7499   45.7772 O.2       1 SER1        0.0000 
     58 DU         83.5140  -24.4447   47.0060 H         6 CUB7        0.0000 
     59 OG         83.0065  -25.1395   48.2347 O.2       1 SER1        0.0000 
     60 OG         82.4990  -25.8343   49.4634 O.2       1 SER1        0.0000 
     61 DU         84.8195  -22.6580   41.2307 H         6 CUB7        0.0000 
     62 OG         84.3120  -23.3528   42.4594 O.2       1 SER1        0.0000 
     63 OG         83.8045  -24.0476   43.6881 O.2       1 SER1        0.0000 
     64 OG         83.2971  -24.7424   44.9169 O.2       1 SER1        0.0000 
     65 O          82.7896  -25.4372   46.1456 O.2       2 ALA2        0.0000 
     66 NZ         82.2821  -26.1320   47.3743 N.2       3 LYS4        0.0000 
     67 OG         83.0802  -25.0401   42.8278 O.2       1 SER1        0.0000 
     68 OG         82.5727  -25.7349   44.0565 O.2       1 SER1        0.0000 
     69 O          82.0652  -26.4297   45.2852 O.2       2 ALA2        0.0000 
     70 N          81.5578  -27.1245   46.5139 N.2       2 ALA2        0.0000 
     71 CZ         83.5343  -21.8730   46.6374 C.ar      4 PHE5        0.0000 
     72 OG         83.0268  -22.5678   47.8661 O.2       1 SER1        0.0000 
     73 CZ         82.5193  -23.2626   49.0948 C.ar      4 PHE5        0.0000 
     74 N          84.3323  -20.7811   42.0909 N.2       2 ALA2        0.0000 
     75 N          83.8249  -21.4759   43.3196 N.2       2 ALA2        0.0000 
     76 CA         83.3174  -22.1707   44.5483 C.3       5 GLY6        0.0000 
     77 CA         82.8099  -22.8655   45.7770 C.3       5 GLY6        0.0000 
     78 CA         82.3024  -23.5602   47.0057 C.3       5 GLY6        0.0000 
     79 OG         81.7950  -24.2550   48.2344 O.2       1 SER1        0.0000 
     80 N          83.6080  -21.7736   41.2305 N.2       2 ALA2        0.0000 
     81 OG         83.1005  -22.4684   42.4592 O.2       1 SER1        0.0000 
     82 CA         81.5781  -24.5527   46.1453 C.3       5 GLY6        0.0000 
     83 OG         81.0706  -25.2475   47.3740 O.2       1 SER1        0.0000 
     84 N          80.3463  -26.2400   46.5136 N.2       2 ALA2        0.0000 
     85 OG         87.3857  -24.2286   48.7272 O.2       1 SER1        0.0000 
     86 CZ         86.8782  -24.9234   49.9560 C.ar      4 PHE5        0.0000 
     87 CZ         86.3708  -25.6182   51.1847 C.ar      4 PHE5        0.0000 
     88 OG         86.6614  -25.2211   47.8669 O.2       1 SER1        0.0000 
     89 DU         86.1539  -25.9159   49.0956 H         6 CUB7        0.0000 
     90 NZ         85.6464  -26.6106   50.3243 N.2       3 LYS4        0.0000 
@<TRIPOS>BOND
@<TRIPOS>SUBSTRUCTURE
     1 SER1        2 GROUP   
     2 ALA2       11 GROUP   
     3 LYS4        4 GROUP   
     4 PHE5        1 GROUP   
     5 GLY6       23 GROUP   
     6 CUB7        7 GROUP   
@<TRIPOS>SET

