#    Name: 3g0b_T22_3_INTS_M
#    Modification time : Tue Mar 25 06:54:51 2014

@<TRIPOS>MOLECULE
3g0b_T22_3_INTS_M
   52     0    12     0     0
SMALL
NO_CHARGES


@<TRIPOS>ATOM
      1 N          81.7850  -21.0430   45.4640 N.am      2 SEC2        0.0000 
      2 N          83.1190  -21.7530   45.7740 N.am     10 SEL2        0.0000 
      3 N          80.4510  -20.3330   45.1540 N.am      6 SEP2        0.0000 
      4 CA         84.8105  -20.4580   44.2730 C.3       4 GLC5        0.0000 
      5 CA         84.2760  -21.9940   43.3700 C.3      12 GLL5        0.0000 
      6 CA         85.3450  -18.9220   45.1760 C.3       8 GLP5        0.0000 
      7 CA         82.4345  -22.3345   43.6045 C.3       4 GLC5        0.0000 
      8 CA         80.5930  -22.6750   43.8390 C.3       8 GLP5        0.0000 
      9 CA         84.4080  -21.5670   47.0975 C.3       4 GLC5        0.0000 
     10 CA         83.3340  -23.3070   47.9760 C.3      12 GLL5        0.0000 
     11 CA         85.4820  -19.8270   46.2190 C.3       8 GLP5        0.0000 
     12 CA         83.6140  -22.9795   49.8415 C.3       4 GLC5        0.0000 
     13 CA         83.8940  -22.6520   51.7070 C.3       8 GLP5        0.0000 
     14 CA         80.5480  -26.1925   44.9990 C.3       4 GLC5        0.0000 
     15 CA         81.6370  -25.3790   46.6660 C.3      12 GLL5        0.0000 
     16 CA         79.4590  -27.0060   43.3320 C.3       8 GLP5        0.0000 
     17 CA         80.1620  -20.6295   47.1575 C.3       4 GLC5        0.0000 
     18 CA         79.7250  -22.1750   48.4400 C.3      12 GLL5        0.0000 
     19 CA         80.5990  -19.0840   45.8750 C.3       8 GLP5        0.0000 
     20 CA         83.3410  -29.1035   49.3725 C.3       4 GLC5        0.0000 
     21 CA         85.0050  -27.7480   48.7920 C.3      12 GLL5        0.0000 
     22 CA         81.6770  -30.4590   49.9530 C.3       8 GLP5        0.0000 
     23 OD1        83.0760  -28.5945   48.5645 O.co2     3 ASC3        0.0000 
     24 OD1        83.5660  -27.7040   49.1620 O.co2    11 ASL3        0.0000 
     25 OD1        82.5860  -29.4850   47.9670 O.co2     7 ASP3        0.0000 
     26 OD1        83.5370  -27.7065   50.6610 O.co2     3 ASC3        0.0000 
     27 OD1        83.5080  -27.7090   52.1600 O.co2     7 ASP3        0.0000 
     28 OD1        82.4755  -27.4820   50.5335 O.co2     3 ASC3        0.0000 
     29 OD1        81.3850  -27.2600   51.9050 O.co2     7 ASP3        0.0000 
     30 O          83.0760  -28.5945   48.5645 O.2       1 ALC1        0.0000 
     31 O          83.5660  -27.7040   49.1620 O.2       9 ALL1        0.0000 
     32 O          82.5860  -29.4850   47.9670 O.2       5 ALP1        0.0000 
     33 O          83.5370  -27.7065   50.6610 O.2       1 ALC1        0.0000 
     34 O          83.5080  -27.7090   52.1600 O.2       5 ALP1        0.0000 
     35 CA         81.6618  -20.9222   47.4513 C.3       4 GLC5        0.0000 
     36 CA         81.8070  -23.3160   47.8680 C.3      12 GLL5        0.0000 
     37 CA         81.8600  -19.0580   46.7360 C.3       8 GLP5        0.0000 
     38 CA         81.0656  -23.6400   45.4736 C.3       4 GLC5        0.0000 
     39 CA         79.9630  -23.1953   45.6640 C.3       4 GLC5        0.0000 
     40 CA         79.6690  -24.2570   47.1930 C.3      12 GLL5        0.0000 
     41 CA         77.8015  -24.2373   46.8830 C.3       4 GLC5        0.0000 
     42 CA         76.2700  -24.7590   46.2770 C.3       8 GLP5        0.0000 
     43 CA         77.6990  -21.9883   48.3747 C.3       4 GLC5        0.0000 
     44 CA         78.9970  -23.1740   47.7850 C.3      12 GLL5        0.0000 
     45 CA         76.0370  -21.3020   48.6370 C.3       8 GLP5        0.0000 
     46 CA         85.9140  -22.7020   46.1212 C.3       4 GLC5        0.0000 
     47 CA         84.8980  -24.6570   46.5690 C.3      12 GLL5        0.0000 
     48 CA         86.6010  -20.6320   46.2810 C.3       8 GLP5        0.0000 
     49 CA         87.0632  -24.0635   50.3957 C.3       4 GLC5        0.0000 
     50 CA         86.0270  -24.9660   48.7920 C.3      12 GLL5        0.0000 
     51 CA         88.2550  -22.7930   51.3570 C.3       8 GLP5        0.0000 
     52 CA         84.8828  -23.9930   50.5707 C.3       4 GLC5        0.0000 
@<TRIPOS>BOND
@<TRIPOS>SUBSTRUCTURE
     1 ALC1       30 GROUP        1 X    ALC  0     ROOT ALC X 1
     2 SEC2        1 GROUP        1 X    SEC  0     **** SEC X 2
     3 ASC3       23 GROUP        1 X    ASC  0     **** ASC X 3
     4 GLC5        4 GROUP        1 X    GLC  0     **** GLC X 6
     5 ALP1       32 GROUP        1 Y    ALP  0     ROOT ALP Y 8
     6 SEP2        3 GROUP        1 Y    SEP  0     **** SEP Y 9
     7 ASP3       25 GROUP        1 Y    ASP  0     **** ASP Y 10
     8 GLP5        6 GROUP        1 Y    GLP  0     **** GLP Y 13
     9 ALL1       31 GROUP        1 Z    ALL  0     ROOT ALL Z 15
    10 SEL2        2 GROUP        1 Z    SEL  0     **** SEL Z 16
    11 ASL3       24 GROUP        1 Z    ASL  0     **** ASL Z 17
    12 GLL5        5 GROUP        1 Z    GLL  0     **** GLL Z 20
@<TRIPOS>SET

