#    Name: 3g0b_T22_3_ligand
#    Modification time : Tue Mar 25 06:54:52 2014

@<TRIPOS>MOLECULE
3g0b_T22_3_ligand
   47    49     1     0     0
SMALL
NO_CHARGES


@<TRIPOS>ATOM
      1 O26        83.1190  -21.7530   45.7740 O.2       1 T22800      0.0000 
      2 C25        83.8830  -22.7400   45.6620 C.2       1 T22800      0.0000 
      3 N2         84.5190  -22.9420   44.4780 N.am      1 T22800      0.0000 
      4 C1         84.2760  -21.9940   43.3700 C.3       1 T22800      0.0000 
      5 N15        84.0530  -23.5850   46.7040 N.am      1 T22800      0.0000 
      6 C16        83.3340  -23.3070   47.9760 C.3       1 T22800      0.0000 
      7 C17        81.8070  -23.3160   47.8680 C.ar      1 T22800      0.0000 
      8 C22        81.0720  -24.3460   47.2330 C.ar      1 T22800      0.0000 
      9 C23        81.6370  -25.3790   46.6660 C.1       1 T22800      0.0000 
     10 N24        82.1290  -26.3210   46.1680 N.1       1 T22800      0.0000 
     11 C21        79.6690  -24.2570   47.1930 C.ar      1 T22800      0.0000 
     12 C20        78.9970  -23.1740   47.7850 C.ar      1 T22800      0.0000 
     13 C19        79.7250  -22.1750   48.4400 C.ar      1 T22800      0.0000 
     14 C18        81.1200  -22.2570   48.4650 C.ar      1 T22800      0.0000 
     15 C6         84.8980  -24.6570   46.5690 C.2       1 T22800      0.0000 
     16 C5         85.5560  -24.8870   45.3540 C.2       1 T22800      0.0000 
     17 C3         85.3450  -24.0000   44.3180 C.2       1 T22800      0.0000 
     18 O4         85.9470  -24.2130   43.2500 O.2       1 T22800      0.0000 
     19 N7         85.3040  -25.5020   47.6320 N.3       1 T22800      0.0000 
     20 C14        85.2860  -26.9800   47.4900 C.3       1 T22800      0.0000 
     21 C11        85.0050  -27.7480   48.7920 C.3       1 T22800      0.0000 
     22 N13        83.5660  -27.7040   49.1620 N.4       1 T22800      0.0000 
     23 C10        85.8590  -27.2120   49.9310 C.3       1 T22800      0.0000 
     24 C9         85.7160  -25.7020   50.0770 C.3       1 T22800      0.0000 
     25 C8         86.0270  -24.9660   48.7920 C.3       1 T22800      0.0000 
     26 H          83.6454  -22.3186   48.3756 H         1 T22800      0.0000 
     27 H          83.6294  -24.0515   48.7453 H         1 T22800      0.0000 
     28 H          79.1270  -24.9959   46.7233 H         1 T22800      0.0000 
     29 H          77.9759  -23.1188   47.7354 H         1 T22800      0.0000 
     30 H          79.2443  -21.3985   48.8925 H         1 T22800      0.0000 
     31 H          81.6608  -21.5083   48.9416 H         1 T22800      0.0000 
     32 H          86.1710  -25.6892   45.2477 H         1 T22800      0.0000 
     33 H          86.2578  -27.3340   47.0882 H         1 T22800      0.0000 
     34 H          84.5202  -27.2799   46.7451 H         1 T22800      0.0000 
     35 H          85.2958  -28.7930   48.6259 H         1 T22800      0.0000 
     36 H          86.9076  -27.4567   49.7419 H         1 T22800      0.0000 
     37 H          85.5577  -27.6932   50.8653 H         1 T22800      0.0000 
     38 H          86.3925  -25.3547   50.8685 H         1 T22800      0.0000 
     39 H          84.6901  -25.4697   50.3906 H         1 T22800      0.0000 
     40 H          85.7813  -23.8962   48.9340 H         1 T22800      0.0000 
     41 H          87.1188  -25.0146   48.6172 H         1 T22800      0.0000 
     42 H          84.5376  -21.0606   43.6157 H         1 T22800      0.0000 
     43 H          84.7959  -22.2383   42.5515 H         1 T22800      0.0000 
     44 H          83.3113  -21.9686   43.1077 H         1 T22800      0.0000 
     45 H          83.1655  -28.6192   49.2050 H         1 T22800      0.0000 
     46 H          83.4254  -27.2802   50.0567 H         1 T22800      0.0000 
     47 H          83.0286  -27.1796   48.5015 H         1 T22800      0.0000 
@<TRIPOS>BOND
     1    2    1 2    
     2    3    2 am   
     3    5    2 am   
     4    4    3 1    
     5   17    3 am   
     6   42    4 1    
     7   43    4 1    
     8   44    4 1    
     9    6    5 1    
    10   15    5 1    
    11    7    6 1    
    12   26    6 1    
    13   27    6 1    
    14    8    7 ar   
    15   14    7 ar   
    16    9    8 1    
    17   11    8 ar   
    18   10    9 3    
    19   12   11 ar   
    20   28   11 1    
    21   13   12 ar   
    22   29   12 1    
    23   14   13 ar   
    24   30   13 1    
    25   31   14 1    
    26   16   15 2    
    27   19   15 1    
    28   17   16 1    
    29   32   16 1    
    30   18   17 2    
    31   20   19 1    
    32   25   19 1    
    33   21   20 1    
    34   33   20 1    
    35   34   20 1    
    36   22   21 1    
    37   23   21 1    
    38   35   21 1    
    39   45   22 1    
    40   46   22 1    
    41   47   22 1    
    42   24   23 1    
    43   36   23 1    
    44   37   23 1    
    45   25   24 1    
    46   38   24 1    
    47   39   24 1    
    48   40   25 1    
    49   41   25 1    
@<TRIPOS>SUBSTRUCTURE
     1 T22800      1 GROUP   
@<TRIPOS>SET

