#    Name: 4b5n_FMN_1_INTS_M
#    Modification time : Tue Mar 25 06:43:29 2014

@<TRIPOS>MOLECULE
4b5n_FMN_1_INTS_M
   86     0    12     0     0
SMALL
NO_CHARGES


@<TRIPOS>ATOM
      1 N          19.6470    3.0475   15.8560 N.am      2 SEC2        0.0000 
      2 N          20.3590    2.1490   16.7320 N.am     10 SEL2        0.0000 
      3 N          18.9350    3.9460   14.9800 N.am      6 SEP2        0.0000 
      4 N          21.0500    1.1585   16.0665 N.am      2 SEC2        0.0000 
      5 N          21.7410    0.1680   15.4010 N.am      6 SEP2        0.0000 
      6 O          20.4760    4.7440   17.0665 O.2       1 ALC1        0.0000 
      7 O          21.4000    3.8890   17.7370 O.2       9 ALL1        0.0000 
      8 O          19.5520    5.5990   16.3960 O.2       5 ALP1        0.0000 
      9 N          22.6870    6.2930   19.9190 N.am      2 SEC2        0.0000 
     10 N          22.3950    5.6430   18.7700 N.am     10 SEL2        0.0000 
     11 N          22.9790    6.9430   21.0680 N.am      6 SEP2        0.0000 
     12 N          21.8875    6.9945   18.1700 N.am      2 SEC2        0.0000 
     13 N          21.3800    8.3460   17.5700 N.am      6 SEP2        0.0000 
     14 N          24.9055    5.2640   19.6195 N.am      2 SEC2        0.0000 
     15 N          24.3960    3.9500   19.7800 N.am     10 SEL2        0.0000 
     16 N          25.4150    6.5780   19.4590 N.am      6 SEP2        0.0000 
     17 CA         30.4500    3.9395   20.0615 C.3       4 GLC5        0.0000 
     18 CA         28.9310    3.4430   21.5690 C.3      12 GLL5        0.0000 
     19 CA         31.9690    4.4360   18.5540 C.3       8 GLP5        0.0000 
     20 CA         30.5360    4.2455   21.9025 C.3       4 GLC5        0.0000 
     21 CA         32.1410    5.0480   22.2360 C.3       8 GLP5        0.0000 
     22 CA         27.8720   -0.8835   20.7105 C.3       4 GLC5        0.0000 
     23 CA         29.0200    0.7010   20.4500 C.3      12 GLL5        0.0000 
     24 CA         26.7240   -2.4680   20.9710 C.3       8 GLP5        0.0000 
     25 CA         30.4370    0.0155   19.5185 C.3       4 GLC5        0.0000 
     26 CA         31.8540   -0.6700   18.5870 C.3       8 GLP5        0.0000 
     27 CA         24.9985   -0.9455   19.4830 C.3       4 GLC5        0.0000 
     28 CA         24.5420    0.0760   17.9750 C.3      12 GLL5        0.0000 
     29 CA         25.4550   -1.9670   20.9910 C.3       8 GLP5        0.0000 
     30 CA         26.8285    1.6195   16.8110 C.3       4 GLC5        0.0000 
     31 CA         25.3380    0.1980   16.6730 C.3      12 GLL5        0.0000 
     32 CA         28.3190    3.0410   16.9490 C.3       8 GLP5        0.0000 
     33 N          23.1720    0.5385   15.5485 N.am      2 SEC2        0.0000 
     34 N          24.6030    0.9090   15.6960 N.am     10 SEL2        0.0000 
     35 N          23.6325   -0.0645   14.7045 N.am      2 SEC2        0.0000 
     36 N          22.6620   -1.0380   13.7130 N.am      6 SEP2        0.0000 
     37 O          24.7285    2.2685   15.9410 O.2       1 ALC1        0.0000 
     38 O          24.6030    0.9090   15.6960 O.2       9 ALL1        0.0000 
     39 O          24.8540    3.6280   16.1860 O.2       5 ALP1        0.0000 
     40 CA         25.6150   -1.9930   14.2475 C.3       4 GLC5        0.0000 
     41 CA         25.6850   -1.1690   16.0810 C.3      12 GLL5        0.0000 
     42 CA         25.5450   -2.8170   12.4140 C.3       8 GLP5        0.0000 
     43 N          23.1105   -0.8610   15.6160 N.am      2 SEC2        0.0000 
     44 N          24.4800   -1.8900   15.8310 N.am     10 SEL2        0.0000 
     45 N          23.5710   -1.4640   14.7720 N.am      2 SEC2        0.0000 
     46 O          24.2725   -3.3980   16.0610 O.2       1 ALC1        0.0000 
     47 O          24.4800   -1.8900   15.8310 O.2       9 ALL1        0.0000 
     48 O          24.0650   -4.9060   16.2910 O.2       5 ALP1        0.0000 
     49 CA         26.7890   -2.8830   18.7395 C.3       4 GLC5        0.0000 
     50 CA         26.6330   -1.9930   16.9550 C.3      12 GLL5        0.0000 
     51 CA         26.9450   -3.7730   20.5240 C.3       8 GLP5        0.0000 
     52 CA         26.4285   -4.6950   17.1650 C.3       4 GLC5        0.0000 
     53 CA         27.1320   -3.2330   16.1990 C.3      12 GLL5        0.0000 
     54 CA         25.7250   -6.1570   18.1310 C.3       8 GLP5        0.0000 
     55 CA         26.3385   -3.0250   14.3065 C.3       4 GLC5        0.0000 
     56 CA         27.0705   -4.8085   15.1115 C.3       4 GLC5        0.0000 
     57 CA         27.0090   -6.3840   14.0240 C.3       8 GLP5        0.0000 
     58 NZ         30.4500   -2.4620   17.3415 N.4       3 LYC4        0.0000 
     59 NZ         29.9560   -1.9640   16.1040 N.4      11 LYL4        0.0000 
     60 NZ         30.6390   -4.1680   19.0270 N.4       7 LYP4        0.0000 
     61 N          30.7225   -0.8530   15.8950 N.am      2 SEC2        0.0000 
     62 N          29.9560   -1.9640   16.1040 N.am     10 SEL2        0.0000 
     63 N          31.4890    0.2580   15.6860 N.am      6 SEP2        0.0000 
     64 N          30.4500   -2.4620   17.3415 N.am      2 SEC2        0.0000 
     65 N          30.9440   -2.9600   18.5790 N.am      6 SEP2        0.0000 
     66 NZ         29.9305   -4.7010   16.8690 N.4       3 LYC4        0.0000 
     67 NZ         29.8860   -4.3770   15.4890 N.4      11 LYL4        0.0000 
     68 N          29.6285   -5.5780   14.8730 N.am      2 SEC2        0.0000 
     69 N          29.8860   -4.3770   15.4890 N.am     10 SEL2        0.0000 
     70 N          29.3710   -6.7790   14.2570 N.am      6 SEP2        0.0000 
     71 N          29.9305   -4.7010   16.8690 N.am      2 SEC2        0.0000 
     72 N          29.9750   -5.0250   18.2490 N.am      6 SEP2        0.0000 
     73 N          29.9340   -1.2675   13.3000 N.am      2 SEC2        0.0000 
     74 N          29.9340   -2.6320   13.6840 N.am     10 SEL2        0.0000 
     75 N          29.9340    0.0970   12.9160 N.am      6 SEP2        0.0000 
     76 CA         26.1953    4.4823   18.8845 C.3       4 GLC5        0.0000 
     77 CA         25.4850    3.1240   19.9850 C.3      12 GLL5        0.0000 
     78 CA         26.3510    5.5950   17.4400 C.3       8 GLP5        0.0000 
     79 CA         25.1762    5.1718   20.9590 C.3       4 GLC5        0.0000 
     80 CA         24.3130    6.9740   21.5890 C.3       8 GLP5        0.0000 
     81 CA         28.3588    2.2508   18.7269 C.3       4 GLC5        0.0000 
     82 CA         27.7600    2.8720   20.8180 C.3      12 GLL5        0.0000 
     83 CA         27.2223    2.2497   18.2230 C.3       4 GLC5        0.0000 
     84 CA         26.7090    1.0720   19.5800 C.3      12 GLL5        0.0000 
     85 CA         25.9483    0.5443   14.5625 C.3       4 GLC5        0.0000 
     86 CA         26.3850    1.5740   12.7480 C.3       8 GLP5        0.0000 
@<TRIPOS>BOND
@<TRIPOS>SUBSTRUCTURE
     1 ALC1        6 GROUP        1 X    ALC  0     ROOT ALC X 1
     2 SEC2        1 GROUP        1 X    SEC  0     **** SEC X 2
     3 LYC4       58 GROUP        1 X    LYC  0     **** LYC X 4
     4 GLC5       17 GROUP        1 X    GLC  0     **** GLC X 6
     5 ALP1        8 GROUP        1 Y    ALP  0     ROOT ALP Y 8
     6 SEP2        3 GROUP        1 Y    SEP  0     **** SEP Y 9
     7 LYP4       60 GROUP        1 Y    LYP  0     **** LYP Y 11
     8 GLP5       19 GROUP        1 Y    GLP  0     **** GLP Y 13
     9 ALL1        7 GROUP        1 Z    ALL  0     ROOT ALL Z 15
    10 SEL2        2 GROUP        1 Z    SEL  0     **** SEL Z 16
    11 LYL4       59 GROUP        1 Z    LYL  0     **** LYL Z 18
    12 GLL5       18 GROUP        1 Z    GLL  0     **** GLL Z 20
@<TRIPOS>SET

