#    Name: 4b5n_FMN_1_ligand
#    Modification time : Tue Mar 25 06:43:29 2014

@<TRIPOS>MOLECULE
4b5n_FMN_1_ligand
   50    52     1     0     0
SMALL
NO_CHARGES


@<TRIPOS>ATOM
      1 N1         22.3710    1.7280   17.6980 N.2       1 FMN400      0.0000 
      2 C2         21.3340    2.5600   17.3830 C.2       1 FMN400      0.0000 
      3 O2         20.3590    2.1490   16.7320 O.2       1 FMN400      0.0000 
      4 N3         21.4000    3.8890   17.7370 N.am      1 FMN400      0.0000 
      5 C4         22.3860    4.3990   18.5340 C.2       1 FMN400      0.0000 
      6 O4         22.3950    5.6430   18.7700 O.2       1 FMN400      0.0000 
      7 C4A        23.3950    3.5230   18.9500 C.2       1 FMN400      0.0000 
      8 N5         24.3960    3.9500   19.7800 N.2       1 FMN400      0.0000 
      9 C5A        25.4850    3.1240   19.9850 C.ar      1 FMN400      0.0000 
     10 C6         26.5940    3.6150   20.6730 C.ar      1 FMN400      0.0000 
     11 C7         27.7600    2.8720   20.8180 C.ar      1 FMN400      0.0000 
     12 C7M        28.9310    3.4430   21.5690 C.3       1 FMN400      0.0000 
     13 C8         27.7940    1.5680   20.3010 C.ar      1 FMN400      0.0000 
     14 C8M        29.0200    0.7010   20.4500 C.3       1 FMN400      0.0000 
     15 C9         26.7090    1.0720   19.5800 C.ar      1 FMN400      0.0000 
     16 C9A        25.5420    1.8450   19.4140 C.ar      1 FMN400      0.0000 
     17 N10        24.4510    1.3810   18.6730 N.pl3     1 FMN400      0.0000 
     18 C10        23.3880    2.2170   18.4470 C.2       1 FMN400      0.0000 
     19 C1'        24.5420    0.0760   17.9750 C.3       1 FMN400      0.0000 
     20 C2'        25.3380    0.1980   16.6730 C.3       1 FMN400      0.0000 
     21 O2'        24.6030    0.9090   15.6960 O.3       1 FMN400      0.0000 
     22 C3'        25.6850   -1.1690   16.0810 C.3       1 FMN400      0.0000 
     23 O3'        24.4800   -1.8900   15.8310 O.3       1 FMN400      0.0000 
     24 C4'        26.6330   -1.9930   16.9550 C.3       1 FMN400      0.0000 
     25 O4'        27.7020   -1.1890   17.4210 O.3       1 FMN400      0.0000 
     26 C5'        27.1320   -3.2330   16.1990 C.3       1 FMN400      0.0000 
     27 O5'        27.8850   -2.9120   15.0450 O.3       1 FMN400      0.0000 
     28 P          29.4930   -2.9740   15.0810 P.3       1 FMN400      0.0000 
     29 O1P        29.9560   -1.9640   16.1040 O.co2     1 FMN400      0.0000 
     30 O2P        29.8860   -4.3770   15.4890 O.co2     1 FMN400      0.0000 
     31 O3P        29.9340   -2.6320   13.6840 O.co2     1 FMN400      0.0000 
     32 H          20.6528    4.5402   17.3740 H         1 FMN400      0.0000 
     33 H          26.5455    4.5684   21.0907 H         1 FMN400      0.0000 
     34 H          26.7537    0.1325   19.1619 H         1 FMN400      0.0000 
     35 H          23.5410   -0.2981   17.7349 H         1 FMN400      0.0000 
     36 H          25.0353   -0.6642   18.6141 H         1 FMN400      0.0000 
     37 H          26.2745    0.7042   16.8927 H         1 FMN400      0.0000 
     38 H          26.2018   -0.9823   15.1230 H         1 FMN400      0.0000 
     39 H          26.0326   -2.3613   17.8064 H         1 FMN400      0.0000 
     40 H          26.2378   -3.8440   15.9513 H         1 FMN400      0.0000 
     41 H          27.7211   -3.8382   16.9208 H         1 FMN400      0.0000 
     42 H          29.7007    2.8052   21.5974 H         1 FMN400      0.0000 
     43 H          29.2651    4.2872   21.1498 H         1 FMN400      0.0000 
     44 H          28.6948    3.6597   22.5162 H         1 FMN400      0.0000 
     45 H          29.8222    1.1151   20.0200 H         1 FMN400      0.0000 
     46 H          29.2501    0.5450   21.4106 H         1 FMN400      0.0000 
     47 H          28.8929   -0.1973   20.0295 H         1 FMN400      0.0000 
     48 H          24.7125    1.8725   15.9404 H         1 FMN400      0.0000 
     49 H          24.6702   -2.8243   16.1326 H         1 FMN400      0.0000 
     50 H          28.4969   -1.4824   16.8900 H         1 FMN400      0.0000 
@<TRIPOS>BOND
     1    2    1 1    
     2   18    1 2    
     3    3    2 2    
     4    4    2 am   
     5    5    4 am   
     6   32    4 1    
     7    6    5 2    
     8    7    5 1    
     9    8    7 2    
    10   18    7 1    
    11    9    8 1    
    12   10    9 ar   
    13   16    9 ar   
    14   11   10 ar   
    15   33   10 1    
    16   12   11 1    
    17   13   11 ar   
    18   42   12 1    
    19   43   12 1    
    20   44   12 1    
    21   14   13 1    
    22   15   13 ar   
    23   45   14 1    
    24   46   14 1    
    25   47   14 1    
    26   16   15 ar   
    27   34   15 1    
    28   17   16 1    
    29   18   17 1    
    30   19   17 1    
    31   20   19 1    
    32   35   19 1    
    33   36   19 1    
    34   21   20 1    
    35   22   20 1    
    36   37   20 1    
    37   48   21 1    
    38   23   22 1    
    39   24   22 1    
    40   38   22 1    
    41   49   23 1    
    42   25   24 1    
    43   26   24 1    
    44   39   24 1    
    45   50   25 1    
    46   27   26 1    
    47   40   26 1    
    48   41   26 1    
    49   28   27 1    
    50   29   28 ar   
    51   30   28 ar   
    52   31   28 ar   
@<TRIPOS>SUBSTRUCTURE
     1 FMN400      1 GROUP   
@<TRIPOS>SET

