#    Name: 4dju_0KK_1_INTS_M
#    Modification time : Tue Mar 25 09:44:36 2014

@<TRIPOS>MOLECULE
4dju_0KK_1_INTS_M
   34     0     9     0     0
SMALL
NO_CHARGES


@<TRIPOS>ATOM
      1 O          21.9620    8.3120   22.4270 O.2       1 ALC1        0.0000 
      2 O          22.0950    9.6270   22.5950 O.2       7 ALL1        0.0000 
      3 O          21.8290    6.9970   22.2590 O.2       4 ALP1        0.0000 
      4 OD1        22.9030    7.8480   24.4490 O.co2     2 ASC3        0.0000 
      5 OD1        22.4580   10.0150   23.8380 O.co2     8 ASL3        0.0000 
      6 OD1        22.9790    6.5000   24.0770 O.co2     5 ASP3        0.0000 
      7 OD1        22.1435    8.5060   23.0485 O.co2     2 ASC3        0.0000 
      8 OD1        21.8290    6.9970   22.2590 O.co2     5 ASP3        0.0000 
      9 OD1        23.1200    9.3680   26.1900 O.co2     2 ASC3        0.0000 
     10 OD1        23.4130    9.5400   27.5590 O.co2     5 ASP3        0.0000 
     11 O          22.9030    7.8480   24.4490 O.2       1 ALC1        0.0000 
     12 O          22.8270    9.1960   24.8210 O.2       7 ALL1        0.0000 
     13 O          22.9790    6.5000   24.0770 O.2       4 ALP1        0.0000 
     14 O          23.1200    9.3680   26.1900 O.2       1 ALC1        0.0000 
     15 O          23.4130    9.5400   27.5590 O.2       4 ALP1        0.0000 
     16 CA         23.3105   13.0990   16.5600 C.3       3 GLC5        0.0000 
     17 CA         23.2720   12.4360   18.6790 C.3       9 GLL5        0.0000 
     18 CA         23.3490   13.7620   14.4410 C.3       6 GLP5        0.0000 
     19 CA         20.4990    8.3418   19.7293 C.3       3 GLC5        0.0000 
     20 CA         18.5430    9.6320   20.0900 C.3       9 GLL5        0.0000 
     21 CA         21.7880    6.9850   19.1840 C.3       6 GLP5        0.0000 
     22 CA         18.4240    8.4279   21.6294 C.3       3 GLC5        0.0000 
     23 CA         17.5760   10.4230   20.6790 C.3       9 GLL5        0.0000 
     24 CA         18.4550    6.7950   22.7820 C.3       6 GLP5        0.0000 
     25 CA         16.3516   10.9659   19.8619 C.3       3 GLC5        0.0000 
     26 CA         14.7040   11.2500   18.7090 C.3       6 GLP5        0.0000 
     27 CA         18.3152   13.2523   21.5162 C.3       3 GLC5        0.0000 
     28 CA         17.9390   11.3360   21.6450 C.3       9 GLL5        0.0000 
     29 CA         18.0250   15.1020   21.2010 C.3       6 GLP5        0.0000 
     30 CA         24.9058    8.6907   19.5430 C.3       3 GLC5        0.0000 
     31 CA         23.6520   10.2040   20.2690 C.3       9 GLL5        0.0000 
     32 CA         25.7450    7.0610   19.3650 C.3       6 GLP5        0.0000 
     33 CA         22.7991    8.7636   19.4926 C.3       3 GLC5        0.0000 
     34 CA         24.4810   10.4370   19.1730 C.3       9 GLL5        0.0000 
@<TRIPOS>BOND
@<TRIPOS>SUBSTRUCTURE
     1 ALC1        1 GROUP        1 X    ALC  0     ROOT ALC X 1
     2 ASC3        4 GROUP        1 X    ASC  0     **** ASC X 3
     3 GLC5       16 GROUP        1 X    GLC  0     **** GLC X 6
     4 ALP1        3 GROUP        1 Y    ALP  0     ROOT ALP Y 8
     5 ASP3        6 GROUP        1 Y    ASP  0     **** ASP Y 10
     6 GLP5       18 GROUP        1 Y    GLP  0     **** GLP Y 13
     7 ALL1        2 GROUP        1 Z    ALL  0     ROOT ALL Z 15
     8 ASL3        5 GROUP        1 Z    ASL  0     **** ASL Z 17
     9 GLL5       17 GROUP        1 Z    GLL  0     **** GLL Z 20
@<TRIPOS>SET

