#    Name: 4dju_0KK_1_ligand
#    Modification time : Tue Mar 25 09:44:36 2014

@<TRIPOS>MOLECULE
4dju_0KK_1_ligand
   36    38     1     0     0
SMALL
NO_CHARGES


@<TRIPOS>ATOM
      1 O1         21.8230   13.1940   22.6510 O.2       1 0KK501      0.0000 
      2 C1         21.9860   12.0030   22.8380 C.2       1 0KK501      0.0000 
      3 C2         21.7410   10.8480   21.8250 C.3       1 0KK501      0.0000 
      4 N1         22.0950    9.6270   22.5950 N.pl3     1 0KK501      0.0000 
      5 C3         22.4580   10.0150   23.8380 C.cat     1 0KK501      0.0000 
      6 N2         22.4180   11.4310   24.0130 N.am      1 0KK501      0.0000 
      7 N3         22.8270    9.1960   24.8210 N.pl3     1 0KK501      0.0000 
      8 C4         22.7430   12.2060   25.2160 C.3       1 0KK501      0.0000 
      9 C5         20.2620   10.6920   21.4230 C.ar      1 0KK501      0.0000 
     10 C6         19.8770    9.7650   20.4590 C.ar      1 0KK501      0.0000 
     11 C7         18.5430    9.6320   20.0900 C.ar      1 0KK501      0.0000 
     12 C8         17.5760   10.4230   20.6790 C.ar      1 0KK501      0.0000 
     13 C9         17.9390   11.3360   21.6450 C.ar      1 0KK501      0.0000 
     14 C10        19.2720   11.4690   22.0180 C.ar      1 0KK501      0.0000 
     15 C11        22.6270   11.0910   20.5900 C.ar      1 0KK501      0.0000 
     16 C12        22.4470   12.2110   19.7790 C.ar      1 0KK501      0.0000 
     17 C13        23.2720   12.4360   18.6790 C.ar      1 0KK501      0.0000 
     18 C14        24.2900   11.5520   18.3800 C.ar      1 0KK501      0.0000 
     19 C15        24.4810   10.4370   19.1730 C.ar      1 0KK501      0.0000 
     20 C16        23.6520   10.2040   20.2690 C.ar      1 0KK501      0.0000 
     21 H          22.0492    8.7725   22.2154 H         1 0KK501      0.0000 
     22 H          23.0707    9.6309   25.6879 H         1 0KK501      0.0000 
     23 H          22.8272    8.2199   24.6037 H         1 0KK501      0.0000 
     24 H          20.5928    9.1676   20.0116 H         1 0KK501      0.0000 
     25 H          18.2787    8.9387   19.3732 H         1 0KK501      0.0000 
     26 H          16.5906   10.3299   20.3970 H         1 0KK501      0.0000 
     27 H          17.2229   11.9262   22.0970 H         1 0KK501      0.0000 
     28 H          19.5322   12.1546   22.7476 H         1 0KK501      0.0000 
     29 H          21.6924   12.8820   19.9969 H         1 0KK501      0.0000 
     30 H          23.1174   13.2676   18.0890 H         1 0KK501      0.0000 
     31 H          24.9027   11.7226   17.5714 H         1 0KK501      0.0000 
     32 H          25.2384    9.7712   18.9578 H         1 0KK501      0.0000 
     33 H          23.7999    9.3628   20.8503 H         1 0KK501      0.0000 
     34 H          23.0405   11.6175   25.9678 H         1 0KK501      0.0000 
     35 H          23.4793   12.8615   25.0479 H         1 0KK501      0.0000 
     36 H          21.9560   12.7275   25.5457 H         1 0KK501      0.0000 
@<TRIPOS>BOND
     1    2    1 2    
     2    3    2 1    
     3    6    2 am   
     4    4    3 1    
     5    9    3 1    
     6   15    3 1    
     7    5    4 ar   
     8   21    4 1    
     9    6    5 ar   
    10    7    5 ar   
    11    8    6 1    
    12   22    7 1    
    13   23    7 1    
    14   34    8 1    
    15   35    8 1    
    16   36    8 1    
    17   10    9 ar   
    18   14    9 ar   
    19   11   10 ar   
    20   24   10 1    
    21   12   11 ar   
    22   25   11 1    
    23   13   12 ar   
    24   26   12 1    
    25   14   13 ar   
    26   27   13 1    
    27   28   14 1    
    28   16   15 ar   
    29   20   15 ar   
    30   17   16 ar   
    31   29   16 1    
    32   18   17 ar   
    33   30   17 1    
    34   19   18 ar   
    35   31   18 1    
    36   20   19 ar   
    37   32   19 1    
    38   33   20 1    
@<TRIPOS>SUBSTRUCTURE
     1 0KK501      1 GROUP   
@<TRIPOS>SET

