#    Name: 2y5d_NAP_2_INTS_M
#    Modification time : Tue Mar 25 07:36:31 2014

@<TRIPOS>MOLECULE
2y5d_NAP_2_INTS_M
   89     0    12     0     0
SMALL
NO_CHARGES


@<TRIPOS>ATOM
      1 N         -18.6975   -4.4890   -7.3820 N.am      2 SEC2        0.0000 
      2 N         -19.1440   -5.7460   -7.3850 N.am     10 SEL2        0.0000 
      3 N         -18.2510   -3.2320   -7.3790 N.am      6 SEP2        0.0000 
      4 N         -19.7600   -4.8320   -6.4300 N.am      2 SEC2        0.0000 
      5 N         -20.3760   -3.9180   -5.4750 N.am      6 SEP2        0.0000 
      6 N         -19.6750   -6.2645   -5.9470 N.am      2 SEC2        0.0000 
      7 N         -20.2060   -6.7830   -4.5090 N.am      6 SEP2        0.0000 
      8 N         -20.3955   -7.2640   -5.7915 N.am      2 SEC2        0.0000 
      9 N         -20.5850   -7.7450   -7.0740 N.am     10 SEL2        0.0000 
     10 CA        -16.7555   -7.0165  -11.3755 C.3       4 GLC5        0.0000 
     11 CA        -17.6250   -7.5470   -9.3920 C.3      12 GLL5        0.0000 
     12 CA        -15.8860   -6.4860  -13.3590 C.3       8 GLP5        0.0000 
     13 CA        -17.1190   -5.6645   -9.2320 C.3       4 GLC5        0.0000 
     14 CA        -16.6130   -3.7820   -9.0720 C.3       8 GLP5        0.0000 
     15 CA        -17.8290  -10.0540  -12.1665 C.3       4 GLC5        0.0000 
     16 CA        -17.5520   -9.9580  -10.1980 C.3      12 GLL5        0.0000 
     17 CA        -18.1060  -10.1500  -14.1350 C.3       8 GLP5        0.0000 
     18 N         -16.5585  -12.2310  -10.7095 N.am      2 SEC2        0.0000 
     19 N         -16.5740  -10.8180  -10.6820 N.am     10 SEL2        0.0000 
     20 N         -16.5430  -13.6440  -10.7370 N.am      6 SEP2        0.0000 
     21 O         -15.9265   -9.9320  -11.5440 O.2       1 ALC1        0.0000 
     22 O         -16.5740  -10.8180  -10.6820 O.2       9 ALL1        0.0000 
     23 O         -15.2790   -9.0460  -12.4060 O.2       5 ALP1        0.0000 
     24 N         -17.6375  -12.8140  -10.2235 N.am      2 SEC2        0.0000 
     25 N         -18.7320  -11.9840   -9.7100 N.am     10 SEL2        0.0000 
     26 CA        -15.7345  -10.7115   -7.9690 C.3       4 GLC5        0.0000 
     27 CA        -17.5710  -10.7320   -8.0250 C.3      12 GLL5        0.0000 
     28 CA        -13.8980  -10.6910   -7.9130 C.3       8 GLP5        0.0000 
     29 CA        -16.3905   -9.0090   -7.2110 C.3       4 GLC5        0.0000 
     30 CA        -15.2100   -7.2860   -6.3970 C.3       8 GLP5        0.0000 
     31 CA        -14.1205  -12.4765   -5.1120 C.3       4 GLC5        0.0000 
     32 CA        -16.1880  -12.9020   -4.5180 C.3      12 GLL5        0.0000 
     33 CA        -12.0530  -12.0510   -5.7060 C.3       8 GLP5        0.0000 
     34 CA        -16.2945  -14.4715   -5.3395 C.3       4 GLC5        0.0000 
     35 CA        -16.4010  -16.0410   -6.1610 C.3       8 GLP5        0.0000 
     36 CA        -15.8305  -11.4095   -3.3030 C.3       4 GLC5        0.0000 
     37 CA        -15.4730   -9.9170   -2.0880 C.3       8 GLP5        0.0000 
     38 CA        -15.7815  -11.1990   -6.8225 C.3       4 GLC5        0.0000 
     39 CA        -17.6650  -11.7070   -5.7320 C.3      12 GLL5        0.0000 
     40 CA        -20.4455   -5.3225  -13.0910 C.3       4 GLC5        0.0000 
     41 CA        -19.7360   -4.8430  -11.6690 C.3      12 GLL5        0.0000 
     42 CA        -21.1550   -5.8020  -14.5130 C.3       8 GLP5        0.0000 
     43 CA        -21.1875   -1.1015  -13.4875 C.3       4 GLC5        0.0000 
     44 CA        -20.6100   -2.1630  -12.0380 C.3      12 GLL5        0.0000 
     45 CA        -21.7650   -0.0400  -14.9370 C.3       8 GLP5        0.0000 
     46 CA        -19.7205    0.2800  -12.8205 C.3       4 GLC5        0.0000 
     47 CA        -19.7940   -0.9360  -11.5800 C.3      12 GLL5        0.0000 
     48 CA        -19.6470    1.4960  -14.0610 C.3       8 GLP5        0.0000 
     49 CA        -17.4915   -2.6395  -10.1365 C.3       4 GLC5        0.0000 
     50 CA        -18.3700   -1.4970  -11.2010 C.3      12 GLL5        0.0000 
     51 CA        -18.8920   -0.5155  -13.0225 C.3       4 GLC5        0.0000 
     52 CA        -19.4140    0.4660  -14.8440 C.3       8 GLP5        0.0000 
     53 CA        -16.1780   -2.1295  -10.0580 C.3       4 GLC5        0.0000 
     54 CA        -15.7430   -0.4770  -11.0440 C.3      12 GLL5        0.0000 
     55 CA        -15.3240    0.0925   -9.0410 C.3       4 GLC5        0.0000 
     56 CA        -14.9050    0.6620   -7.0380 C.3       8 GLP5        0.0000 
     57 N         -19.7585  -12.3620  -13.0165 N.am      2 SEC2        0.0000 
     58 N         -20.2090  -11.5210  -11.8050 N.am     10 SEL2        0.0000 
     59 N         -19.3080  -13.2030  -14.2280 N.am      6 SEP2        0.0000 
     60 NZ        -18.2635  -13.6645  -10.9920 N.4       3 LYC4        0.0000 
     61 NZ        -19.9840  -13.6850  -11.2470 N.4      11 LYL4        0.0000 
     62 NZ        -16.5430  -13.6440  -10.7370 N.4       7 LYP4        0.0000 
     63 N         -19.6460  -13.4440  -12.7375 N.am      2 SEC2        0.0000 
     64 N         -19.9840  -13.6850  -11.2470 N.am     10 SEL2        0.0000 
     65 N         -20.0775  -14.6460  -12.1350 N.am      2 SEC2        0.0000 
     66 N         -20.1710  -15.6070  -13.0230 N.am      6 SEP2        0.0000 
     67 CA        -16.2465   -7.7555   -7.8610 C.3       4 GLC5        0.0000 
     68 CA        -16.9410   -8.9030   -9.2580 C.3      12 GLL5        0.0000 
     69 CA        -15.5723  -10.0608   -8.8205 C.3       4 GLC5        0.0000 
     70 CA        -18.0962   -9.7605   -4.7357 C.3       4 GLC5        0.0000 
     71 CA        -18.0900   -7.8270   -4.2560 C.3       8 GLP5        0.0000 
     72 CA        -16.9155  -10.9560   -3.1045 C.3       4 GLC5        0.0000 
     73 CA        -18.5400  -11.6810   -4.6990 C.3      12 GLL5        0.0000 
     74 CA        -17.7737   -4.4955  -12.4100 C.3       4 GLC5        0.0000 
     75 CA        -15.8610   -4.9350  -13.2000 C.3       8 GLP5        0.0000 
     76 CA        -18.1498   -3.9190  -10.3460 C.3       4 GLC5        0.0000 
     77 CA        -21.0008   -3.6675  -13.0297 C.3       4 GLC5        0.0000 
     78 CA        -19.6370   -3.2690  -11.5710 C.3      12 GLL5        0.0000 
     79 CA        -21.8780   -4.6190  -14.2550 C.3       8 GLP5        0.0000 
     80 CA        -14.0180   -1.7465  -11.5942 C.3       4 GLC5        0.0000 
     81 CA        -12.8980   -3.0560  -11.7090 C.3       8 GLP5        0.0000 
     82 CA        -15.1995    0.9355  -12.3487 C.3       4 GLC5        0.0000 
     83 CA        -14.5330   -0.3970  -11.9150 C.3      12 GLL5        0.0000 
     84 CA        -15.2610    2.3080  -13.2180 C.3       8 GLP5        0.0000 
     85 CA        -15.8927   -3.1472  -13.2118 C.3       4 GLC5        0.0000 
     86 CA        -14.5440   -0.8830  -13.2200 C.3      12 GLL5        0.0000 
     87 CA        -14.4112   -2.2077  -12.4663 C.3       4 GLC5        0.0000 
     88 CA        -15.6760   -1.4270  -13.6900 C.3      12 GLL5        0.0000 
     89 CA        -15.5927    0.4742  -13.2208 C.3       4 GLC5        0.0000 
@<TRIPOS>BOND
@<TRIPOS>SUBSTRUCTURE
     1 ALC1       21 GROUP        1 X    ALC  0     ROOT ALC X 1
     2 SEC2        1 GROUP        1 X    SEC  0     **** SEC X 2
     3 LYC4       60 GROUP        1 X    LYC  0     **** LYC X 4
     4 GLC5       10 GROUP        1 X    GLC  0     **** GLC X 6
     5 ALP1       23 GROUP        1 Y    ALP  0     ROOT ALP Y 8
     6 SEP2        3 GROUP        1 Y    SEP  0     **** SEP Y 9
     7 LYP4       62 GROUP        1 Y    LYP  0     **** LYP Y 11
     8 GLP5       12 GROUP        1 Y    GLP  0     **** GLP Y 13
     9 ALL1       22 GROUP        1 Z    ALL  0     ROOT ALL Z 15
    10 SEL2        2 GROUP        1 Z    SEL  0     **** SEL Z 16
    11 LYL4       61 GROUP        1 Z    LYL  0     **** LYL Z 18
    12 GLL5       11 GROUP        1 Z    GLL  0     **** GLL Z 20
@<TRIPOS>SET

