#    Name: 2y5d_NAP_2_ligand
#    Modification time : Tue Mar 25 07:36:31 2014

@<TRIPOS>MOLECULE
2y5d_NAP_2_ligand
   71    75     1     0     0
SMALL
NO_CHARGES


@<TRIPOS>ATOM
      1 PA        -19.9310   -6.8750   -8.0600 P.3       1 NAP1533     0.0000 
      2 O1A       -19.1440   -5.7460   -7.3850 O.co2     1 NAP1533     0.0000 
      3 O2A       -20.5850   -7.7450   -7.0740 O.co2     1 NAP1533     0.0000 
      4 O5B       -18.9620   -7.7400   -9.0040 O.3       1 NAP1533     0.0000 
      5 C5B       -17.6250   -7.5470   -9.3920 C.3       1 NAP1533     0.0000 
      6 C4B       -16.9410   -8.9030   -9.2580 C.3       1 NAP1533     0.0000 
      7 O4B       -17.0080   -9.4390   -7.9470 O.3       1 NAP1533     0.0000 
      8 C3B       -17.5520   -9.9580  -10.1980 C.3       1 NAP1533     0.0000 
      9 O3B       -16.5740  -10.8180  -10.6820 O.3       1 NAP1533     0.0000 
     10 C2B       -18.4750  -10.6730   -9.2260 C.3       1 NAP1533     0.0000 
     11 O2B       -18.7320  -11.9840   -9.7100 O.3       1 NAP1533     0.0000 
     12 C1B       -17.5710  -10.7320   -8.0250 C.3       1 NAP1533     0.0000 
     13 N9A       -18.1850  -11.0260   -6.7470 N.pl3     1 NAP1533     0.0000 
     14 C8A       -19.3620  -10.5930   -6.3440 C.2       1 NAP1533     0.0000 
     15 N7A       -19.5890  -11.0130   -5.1000 N.2       1 NAP1533     0.0000 
     16 C5A       -18.5400  -11.6810   -4.6990 C.ar      1 NAP1533     0.0000 
     17 C6A       -18.1760  -12.3090   -3.5430 C.ar      1 NAP1533     0.0000 
     18 N6A       -19.0160  -12.3200   -2.5540 N.pl3     1 NAP1533     0.0000 
     19 N1A       -17.0220  -12.9280   -3.4980 N.ar      1 NAP1533     0.0000 
     20 C2A       -16.1880  -12.9020   -4.5180 C.ar      1 NAP1533     0.0000 
     21 N3A       -16.5140  -12.2830   -5.5880 N.ar      1 NAP1533     0.0000 
     22 C4A       -17.6650  -11.7070   -5.7320 C.ar      1 NAP1533     0.0000 
     23 O3        -21.1770   -6.4910   -8.9080 O.3       1 NAP1533     0.0000 
     24 PN        -21.2690   -5.4910  -10.1280 P.3       1 NAP1533     0.0000 
     25 O1N       -21.9950   -4.1860   -9.5110 O.co2     1 NAP1533     0.0000 
     26 O2N       -21.9430   -5.9460  -11.2870 O.co2     1 NAP1533     0.0000 
     27 O5D       -19.7620   -5.1980  -10.5000 O.3       1 NAP1533     0.0000 
     28 C5D       -19.7360   -4.8430  -11.6690 C.3       1 NAP1533     0.0000 
     29 C4D       -19.6370   -3.2690  -11.5710 C.3       1 NAP1533     0.0000 
     30 O4D       -18.5130   -2.7020  -12.0670 O.3       1 NAP1533     0.0000 
     31 C3D       -20.6100   -2.1630  -12.0380 C.3       1 NAP1533     0.0000 
     32 O3D       -21.8410   -1.9300  -11.3190 O.3       1 NAP1533     0.0000 
     33 C2D       -19.7940   -0.9360  -11.5800 C.3       1 NAP1533     0.0000 
     34 O2D       -20.4640   -0.2220  -10.5210 O.3       1 NAP1533     0.0000 
     35 C1D       -18.3700   -1.4970  -11.2010 C.3       1 NAP1533     0.0000 
     36 N1N       -16.9240   -1.1150  -11.6930 N.pl3     1 NAP1533     0.0000 
     37 C2N       -15.7430   -0.4770  -11.0440 C.ar      1 NAP1533     0.0000 
     38 C3N       -14.5330   -0.3970  -11.9150 C.ar      1 NAP1533     0.0000 
     39 C7N       -13.1490    0.3170  -11.5460 C.2       1 NAP1533     0.0000 
     40 O7N       -13.3680    0.9550  -10.5880 O.2       1 NAP1533     0.0000 
     41 N7N       -11.9120    0.3480  -12.3910 N.am      1 NAP1533     0.0000 
     42 C4N       -14.5440   -0.8830  -13.2200 C.ar      1 NAP1533     0.0000 
     43 C5N       -15.6760   -1.4270  -13.6900 C.ar      1 NAP1533     0.0000 
     44 C6N       -16.7390   -1.5640  -12.9920 C.ar      1 NAP1533     0.0000 
     45 P2B       -20.1550  -12.3770  -10.5330 P.3       1 NAP1533     0.0000 
     46 O1X       -20.2090  -11.5210  -11.8050 O.co2     1 NAP1533     0.0000 
     47 O2X       -19.9840  -13.6850  -11.2470 O.co2     1 NAP1533     0.0000 
     48 O3X       -21.3290  -11.9970   -9.7310 O.co2     1 NAP1533     0.0000 
     49 H         -17.1004   -6.8462   -8.7501 H         1 NAP1533     0.0000 
     50 H         -17.5313   -7.2292  -10.4257 H         1 NAP1533     0.0000 
     51 H         -15.8929   -8.7912   -9.5660 H         1 NAP1533     0.0000 
     52 H         -18.1343   -9.4599  -10.9072 H         1 NAP1533     0.0000 
     53 H         -19.2918  -10.0866   -9.0312 H         1 NAP1533     0.0000 
     54 H         -16.7720  -11.4423   -8.2411 H         1 NAP1533     0.0000 
     55 H         -19.9828  -10.0448   -6.8722 H         1 NAP1533     0.0000 
     56 H         -18.7249  -12.8143   -1.7349 H         1 NAP1533     0.0000 
     57 H         -19.8768  -11.8331   -2.7024 H         1 NAP1533     0.0000 
     58 H         -15.2572  -13.3968   -4.4338 H         1 NAP1533     0.0000 
     59 H         -20.6322   -5.0073  -12.2850 H         1 NAP1533     0.0000 
     60 H         -18.8638   -5.1189  -12.2796 H         1 NAP1533     0.0000 
     61 H         -19.5543   -3.0344  -10.4069 H         1 NAP1533     0.0000 
     62 H         -20.6641   -2.1109  -13.0599 H         1 NAP1533     0.0000 
     63 H         -19.6498   -0.3169  -12.4658 H         1 NAP1533     0.0000 
     64 H         -18.3634   -1.8838  -10.2255 H         1 NAP1533     0.0000 
     65 H         -15.7581   -0.1484  -10.1507 H         1 NAP1533     0.0000 
     66 H         -13.6933   -0.8152  -13.7894 H         1 NAP1533     0.0000 
     67 H         -15.6632   -1.7596  -14.7170 H         1 NAP1533     0.0000 
     68 H         -17.6014   -2.0741  -13.4192 H         1 NAP1533     0.0000 
     69 H         -16.0630  -10.2783  -11.3510 H         1 NAP1533     0.0000 
     70 H         -22.0081   -2.7753  -10.8116 H         1 NAP1533     0.0000 
     71 H         -21.2758   -0.7680  -10.3141 H         1 NAP1533     0.0000 
@<TRIPOS>BOND
     1    2    1 ar   
     2    3    1 ar   
     3    4    1 1    
     4   23    1 1    
     5    5    4 1    
     6    6    5 1    
     7   49    5 1    
     8   50    5 1    
     9    7    6 1    
    10    8    6 1    
    11   51    6 1    
    12   12    7 1    
    13    9    8 1    
    14   10    8 1    
    15   52    8 1    
    16   69    9 1    
    17   11   10 1    
    18   12   10 1    
    19   53   10 1    
    20   45   11 1    
    21   13   12 1    
    22   54   12 1    
    23   14   13 1    
    24   22   13 1    
    25   15   14 2    
    26   55   14 1    
    27   16   15 1    
    28   17   16 ar   
    29   22   16 ar   
    30   18   17 1    
    31   19   17 ar   
    32   56   18 1    
    33   57   18 1    
    34   20   19 ar   
    35   21   20 ar   
    36   58   20 1    
    37   22   21 ar   
    38   24   23 1    
    39   25   24 ar   
    40   26   24 ar   
    41   27   24 1    
    42   28   27 1    
    43   29   28 1    
    44   59   28 1    
    45   60   28 1    
    46   30   29 1    
    47   31   29 1    
    48   61   29 1    
    49   35   30 1    
    50   32   31 1    
    51   33   31 1    
    52   62   31 1    
    53   70   32 1    
    54   34   33 1    
    55   35   33 1    
    56   63   33 1    
    57   71   34 1    
    58   36   35 1    
    59   64   35 1    
    60   37   36 ar   
    61   44   36 ar   
    62   38   37 ar   
    63   65   37 1    
    64   39   38 1    
    65   42   38 ar   
    66   40   39 2    
    67   41   39 am   
    68   43   42 ar   
    69   66   42 1    
    70   44   43 ar   
    71   67   43 1    
    72   68   44 1    
    73   46   45 ar   
    74   47   45 ar   
    75   48   45 ar   
@<TRIPOS>SUBSTRUCTURE
     1 NAP1533     1 GROUP   
@<TRIPOS>SET

