#    Name: 1PWL_1_CAVITY_N1_ALL.mol2
#    Modification time : Tue Mar 11 01:59:50 2014

@<TRIPOS>MOLECULE
1PWL_1_CAVITY_N1_ALL.mol2
  111     0     4     0     0
SMALL
NO_CHARGES


@<TRIPOS>ATOM
      1 CA         18.8982   10.9291   -8.1641 C.3       3 GLY6        0.0000 
      2 CZ         19.5237   11.0659   -9.5206 C.ar      2 PHE5        0.0000 
      3 DU         20.1493   11.2026  -10.8770 H         4 CUB7        0.0000 
      4 CZ         20.7749   11.3394  -12.2335 C.ar      2 PHE5        0.0000 
      5 CZ         18.9732   10.5019  -11.4901 C.ar      2 PHE5        0.0000 
      6 CZ         19.5988   10.6386  -12.8465 C.ar      2 PHE5        0.0000 
      7 CZ         17.7972    9.8011  -12.1031 C.ar      2 PHE5        0.0000 
      8 CZ         18.4227    9.9379  -13.4595 C.ar      2 PHE5        0.0000 
      9 CZ         15.9955    8.9636  -11.3597 C.ar      2 PHE5        0.0000 
     10 CA         16.6211    9.1003  -12.7161 C.3       3 GLY6        0.0000 
     11 CZ         17.2467    9.2371  -14.0726 C.ar      2 PHE5        0.0000 
     12 CZ         17.8722    9.3739  -15.4290 C.ar      2 PHE5        0.0000 
     13 CZ         14.8195    8.2628  -11.9727 C.ar      2 PHE5        0.0000 
     14 CZ         15.4450    8.3996  -13.3292 C.ar      2 PHE5        0.0000 
     15 CA         16.0706    8.5364  -14.6856 C.3       3 GLY6        0.0000 
     16 N          16.6962    8.6731  -16.0421 N.2       1 ALA2        0.0000 
     17 CZ         13.6434    7.5621  -12.5857 C.ar      2 PHE5        0.0000 
     18 CZ         14.2690    7.6988  -13.9422 C.ar      2 PHE5        0.0000 
     19 CA         14.8945    7.8356  -15.2986 C.3       3 GLY6        0.0000 
     20 CZ         12.4673    6.8613  -13.1988 C.ar      2 PHE5        0.0000 
     21 CZ         13.0929    6.9981  -14.5552 C.ar      2 PHE5        0.0000 
     22 CA         25.3400   16.0256   -7.9969 C.3       3 GLY6        0.0000 
     23 CA         25.9656   16.1624   -9.3534 C.3       3 GLY6        0.0000 
     24 N          23.5384   15.1881   -7.2535 N.2       1 ALA2        0.0000 
     25 CA         24.1640   15.3248   -8.6099 C.3       3 GLY6        0.0000 
     26 N          22.3623   14.4873   -7.8665 N.2       1 ALA2        0.0000 
     27 O          22.9879   14.6241   -9.2230 O.2       1 ALA2        0.0000 
     28 N          21.1863   13.7865   -8.4795 N.2       1 ALA2        0.0000 
     29 CA         19.3846   12.9490   -7.7361 C.3       3 GLY6        0.0000 
     30 O          20.0102   13.0858   -9.0926 O.2       1 ALA2        0.0000 
     31 CA         18.8341   12.3850   -9.7056 C.3       3 GLY6        0.0000 
     32 O          19.4597   12.5218  -11.0620 O.2       1 ALA2        0.0000 
     33 CZ         17.6581   11.6843  -10.3186 C.ar      2 PHE5        0.0000 
     34 DU         18.2836   11.8210  -11.6751 H         4 CUB7        0.0000 
     35 CZ         18.9092   11.9578  -13.0315 C.ar      2 PHE5        0.0000 
     36 CZ         16.4820   10.9835  -10.9317 C.ar      2 PHE5        0.0000 
     37 DU         17.1076   11.1203  -12.2881 H         4 CUB7        0.0000 
     38 CZ         17.7331   11.2571  -13.6446 C.ar      2 PHE5        0.0000 
     39 CZ         15.9315   10.4195  -12.9011 C.ar      2 PHE5        0.0000 
     40 CZ         16.5571   10.5563  -14.2576 C.ar      2 PHE5        0.0000 
     41 CA         17.1826   10.6931  -15.6140 C.3       3 GLY6        0.0000 
     42 CZ         15.3810    9.8555  -14.8706 C.ar      2 PHE5        0.0000 
     43 O          16.0066    9.9923  -16.2271 O.2       1 ALA2        0.0000 
     44 CA         18.1445   13.7042   -9.8906 C.3       3 GLY6        0.0000 
     45 O          18.7701   13.8410  -11.2471 O.2       1 ALA2        0.0000 
     46 CA         16.9685   13.0035  -10.5036 C.3       3 GLY6        0.0000 
     47 DU         17.5940   13.1402  -11.8601 H         4 CUB7        0.0000 
     48 CZ         18.2196   13.2770  -13.2165 C.ar      2 PHE5        0.0000 
     49 O          15.7924   12.3027  -11.1167 O.2       1 ALA2        0.0000 
     50 O          16.4180   12.4395  -12.4731 O.2       1 ALA2        0.0000 
     51 CA         17.0435   12.5762  -13.8296 C.3       3 GLY6        0.0000 
     52 CZ         15.8675   11.8755  -14.4426 C.ar      2 PHE5        0.0000 
     53 CZ         18.0805   15.1602  -11.4321 C.ar      2 PHE5        0.0000 
     54 N          16.2789   14.3226  -10.6886 N.2       1 ALA2        0.0000 
     55 CZ         16.9044   14.4594  -12.0451 C.ar      2 PHE5        0.0000 
     56 CZ         17.5300   14.5962  -13.4016 C.ar      2 PHE5        0.0000 
     57 N          15.7284   13.7586  -12.6581 N.2       1 ALA2        0.0000 
     58 CZ         21.5925    7.1083   -8.9656 C.ar      2 PHE5        0.0000 
     59 CZ         22.0039    9.5555   -5.2116 C.ar      2 PHE5        0.0000 
     60 O          22.6295    9.6922   -6.5680 O.2       1 ALA2        0.0000 
     61 DU         23.2551    9.8290   -7.9245 H         4 CUB7        0.0000 
     62 CA         20.8279    8.8547   -5.8246 C.3       3 GLY6        0.0000 
     63 CZ         21.4534    8.9915   -7.1811 C.ar      2 PHE5        0.0000 
     64 CZ         22.0790    9.1283   -8.5375 C.ar      2 PHE5        0.0000 
     65 DU         22.7046    9.2650   -9.8940 H         4 CUB7        0.0000 
     66 CZ         21.5285    8.5643  -10.5070 C.ar      2 PHE5        0.0000 
     67 CZ         20.3524    7.8635  -11.1200 C.ar      2 PHE5        0.0000 
     68 CZ         20.9780    8.0003  -12.4765 C.ar      2 PHE5        0.0000 
     69 CA         19.8019    7.2995  -13.0895 C.3       3 GLY6        0.0000 
     70 O          24.9176   12.5497   -6.8835 O.2       1 ALA2        0.0000 
     71 O          23.7415   11.8490   -7.4965 O.2       1 ALA2        0.0000 
     72 DU         24.3671   11.9857   -8.8529 H         4 CUB7        0.0000 
     73 CZ         21.3143   10.8746   -5.3966 C.ar      2 PHE5        0.0000 
     74 N          21.9399   11.0114   -6.7531 N.2       1 ALA2        0.0000 
     75 DU         22.5655   11.1482   -8.1095 H         4 CUB7        0.0000 
     76 DU         23.1910   11.2850   -9.4660 H         4 CUB7        0.0000 
     77 CA         23.8166   11.4217  -10.8224 C.3       3 GLY6        0.0000 
     78 CA         20.1383   10.1739   -6.0096 C.3       3 GLY6        0.0000 
     79 CZ         20.7638   10.3107   -7.3661 C.ar      2 PHE5        0.0000 
     80 CZ         21.3894   10.4474   -8.7225 C.ar      2 PHE5        0.0000 
     81 DU         22.0150   10.5842  -10.0790 H         4 CUB7        0.0000 
     82 CA         22.6405   10.7210  -11.4354 C.3       3 GLY6        0.0000 
     83 CZ         20.8389    9.8834  -10.6920 C.ar      2 PHE5        0.0000 
     84 CZ         21.4645   10.0202  -12.0485 C.ar      2 PHE5        0.0000 
     85 CZ         19.6628    9.1827  -11.3051 C.ar      2 PHE5        0.0000 
     86 CZ         20.2884    9.3195  -12.6615 C.ar      2 PHE5        0.0000 
     87 CZ         18.4868    8.4819  -11.9181 C.ar      2 PHE5        0.0000 
     88 CZ         19.1123    8.6187  -13.2745 C.ar      2 PHE5        0.0000 
     89 CA         17.9363    7.9179  -13.8876 C.3       3 GLY6        0.0000 
     90 CZ         15.5091    6.9436  -11.7877 C.ar      2 PHE5        0.0000 
     91 CA         14.3330    6.2429  -12.4007 C.3       3 GLY6        0.0000 
     92 CA         14.9586    6.3797  -13.7572 C.3       3 GLY6        0.0000 
     93 CA         12.5314    5.4054  -11.6573 C.3       3 GLY6        0.0000 
     94 CA         13.1569    5.5421  -13.0138 C.3       3 GLY6        0.0000 
     95 CA         13.7825    5.6789  -14.3702 C.3       3 GLY6        0.0000 
     96 O          25.4041   14.5696   -6.4554 O.2       1 ALA2        0.0000 
     97 O          24.2280   13.8689   -7.0685 O.2       1 ALA2        0.0000 
     98 DU         24.8536   14.0057   -8.4249 H         4 CUB7        0.0000 
     99 DU         25.4791   14.1424   -9.7814 H         4 CUB7        0.0000 
    100 N          22.4264   13.0314   -6.3250 N.2       1 ALA2        0.0000 
    101 N          23.0519   13.1681   -7.6815 N.2       1 ALA2        0.0000 
    102 O          23.6775   13.3049   -9.0379 O.2       1 ALA2        0.0000 
    103 O          24.3031   13.4417  -10.3944 O.2       1 ALA2        0.0000 
    104 CA         24.9286   13.5784  -11.7509 C.3       3 GLY6        0.0000 
    105 N          21.8759   12.4674   -8.2945 N.2       1 ALA2        0.0000 
    106 O          22.5014   12.6041   -9.6510 O.2       1 ALA2        0.0000 
    107 O          23.1270   12.7409  -11.0074 O.2       1 ALA2        0.0000 
    108 CA         20.0742   11.6298   -7.5511 C.3       3 GLY6        0.0000 
    109 DU         20.6998   11.7666   -8.9076 H         4 CUB7        0.0000 
    110 O          21.3254   11.9034  -10.2640 O.2       1 ALA2        0.0000 
    111 O          21.9509   12.0402  -11.6205 O.2       1 ALA2        0.0000 
@<TRIPOS>BOND
@<TRIPOS>SUBSTRUCTURE
     1 ALA2       16 GROUP   
     2 PHE5        2 GROUP   
     3 GLY6        1 GROUP   
     4 CUB7        3 GROUP   
@<TRIPOS>SET

