#    Name: 1pwl_BFI_1_INTS_M
#    Modification time : Mon Mar 24 22:21:51 2014

@<TRIPOS>MOLECULE
1pwl_BFI_1_INTS_M
   53     0     9     0     0
SMALL
NO_CHARGES


@<TRIPOS>ATOM
      1 CA         19.5885   13.4695  -13.1245 C.3       3 GLC5        0.0000 
      2 CA         17.6590   12.8780  -12.4540 C.3       9 GLL5        0.0000 
      3 CA         21.5180   14.0610  -13.7950 C.3       6 GLP5        0.0000 
      4 CA         20.9320   14.9560   -9.7525 C.3       3 GLC5        0.0000 
      5 CA         20.5420   13.7530   -8.6720 C.3       9 GLL5        0.0000 
      6 CA         21.3220   16.1590  -10.8330 C.3       6 GLP5        0.0000 
      7 CA         19.5650   15.2965   -8.4605 C.3       3 GLC5        0.0000 
      8 CA         18.5880   16.8400   -8.2490 C.3       6 GLP5        0.0000 
      9 O          14.9745   14.6460  -10.7470 O.2       1 ALC1        0.0000 
     10 O          16.1160   14.4760  -11.5330 O.2       7 ALL1        0.0000 
     11 O          13.8330   14.8160   -9.9610 O.2       4 ALP1        0.0000 
     12 CA         19.3165   15.2330  -13.0260 C.3       3 GLC5        0.0000 
     13 CA         17.9230   14.2460  -13.0640 C.3       9 GLL5        0.0000 
     14 CA         20.7100   16.2200  -12.9880 C.3       6 GLP5        0.0000 
     15 CA         17.5575   13.9540  -15.2080 C.3       3 GLC5        0.0000 
     16 CA         17.1920   13.6620  -17.3520 C.3       6 GLP5        0.0000 
     17 CA         16.6205   15.1165  -13.9060 C.3       3 GLC5        0.0000 
     18 CA         15.3180   15.9870  -14.7480 C.3       6 GLP5        0.0000 
     19 CA         15.2235   10.2935  -14.2040 C.3       3 GLC5        0.0000 
     20 CA         17.1590    9.5370  -14.2950 C.3       9 GLL5        0.0000 
     21 CA         13.2880   11.0500  -14.1130 C.3       6 GLP5        0.0000 
     22 CA         18.7890   10.1850  -15.0020 C.3       3 GLC5        0.0000 
     23 CA         20.4190   10.8330  -15.7090 C.3       6 GLP5        0.0000 
     24 CA         14.0010    9.4060  -15.5610 C.3       3 GLC5        0.0000 
     25 CA         15.2930    8.3120  -15.8870 C.3       9 GLL5        0.0000 
     26 CA         12.7090   10.5000  -15.2350 C.3       6 GLP5        0.0000 
     27 CA         15.9455    9.8365  -17.3235 C.3       3 GLC5        0.0000 
     28 CA         16.5980   11.3610  -18.7600 C.3       6 GLP5        0.0000 
     29 CA         11.8105    8.3700  -12.4665 C.3       3 GLC5        0.0000 
     30 CA         12.1390    6.5940  -12.1750 C.3       9 GLL5        0.0000 
     31 CA         11.4820   10.1460  -12.7580 C.3       6 GLP5        0.0000 
     32 CA         10.4625    5.8305  -11.2560 C.3       3 GLC5        0.0000 
     33 CA          8.7860    5.0670  -10.3370 C.3       6 GLP5        0.0000 
     34 CA         12.7890    5.8540  -10.5260 C.3       3 GLC5        0.0000 
     35 CA         13.4390    5.1140   -8.8770 C.3       6 GLP5        0.0000 
     36 N          14.3800   11.7755  -11.3860 N.am      2 SEC2        0.0000 
     37 N          15.7060   12.2610  -11.1360 N.am      8 SEL2        0.0000 
     38 N          13.0540   11.2900  -11.6360 N.am      5 SEP2        0.0000 
     39 CA         18.5716   13.6634   -8.1650 C.3       3 GLC5        0.0000 
     40 CA         19.1850   13.3210  -10.5100 C.3       9 GLL5        0.0000 
     41 CA         17.0520   13.9020   -6.9670 C.3       6 GLP5        0.0000 
     42 CA         16.8747    7.3208  -14.5802 C.3       3 GLC5        0.0000 
     43 CA         17.1950    5.4500  -15.1580 C.3       6 GLP5        0.0000 
     44 CA         13.8305    5.2790  -12.1825 C.3       3 GLC5        0.0000 
     45 CA         13.6770    7.4720  -12.8010 C.3       9 GLL5        0.0000 
     46 CA         14.7530    3.5250  -11.8770 C.3       6 GLP5        0.0000 
     47 CA         16.5358    6.9638  -12.4603 C.3       3 GLC5        0.0000 
     48 CA         14.5150    8.1050  -11.8770 C.3       9 GLL5        0.0000 
     49 CA         17.9980    5.4890  -12.8070 C.3       6 GLP5        0.0000 
     50 CA         15.4820    7.9663  -17.0183 C.3       3 GLC5        0.0000 
     51 CA         15.0650    8.2050  -14.5460 C.3       9 GLL5        0.0000 
     52 CA         15.7850    7.6740  -18.8200 C.3       6 GLP5        0.0000 
     53 CA         16.0431    6.7690  -15.1378 C.3       3 GLC5        0.0000 
@<TRIPOS>BOND
@<TRIPOS>SUBSTRUCTURE
     1 ALC1        9 GROUP        1 X    ALC  0     ROOT ALC X 1
     2 SEC2       36 GROUP        1 X    SEC  0     **** SEC X 2
     3 GLC5        1 GROUP        1 X    GLC  0     **** GLC X 6
     4 ALP1       11 GROUP        1 Y    ALP  0     ROOT ALP Y 8
     5 SEP2       38 GROUP        1 Y    SEP  0     **** SEP Y 9
     6 GLP5        3 GROUP        1 Y    GLP  0     **** GLP Y 13
     7 ALL1       10 GROUP        1 Z    ALL  0     ROOT ALL Z 15
     8 SEL2       37 GROUP        1 Z    SEL  0     **** SEL Z 16
     9 GLL5        2 GROUP        1 Z    GLL  0     **** GLL Z 20
@<TRIPOS>SET

