#    Name: 1pwl_BFI_1_ligand
#    Modification time : Mon Mar 24 22:21:51 2014

@<TRIPOS>MOLECULE
1pwl_BFI_1_ligand
   39    42     1     0     0
SMALL
NO_CHARGES


@<TRIPOS>ATOM
      1 C2         19.1850   13.3210  -10.5100 C.ar      1 BFI320      0.0000 
      2 C3         20.1650   10.7120  -10.5390 C.ar      1 BFI320      0.0000 
      3 C4         18.7130   12.4290  -11.4710 C.ar      1 BFI320      0.0000 
      4 C5         20.0960   12.8720   -9.5980 C.ar      1 BFI320      0.0000 
      5 C6         20.6080   11.5930   -9.5530 C.ar      1 BFI320      0.0000 
      6 C7         19.1880   11.1150  -11.4950 C.ar      1 BFI320      0.0000 
      7 C8         17.6590   12.8780  -12.4540 C.3       1 BFI320      0.0000 
      8 F9         20.5420   13.7530   -8.6720 F         1 BFI320      0.0000 
      9 C11        18.6880   10.1280  -12.4400 C.2       1 BFI320      0.0000 
     10 O13        16.5400   12.1490  -14.4010 O.2       1 BFI320      0.0000 
     11 N14        16.1160   14.4760  -11.5330 N.am      1 BFI320      0.0000 
     12 O15        17.1230   16.3950  -12.2710 O.2       1 BFI320      0.0000 
     13 O16        19.0500    8.9650  -12.4330 O.2       1 BFI320      0.0000 
     14 N17        17.7330   10.5290  -13.3440 N.am      1 BFI320      0.0000 
     15 C18        17.9230   14.2460  -13.0640 C.3       1 BFI320      0.0000 
     16 C21        17.0430   15.1760  -12.2440 C.2       1 BFI320      0.0000 
     17 C22        17.2570   11.8500  -13.4760 C.2       1 BFI320      0.0000 
     18 C23        17.1590    9.5370  -14.2950 C.3       1 BFI320      0.0000 
     19 C25        15.9500    8.8460  -13.7100 C.ar      1 BFI320      0.0000 
     20 C27        13.6770    7.4720  -12.8010 C.ar      1 BFI320      0.0000 
     21 C28        15.6320    8.7720  -12.3500 C.ar      1 BFI320      0.0000 
     22 C29        15.0650    8.2050  -14.5460 C.ar      1 BFI320      0.0000 
     23 C30        13.9140    7.5230  -14.1500 C.ar      1 BFI320      0.0000 
     24 C31        14.5150    8.1050  -11.8770 C.ar      1 BFI320      0.0000 
     25 F33        15.2930    8.3120  -15.8870 F         1 BFI320      0.0000 
     26 BR36       12.1390    6.5940  -12.1750 Br        1 BFI320      0.0000 
     27 O37        15.7060   12.2610  -11.1360 O.2       1 BFI320      0.0000 
     28 C39        16.3330   13.1540  -11.6420 C.2       1 BFI320      0.0000 
     29 H          18.8490   14.2854  -10.4994 H         1 BFI320      0.0000 
     30 H          20.5402    9.7558  -10.5881 H         1 BFI320      0.0000 
     31 H          21.2656   11.3033   -8.8504 H         1 BFI320      0.0000 
     32 H          15.3941   14.8885  -11.0163 H         1 BFI320      0.0000 
     33 H          17.6119   14.2551  -14.0781 H         1 BFI320      0.0000 
     34 H          18.9430   14.5076  -12.9359 H         1 BFI320      0.0000 
     35 H          17.9149    8.7820  -14.5469 H         1 BFI320      0.0000 
     36 H          16.8674   10.0394  -15.2263 H         1 BFI320      0.0000 
     37 H          16.2696    9.2430  -11.6653 H         1 BFI320      0.0000 
     38 H          13.3024    7.0983  -14.8236 H         1 BFI320      0.0000 
     39 H          14.3029    8.0721  -10.8831 H         1 BFI320      0.0000 
@<TRIPOS>BOND
     1    3    1 ar   
     2    4    1 ar   
     3   29    1 1    
     4    5    2 ar   
     5    6    2 ar   
     6   30    2 1    
     7    6    3 ar   
     8    7    3 1    
     9    5    4 ar   
    10    8    4 1    
    11   31    5 1    
    12    9    6 1    
    13   15    7 1    
    14   17    7 1    
    15   28    7 1    
    16   13    9 2    
    17   14    9 am   
    18   17   10 2    
    19   16   11 am   
    20   28   11 am   
    21   32   11 1    
    22   16   12 2    
    23   17   14 am   
    24   18   14 1    
    25   16   15 1    
    26   33   15 1    
    27   34   15 1    
    28   19   18 1    
    29   35   18 1    
    30   36   18 1    
    31   21   19 ar   
    32   22   19 ar   
    33   23   20 ar   
    34   24   20 ar   
    35   26   20 1    
    36   24   21 ar   
    37   37   21 1    
    38   23   22 ar   
    39   25   22 1    
    40   38   23 1    
    41   39   24 1    
    42   28   27 2    
@<TRIPOS>SUBSTRUCTURE
     1 BFI320      1 GROUP   
@<TRIPOS>SET

