#    Name: 1XPQ_3_CAVITY_N1_ALL.mol2
#    Modification time : Mon Mar 10 18:58:58 2014

@<TRIPOS>MOLECULE
1XPQ_3_CAVITY_N1_ALL.mol2
   68     0     5     0     0
SMALL
NO_CHARGES


@<TRIPOS>ATOM
      1 CZ         13.5435   50.5589   77.6065 C.ar      3 PHE5        0.0000 
      2 CZ         14.9191   50.0011   77.3905 C.ar      3 PHE5        0.0000 
      3 CA         16.2947   49.4434   77.1744 C.3       4 GLY6        0.0000 
      4 N          12.9499   49.2193   77.2851 N.2       2 ALA2        0.0000 
      5 CA         14.3255   48.6616   77.0690 C.3       4 GLY6        0.0000 
      6 N          12.3563   47.8798   76.9637 N.2       2 ALA2        0.0000 
      7 CA         13.7319   47.3221   76.7476 C.3       4 GLY6        0.0000 
      8 N          10.3872   47.0980   76.8583 N.2       2 ALA2        0.0000 
      9 OG         11.7628   46.5403   76.6422 O.2       1 SER1        0.0000 
     10 N          12.2413   50.7363   79.2717 N.2       2 ALA2        0.0000 
     11 O          13.6169   50.1786   79.0557 O.2       2 ALA2        0.0000 
     12 CA         14.9925   49.6209   78.8396 C.3       4 GLY6        0.0000 
     13 N          16.3681   49.0631   78.6236 N.2       2 ALA2        0.0000 
     14 N          17.7437   48.5054   78.4075 N.2       2 ALA2        0.0000 
     15 N          11.6477   49.3968   78.9503 N.2       2 ALA2        0.0000 
     16 N          13.0233   48.8391   78.7342 N.2       2 ALA2        0.0000 
     17 CA         14.3989   48.2813   78.5182 C.3       4 GLY6        0.0000 
     18 CA         15.7745   47.7236   78.3021 C.3       4 GLY6        0.0000 
     19 CA         17.1501   47.1659   78.0861 C.3       4 GLY6        0.0000 
     20 N          18.5257   46.6082   77.8700 N.2       2 ALA2        0.0000 
     21 N          11.0542   48.0572   78.6288 N.2       2 ALA2        0.0000 
     22 CZ         12.4298   47.4995   78.4128 C.ar      3 PHE5        0.0000 
     23 CZ         13.8054   46.9418   78.1968 C.ar      3 PHE5        0.0000 
     24 CA         15.1810   46.3841   77.9807 C.3       4 GLY6        0.0000 
     25 CA         10.4606   46.7177   78.3074 C.3       4 GLY6        0.0000 
     26 CZ         11.8362   46.1600   78.0914 C.ar      3 PHE5        0.0000 
     27 N           9.8670   45.3782   77.9860 N.2       2 ALA2        0.0000 
     28 N          13.4320   44.4615   82.2227 N.2       2 ALA2        0.0000 
     29 N          14.8076   43.9037   82.0067 N.2       2 ALA2        0.0000 
     30 CA         11.7946   48.6362   81.8486 C.3       4 GLY6        0.0000 
     31 CA         13.1702   48.0785   81.6325 C.3       4 GLY6        0.0000 
     32 CA         14.5458   47.5208   81.4165 C.3       4 GLY6        0.0000 
     33 O          15.9214   46.9631   81.2004 O.2       2 ALA2        0.0000 
     34 CA         17.2970   46.4054   80.9844 C.3       4 GLY6        0.0000 
     35 O          11.2010   47.2967   81.5271 O.2       2 ALA2        0.0000 
     36 N          12.5766   46.7390   81.3111 N.2       2 ALA2        0.0000 
     37 CZ         13.9522   46.1813   81.0950 C.ar      3 PHE5        0.0000 
     38 CZ         15.3278   45.6235   80.8790 C.ar      3 PHE5        0.0000 
     39 N          16.7034   45.0658   80.6629 N.2       2 ALA2        0.0000 
     40 CA         18.0790   44.5081   80.4469 C.3       4 GLY6        0.0000 
     41 CZ         13.3586   44.8417   80.7736 C.ar      3 PHE5        0.0000 
     42 CZ         14.7342   44.2840   80.5576 C.ar      3 PHE5        0.0000 
     43 N          16.1098   43.7263   80.3415 N.2       2 ALA2        0.0000 
     44 N          12.3147   50.3560   80.7208 N.2       2 ALA2        0.0000 
     45 CA         10.3456   49.5742   80.6155 C.3       4 GLY6        0.0000 
     46 CA         11.7212   49.0165   80.3994 C.3       4 GLY6        0.0000 
     47 CA         13.0968   48.4588   80.1834 C.3       4 GLY6        0.0000 
     48 CA         14.4724   47.9011   79.9673 C.3       4 GLY6        0.0000 
     49 O          15.8480   47.3433   79.7513 O.2       2 ALA2        0.0000 
     50 N          17.2236   46.7856   79.5352 N.2       2 ALA2        0.0000 
     51 O          18.5992   46.2279   79.3192 O.2       2 ALA2        0.0000 
     52 CA          9.7520   48.2347   80.2940 C.3       4 GLY6        0.0000 
     53 CA         11.1276   47.6770   80.0780 C.3       4 GLY6        0.0000 
     54 DU         12.5032   47.1193   79.8619 H         5 CUB7        0.0000 
     55 CZ         13.8788   46.5615   79.6459 C.ar      3 PHE5        0.0000 
     56 CZ         15.2544   46.0038   79.4298 C.ar      3 PHE5        0.0000 
     57 CZ         16.6300   45.4461   79.2138 C.ar      3 PHE5        0.0000 
     58 N          18.0056   44.8884   78.9978 N.2       2 ALA2        0.0000 
     59 N          10.5340   46.3374   79.7565 N.2       2 ALA2        0.0000 
     60 N          11.9096   45.7797   79.5405 N.2       2 ALA2        0.0000 
     61 CZ         16.0364   44.1066   78.8924 C.ar      3 PHE5        0.0000 
     62 CA         14.0990   45.4207   83.9933 C.3       4 GLY6        0.0000 
     63 CA         13.5055   44.0812   83.6719 C.3       4 GLY6        0.0000 
     64 CA         14.6192   47.1405   82.8656 C.3       4 GLY6        0.0000 
     65 O          12.6500   46.3587   82.7602 O.2       2 ALA2        0.0000 
     66 DU         14.0256   45.8010   82.5442 H         5 CUB7        0.0000 
     67 CA         15.4012   45.2433   82.3281 C.3       4 GLY6        0.0000 
     68 CA         16.7768   44.6856   82.1121 C.3       4 GLY6        0.0000 
@<TRIPOS>BOND
@<TRIPOS>SUBSTRUCTURE
     1 SER1        9 GROUP   
     2 ALA2        4 GROUP   
     3 PHE5        1 GROUP   
     4 GLY6        3 GROUP   
     5 CUB7       54 GROUP   
@<TRIPOS>SET

