#    Name: 1xpq_FAD_3_INTS_M
#    Modification time : Tue Mar 25 10:31:07 2014

@<TRIPOS>MOLECULE
1xpq_FAD_3_INTS_M
  132     0    12     0     0
SMALL
NO_CHARGES


@<TRIPOS>ATOM
      1 NZ         14.8990   42.0170   86.1390 N.4       3 LYC4        0.0000 
      2 NZ         14.3740   42.8020   87.4760 N.4      11 LYL4        0.0000 
      3 NZ         14.3500   40.5770   84.3680 N.4       7 LYP4        0.0000 
      4 N          15.8025   43.6175   87.4670 N.am      2 SEC2        0.0000 
      5 N          14.3740   42.8020   87.4760 N.am     10 SEL2        0.0000 
      6 N          17.2310   44.4330   87.4580 N.am      6 SEP2        0.0000 
      7 N          14.8990   42.0170   86.1390 N.am      2 SEC2        0.0000 
      8 N          15.4240   41.2320   84.8020 N.am      6 SEP2        0.0000 
      9 N          16.6680   43.2350   87.7030 N.am      2 SEC2        0.0000 
     10 N          16.1050   42.0370   87.9480 N.am     10 SEL2        0.0000 
     11 N          15.7645   41.6345   86.3750 N.am      2 SEC2        0.0000 
     12 CA         14.5770   42.1585   91.1545 C.3       4 GLC5        0.0000 
     13 CA         14.8140   40.1510   90.3990 C.3      12 GLL5        0.0000 
     14 CA         14.3400   44.1660   91.9100 C.3       8 GLP5        0.0000 
     15 CA         14.2495   38.0305   90.3635 C.3       4 GLC5        0.0000 
     16 CA         13.6850   35.9100   90.3280 C.3       8 GLP5        0.0000 
     17 CA         15.3865   39.5755   93.1155 C.3       4 GLC5        0.0000 
     18 CA         16.0020   39.9580   91.4050 C.3      12 GLL5        0.0000 
     19 CA         14.7710   39.1930   94.8260 C.3       8 GLP5        0.0000 
     20 CA         17.5705   42.2690   90.3450 C.3       4 GLC5        0.0000 
     21 CA         17.4080   40.3820   90.8890 C.3      12 GLL5        0.0000 
     22 CA         17.7330   44.1560   89.8010 C.3       8 GLP5        0.0000 
     23 O          18.0320   41.4560   92.8465 O.2       1 ALC1        0.0000 
     24 O          17.9220   41.4630   91.6060 O.2       9 ALL1        0.0000 
     25 O          18.1420   41.4490   94.0870 O.2       5 ALP1        0.0000 
     26 O          18.9390   40.8750   92.6575 O.2       1 ALC1        0.0000 
     27 O          19.9560   40.2870   93.7090 O.2       5 ALP1        0.0000 
     28 CA         16.9020   37.9995   89.6285 C.3       4 GLC5        0.0000 
     29 CA         18.2300   39.1210   91.0040 C.3      12 GLL5        0.0000 
     30 CA         15.5740   36.8780   88.2530 C.3       8 GLP5        0.0000 
     31 CA         19.7800   38.0820   90.2990 C.3       4 GLC5        0.0000 
     32 CA         21.3300   37.0430   89.5940 C.3       8 GLP5        0.0000 
     33 O          19.7885   39.7870   92.4640 O.2       1 ALC1        0.0000 
     34 O          19.6210   39.2870   91.2190 O.2       9 ALL1        0.0000 
     35 CA         16.1315   38.7900   93.4670 C.3       4 GLC5        0.0000 
     36 CA         17.4920   38.3870   92.1080 C.3      12 GLL5        0.0000 
     37 CA         20.2150   33.2415   94.7070 C.3       4 GLC5        0.0000 
     38 CA         18.3990   33.9470   94.0650 C.3      12 GLL5        0.0000 
     39 CA         22.0310   32.5360   95.3490 C.3       8 GLP5        0.0000 
     40 CA         19.5260   32.6590   92.6955 C.3       4 GLC5        0.0000 
     41 CA         20.6530   31.3710   91.3260 C.3       8 GLP5        0.0000 
     42 O          18.5865   31.5585   95.0135 O.2       1 ALC1        0.0000 
     43 O          18.6120   32.6640   93.8390 O.2       9 ALL1        0.0000 
     44 O          18.5610   30.4530   96.1880 O.2       5 ALP1        0.0000 
     45 O          18.4915   31.6825   92.7045 O.2       1 ALC1        0.0000 
     46 O          18.3710   30.7010   91.5700 O.2       5 ALP1        0.0000 
     47 N          18.8070   33.5285   96.6245 N.am      2 SEC2        0.0000 
     48 N          18.3940   34.4100   95.3730 N.am     10 SEL2        0.0000 
     49 N          19.2200   32.6470   97.8760 N.am      6 SEP2        0.0000 
     50 CA         16.2880   35.3065   95.9030 C.3       4 GLC5        0.0000 
     51 CA         18.1720   35.7520   95.6310 C.3      12 GLL5        0.0000 
     52 CA         14.4040   34.8610   96.1750 C.3       8 GLP5        0.0000 
     53 CA         18.5280   37.6235   96.4090 C.3       4 GLC5        0.0000 
     54 CA         18.8840   39.4950   97.1870 C.3       8 GLP5        0.0000 
     55 CA         19.8430   36.1350   95.0360 C.3       4 GLC5        0.0000 
     56 CA         21.5140   36.5180   94.4410 C.3       8 GLP5        0.0000 
     57 CA         19.7785   34.7080   96.6000 C.3       4 GLC5        0.0000 
     58 CA         21.3850   33.6640   97.5690 C.3       8 GLP5        0.0000 
     59 CA         17.3730   34.5090   97.3265 C.3       4 GLC5        0.0000 
     60 CA         16.5740   33.2660   99.0220 C.3       8 GLP5        0.0000 
     61 N          19.1690   37.3870   95.3125 N.am      2 SEC2        0.0000 
     62 N          17.9480   36.7120   94.6850 N.am     10 SEL2        0.0000 
     63 N          20.3900   38.0620   95.9400 N.am      6 SEP2        0.0000 
     64 N          10.3610   47.6025   82.2980 N.am      2 SEC2        0.0000 
     65 N          11.4720   47.8910   81.2040 N.am     10 SEL2        0.0000 
     66 N           9.2500   47.3140   83.3920 N.am      6 SEP2        0.0000 
     67 N           9.4410   48.2340   82.4345 N.am      2 SEC2        0.0000 
     68 N           9.6320   49.1540   81.4770 N.am     10 SEL2        0.0000 
     69 O          10.9910   51.4480   80.4875 O.2       1 ALC1        0.0000 
     70 O          11.2710   50.0590   80.2200 O.2       9 ALL1        0.0000 
     71 O          10.7110   52.8370   80.7550 O.2       5 ALP1        0.0000 
     72 N          14.1400   51.5885   79.9910 N.am      2 SEC2        0.0000 
     73 N          12.9300   50.9740   78.9650 N.am     10 SEL2        0.0000 
     74 N          15.3500   52.2030   81.0170 N.am      6 SEP2        0.0000 
     75 N          13.1505   52.3555   79.5060 N.am      2 SEC2        0.0000 
     76 N          13.3710   53.7370   80.0470 N.am      6 SEP2        0.0000 
     77 CA         20.0210   47.8885   77.8210 C.3       4 GLC5        0.0000 
     78 CA         18.8150   46.3720   78.6470 C.3      12 GLL5        0.0000 
     79 CA         21.2270   49.4050   76.9950 C.3       8 GLP5        0.0000 
     80 CA         20.0045   45.3800   79.6895 C.3       4 GLC5        0.0000 
     81 CA         21.1940   44.3880   80.7320 C.3       8 GLP5        0.0000 
     82 CA         17.9780   46.8685   81.1590 C.3       4 GLC5        0.0000 
     83 CA         16.9350   45.3070   80.0430 C.3      12 GLL5        0.0000 
     84 CA         19.0210   48.4300   82.2750 C.3       8 GLP5        0.0000 
     85 CA         16.9080   43.5195   79.0340 C.3       4 GLC5        0.0000 
     86 CA         16.8810   41.7320   78.0250 C.3       8 GLP5        0.0000 
     87 CA         17.1255   42.9340   82.1390 C.3       4 GLC5        0.0000 
     88 CA         17.7810   44.0930   80.3350 C.3      12 GLL5        0.0000 
     89 CA         16.4700   41.7750   83.9430 C.3       8 GLP5        0.0000 
     90 CA         19.4875   44.2405   80.5335 C.3       4 GLC5        0.0000 
     91 CA         17.4190   42.5630   79.8490 C.3       4 GLC5        0.0000 
     92 CA         17.0570   41.0330   79.3630 C.3       8 GLP5        0.0000 
     93 CA         13.2970   44.3785   80.1170 C.3       4 GLC5        0.0000 
     94 CA         12.8690   45.5280   81.7470 C.3      12 GLL5        0.0000 
     95 CA         13.7250   43.2290   78.4870 C.3       8 GLP5        0.0000 
     96 CA         13.6300   47.8355   83.1440 C.3       4 GLC5        0.0000 
     97 CA         12.8330   45.8290   83.2530 C.3      12 GLL5        0.0000 
     98 CA         14.4270   49.8420   83.0350 C.3       8 GLP5        0.0000 
     99 CA         11.3430   42.7815   83.9180 C.3       4 GLC5        0.0000 
    100 CA         12.3600   44.5620   83.9940 C.3      12 GLL5        0.0000 
    101 CA         10.3260   41.0010   83.8420 C.3       8 GLP5        0.0000 
    102 O          10.4920   44.1350   82.2370 O.2       1 ALC1        0.0000 
    103 O          11.0420   44.2040   83.5800 O.2       9 ALL1        0.0000 
    104 O           9.9420   44.0660   80.8940 O.2       5 ALP1        0.0000 
    105 CA         10.6820   43.3015   84.7205 C.3       4 GLC5        0.0000 
    106 CA         12.2310   44.6360   85.5250 C.3      12 GLL5        0.0000 
    107 CA          9.1330   41.9670   83.9160 C.3       8 GLP5        0.0000 
    108 CA         10.8370   46.1240   85.1620 C.3       4 GLC5        0.0000 
    109 CA          9.4430   47.6120   84.7990 C.3       8 GLP5        0.0000 
    110 CA         11.1395   42.1125   84.9655 C.3       4 GLC5        0.0000 
    111 CA         11.9530   43.2240   86.0890 C.3      12 GLL5        0.0000 
    112 N          10.9475   43.8665   90.6975 N.am      2 SEC2        0.0000 
    113 N          11.6710   42.9540   89.8370 N.am     10 SEL2        0.0000 
    114 N          10.2240   44.7790   91.5580 N.am      6 SEP2        0.0000 
    115 CA         15.4910   38.4663   89.5775 C.3       4 GLC5        0.0000 
    116 CA         19.8178   35.9248   93.9600 C.3       4 GLC5        0.0000 
    117 CA         18.1730   34.8990   93.0390 C.3      12 GLL5        0.0000 
    118 CA         16.4082   34.8798   92.7780 C.3       4 GLC5        0.0000 
    119 CA         17.9570   36.2400   93.4060 C.3      12 GLL5        0.0000 
    120 CA         14.6950   34.4280   92.0770 C.3       8 GLP5        0.0000 
    121 CA         15.9848   47.0155   77.4002 C.3       4 GLC5        0.0000 
    122 CA         15.3160   47.5660   79.5550 C.3      12 GLL5        0.0000 
    123 CA         16.0100   46.5070   75.5130 C.3       8 GLP5        0.0000 
    124 CA         17.0682   46.4423   77.2290 C.3       4 GLC5        0.0000 
    125 CA         17.4380   46.3830   79.2430 C.3      12 GLL5        0.0000 
    126 CA         18.4694   47.5411   80.5821 C.3       4 GLC5        0.0000 
    127 CA         16.6030   47.4820   79.0200 C.3      12 GLL5        0.0000 
    128 CA         15.4719   48.5135   80.9394 C.3       4 GLC5        0.0000 
    129 CA         15.5690   50.0200   82.0550 C.3       8 GLP5        0.0000 
    130 CA         11.0197   46.4038   84.2113 C.3       4 GLC5        0.0000 
    131 CA         10.3635   43.9505   86.6830 C.3       4 GLC5        0.0000 
    132 CA          8.6350   43.9710   87.5590 C.3       8 GLP5        0.0000 
@<TRIPOS>BOND
@<TRIPOS>SUBSTRUCTURE
     1 ALC1       23 GROUP        1 X    ALC  0     ROOT ALC X 1
     2 SEC2        4 GROUP        1 X    SEC  0     **** SEC X 2
     3 LYC4        1 GROUP        1 X    LYC  0     **** LYC X 4
     4 GLC5       12 GROUP        1 X    GLC  0     **** GLC X 6
     5 ALP1       25 GROUP        1 Y    ALP  0     ROOT ALP Y 8
     6 SEP2        6 GROUP        1 Y    SEP  0     **** SEP Y 9
     7 LYP4        3 GROUP        1 Y    LYP  0     **** LYP Y 11
     8 GLP5       14 GROUP        1 Y    GLP  0     **** GLP Y 13
     9 ALL1       24 GROUP        1 Z    ALL  0     ROOT ALL Z 15
    10 SEL2        5 GROUP        1 Z    SEL  0     **** SEL Z 16
    11 LYL4        2 GROUP        1 Z    LYL  0     **** LYL Z 18
    12 GLL5       13 GROUP        1 Z    GLL  0     **** GLL Z 20
@<TRIPOS>SET

