#    Name: 1xpq_FAD_3_ligand
#    Modification time : Tue Mar 25 10:31:07 2014

@<TRIPOS>MOLECULE
1xpq_FAD_3_ligand
   84    89     1     0     0
SMALL
NO_CHARGES


@<TRIPOS>ATOM
      1 PA         14.9050   42.3390   88.7430 P.3       1 FAD801      0.0000 
      2 O1A        14.3740   42.8020   87.4760 O.co2     1 FAD801      0.0000 
      3 O2A        16.1050   42.0370   87.9480 O.co2     1 FAD801      0.0000 
      4 O5B        15.3800   40.8880   89.2970 O.3       1 FAD801      0.0000 
      5 C5B        14.8140   40.1510   90.3990 C.3       1 FAD801      0.0000 
      6 C4B        16.0020   39.9580   91.4050 C.3       1 FAD801      0.0000 
      7 O4B        16.1500   38.5740   91.7090 O.3       1 FAD801      0.0000 
      8 C3B        17.4080   40.3820   90.8890 C.3       1 FAD801      0.0000 
      9 O3B        17.9220   41.4630   91.6060 O.3       1 FAD801      0.0000 
     10 C2B        18.2300   39.1210   91.0040 C.3       1 FAD801      0.0000 
     11 O2B        19.6210   39.2870   91.2190 O.3       1 FAD801      0.0000 
     12 C1B        17.4920   38.3870   92.1080 C.3       1 FAD801      0.0000 
     13 N9A        17.7650   36.9270   92.2350 N.pl3     1 FAD801      0.0000 
     14 C8A        17.8750   35.9940   91.2170 C.2       1 FAD801      0.0000 
     15 N7A        18.1190   34.7660   91.6770 N.2       1 FAD801      0.0000 
     16 C5A        18.1730   34.8990   93.0390 C.ar      1 FAD801      0.0000 
     17 C6A        18.3990   33.9470   94.0650 C.ar      1 FAD801      0.0000 
     18 N6A        18.6120   32.6640   93.8390 N.pl3     1 FAD801      0.0000 
     19 N1A        18.3940   34.4100   95.3730 N.ar      1 FAD801      0.0000 
     20 C2A        18.1720   35.7520   95.6310 C.ar      1 FAD801      0.0000 
     21 N3A        17.9480   36.7120   94.6850 N.ar      1 FAD801      0.0000 
     22 C4A        17.9570   36.2400   93.4060 C.ar      1 FAD801      0.0000 
     23 N1         11.4720   47.8910   81.2040 N.2       1 FAD801      0.0000 
     24 C2         10.7280   49.0310   80.9950 C.2       1 FAD801      0.0000 
     25 O2          9.6320   49.1540   81.4770 O.2       1 FAD801      0.0000 
     26 N3         11.2710   50.0590   80.2200 N.am      1 FAD801      0.0000 
     27 C4         12.5110   50.0100   79.6390 C.2       1 FAD801      0.0000 
     28 O4         12.9300   50.9740   78.9650 O.2       1 FAD801      0.0000 
     29 C4X        13.2790   48.8330   79.8570 C.2       1 FAD801      0.0000 
     30 N5         14.5480   48.6990   79.3180 N.2       1 FAD801      0.0000 
     31 C5X        15.3160   47.5660   79.5550 C.ar      1 FAD801      0.0000 
     32 C6         16.6030   47.4820   79.0200 C.ar      1 FAD801      0.0000 
     33 C7         17.4380   46.3830   79.2430 C.ar      1 FAD801      0.0000 
     34 C7M        18.8150   46.3720   78.6470 C.3       1 FAD801      0.0000 
     35 C8         16.9350   45.3070   80.0430 C.ar      1 FAD801      0.0000 
     36 C8M        17.7810   44.0930   80.3350 C.3       1 FAD801      0.0000 
     37 C9         15.6190   45.3680   80.5900 C.ar      1 FAD801      0.0000 
     38 C9A        14.7900   46.4900   80.3600 C.ar      1 FAD801      0.0000 
     39 N10        13.4780   46.6150   80.9020 N.pl3     1 FAD801      0.0000 
     40 C10        12.7190   47.7850   80.6530 C.2       1 FAD801      0.0000 
     41 C1'        12.8690   45.5280   81.7470 C.3       1 FAD801      0.0000 
     42 C2'        12.8330   45.8290   83.2530 C.3       1 FAD801      0.0000 
     43 O2'        14.1290   46.1840   83.6500 O.3       1 FAD801      0.0000 
     44 C3'        12.3600   44.5620   83.9940 C.3       1 FAD801      0.0000 
     45 O3'        11.0420   44.2040   83.5800 O.3       1 FAD801      0.0000 
     46 C4'        12.2310   44.6360   85.5250 C.3       1 FAD801      0.0000 
     47 O4'        13.4150   45.1790   86.1190 O.3       1 FAD801      0.0000 
     48 C5'        11.9530   43.2240   86.0890 C.3       1 FAD801      0.0000 
     49 O5'        11.8020   43.3720   87.4980 O.3       1 FAD801      0.0000 
     50 P          11.9560   42.2330   88.5890 P.3       1 FAD801      0.0000 
     51 O1P        11.6710   42.9540   89.8370 O.co2     1 FAD801      0.0000 
     52 O2P        11.0850   41.0550   88.3190 O.co2     1 FAD801      0.0000 
     53 O3P        13.4500   41.6640   88.5750 O.3       1 FAD801      0.0000 
     54 H          14.4773   39.1760   90.1114 H         1 FAD801      0.0000 
     55 H          14.0487   40.6989   90.9097 H         1 FAD801      0.0000 
     56 H          15.7967   40.5156   92.3015 H         1 FAD801      0.0000 
     57 H          17.2775   40.5879   89.8289 H         1 FAD801      0.0000 
     58 H          18.0142   38.5417   90.0821 H         1 FAD801      0.0000 
     59 H          17.6691   38.9001   93.0308 H         1 FAD801      0.0000 
     60 H          17.7790   36.2384   90.2646 H         1 FAD801      0.0000 
     61 H          18.7124   32.0854   94.6484 H         1 FAD801      0.0000 
     62 H          18.6536   32.3873   92.8789 H         1 FAD801      0.0000 
     63 H          18.1777   36.0551   96.6580 H         1 FAD801      0.0000 
     64 H          10.6785   50.9259   80.0792 H         1 FAD801      0.0000 
     65 H          16.9555   48.2684   78.4317 H         1 FAD801      0.0000 
     66 H          15.2753   44.5863   81.1558 H         1 FAD801      0.0000 
     67 H          13.4287   44.5848   81.5948 H         1 FAD801      0.0000 
     68 H          11.8333   45.3327   81.4072 H         1 FAD801      0.0000 
     69 H          12.1182   46.6041   83.4162 H         1 FAD801      0.0000 
     70 H          13.0351   43.7384   83.7644 H         1 FAD801      0.0000 
     71 H          11.3622   45.2476   85.7524 H         1 FAD801      0.0000 
     72 H          12.7946   42.5965   85.8269 H         1 FAD801      0.0000 
     73 H          11.0544   42.8538   85.6134 H         1 FAD801      0.0000 
     74 H          19.3671   47.1392   78.9735 H         1 FAD801      0.0000 
     75 H          19.3120   45.5349   78.8757 H         1 FAD801      0.0000 
     76 H          18.7883   46.4337   77.6493 H         1 FAD801      0.0000 
     77 H          18.0507   43.6181   79.4973 H         1 FAD801      0.0000 
     78 H          18.6222   44.3342   80.8190 H         1 FAD801      0.0000 
     79 H          17.2951   43.4299   80.9044 H         1 FAD801      0.0000 
     80 H          18.3171   41.0611   92.4321 H         1 FAD801      0.0000 
     81 H          19.6974   39.6560   92.1453 H         1 FAD801      0.0000 
     82 H          14.1977   45.8886   84.6029 H         1 FAD801      0.0000 
     83 H          10.8682   44.7560   82.7645 H         1 FAD801      0.0000 
     84 H          13.6637   44.5311   86.8391 H         1 FAD801      0.0000 
@<TRIPOS>BOND
     1    2    1 ar   
     2    3    1 ar   
     3    4    1 1    
     4   53    1 1    
     5    5    4 1    
     6    6    5 1    
     7   54    5 1    
     8   55    5 1    
     9    7    6 1    
    10    8    6 1    
    11   56    6 1    
    12   12    7 1    
    13    9    8 1    
    14   10    8 1    
    15   57    8 1    
    16   80    9 1    
    17   11   10 1    
    18   12   10 1    
    19   58   10 1    
    20   81   11 1    
    21   13   12 1    
    22   59   12 1    
    23   14   13 1    
    24   22   13 1    
    25   15   14 2    
    26   60   14 1    
    27   16   15 1    
    28   17   16 ar   
    29   22   16 ar   
    30   18   17 1    
    31   19   17 ar   
    32   61   18 1    
    33   62   18 1    
    34   20   19 ar   
    35   21   20 ar   
    36   63   20 1    
    37   22   21 ar   
    38   24   23 1    
    39   40   23 2    
    40   25   24 2    
    41   26   24 am   
    42   27   26 am   
    43   64   26 1    
    44   28   27 2    
    45   29   27 1    
    46   30   29 2    
    47   40   29 1    
    48   31   30 1    
    49   32   31 ar   
    50   38   31 ar   
    51   33   32 ar   
    52   65   32 1    
    53   34   33 1    
    54   35   33 ar   
    55   74   34 1    
    56   75   34 1    
    57   76   34 1    
    58   36   35 1    
    59   37   35 ar   
    60   77   36 1    
    61   78   36 1    
    62   79   36 1    
    63   38   37 ar   
    64   66   37 1    
    65   39   38 1    
    66   40   39 1    
    67   41   39 1    
    68   42   41 1    
    69   67   41 1    
    70   68   41 1    
    71   43   42 1    
    72   44   42 1    
    73   69   42 1    
    74   82   43 1    
    75   45   44 1    
    76   46   44 1    
    77   70   44 1    
    78   83   45 1    
    79   47   46 1    
    80   48   46 1    
    81   71   46 1    
    82   84   47 1    
    83   49   48 1    
    84   72   48 1    
    85   73   48 1    
    86   50   49 1    
    87   51   50 ar   
    88   52   50 ar   
    89   53   50 1    
@<TRIPOS>SUBSTRUCTURE
     1 FAD801      1 GROUP   
@<TRIPOS>SET

