#    Name: 4kew_1C6_1_INTS_M
#    Modification time : Tue Mar 25 07:46:18 2014

@<TRIPOS>MOLECULE
4kew_1C6_1_INTS_M
   54     0     3     0     0
SMALL
NO_CHARGES


@<TRIPOS>ATOM
      1 CA         10.6915   20.0205    8.7565 C.3       1 GLC5        0.0000 
      2 CA         11.7430   21.6320    8.5020 C.3       3 GLL5        0.0000 
      3 CA          9.6400   18.4090    9.0110 C.3       2 GLP5        0.0000 
      4 CA          9.9825   21.3165    8.3315 C.3       1 GLC5        0.0000 
      5 CA          8.2220   21.0010    8.1610 C.3       2 GLP5        0.0000 
      6 CA         12.3305   19.1290    9.5705 C.3       1 GLC5        0.0000 
      7 CA         13.6600   20.6010   10.0220 C.3       3 GLL5        0.0000 
      8 CA         11.0010   17.6570    9.1190 C.3       2 GLP5        0.0000 
      9 CA         13.7855   24.1345   12.1490 C.3       1 GLC5        0.0000 
     10 CA         14.0950   22.0890   12.1310 C.3       3 GLL5        0.0000 
     11 CA         13.4760   26.1800   12.1670 C.3       2 GLP5        0.0000 
     12 CA         12.3405   20.0745   12.7390 C.3       1 GLC5        0.0000 
     13 CA         14.2940   19.4660   12.2320 C.3       3 GLL5        0.0000 
     14 CA         10.3870   20.6830   13.2460 C.3       2 GLP5        0.0000 
     15 CA         14.4330   20.0795   16.3040 C.3       1 GLC5        0.0000 
     16 CA         13.9240   20.2250   14.5140 C.3       3 GLL5        0.0000 
     17 CA         14.9420   19.9340   18.0940 C.3       2 GLP5        0.0000 
     18 CA         12.1555   20.4540   13.8800 C.3       1 GLC5        0.0000 
     19 CA         15.7495   17.1570   11.4785 C.3       1 GLC5        0.0000 
     20 CA         14.5040   16.8600   12.2030 C.3       3 GLL5        0.0000 
     21 CA         16.9950   17.4540   10.7540 C.3       2 GLP5        0.0000 
     22 CA         15.5500   16.3075   13.6130 C.3       1 GLC5        0.0000 
     23 CA         16.5960   15.7550   15.0230 C.3       2 GLP5        0.0000 
     24 CA         12.3550   16.7870   12.6270 C.3       1 GLC5        0.0000 
     25 CA         10.2060   16.7140   13.0510 C.3       2 GLP5        0.0000 
     26 CA         11.2945   23.7990    5.2120 C.3       1 GLC5        0.0000 
     27 CA         11.9410   25.0590    6.7080 C.3       3 GLL5        0.0000 
     28 CA         10.6480   22.5390    3.7160 C.3       2 GLP5        0.0000 
     29 CA         10.2050   25.1515    9.4355 C.3       1 GLC5        0.0000 
     30 CA         10.6590   25.1100    7.4390 C.3       3 GLL5        0.0000 
     31 CA          9.7510   25.1930   11.4320 C.3       2 GLP5        0.0000 
     32 CA         12.7520   25.4985    4.0255 C.3       1 GLC5        0.0000 
     33 CA         12.2990   26.1900    5.9430 C.3       3 GLL5        0.0000 
     34 CA         13.2050   24.8070    2.1080 C.3       2 GLP5        0.0000 
     35 CA          9.5055   30.9230    4.1830 C.3       1 GLC5        0.0000 
     36 CA         10.8060   29.3310    4.5170 C.3       3 GLL5        0.0000 
     37 CA          8.2050   32.5150    3.8490 C.3       2 GLP5        0.0000 
     38 CA          9.1160   28.9960    3.4265 C.3       1 GLC5        0.0000 
     39 CA          7.4260   28.6610    2.3360 C.3       2 GLP5        0.0000 
     40 CA         11.2415   29.9445    6.3135 C.3       1 GLC5        0.0000 
     41 CA         11.6770   30.5580    8.1100 C.3       2 GLP5        0.0000 
     42 CA         12.2210   21.0467   12.5237 C.3       1 GLC5        0.0000 
     43 CA         12.5230   17.9243    9.9617 C.3       1 GLC5        0.0000 
     44 CA         14.2100   18.1800   11.4890 C.3       3 GLL5        0.0000 
     45 CA         13.3768   26.8566    7.1596 C.3       1 GLC5        0.0000 
     46 CA         14.9680   27.2490    8.2220 C.3       2 GLP5        0.0000 
     47 CA         11.2655   28.9360    7.1608 C.3       1 GLC5        0.0000 
     48 CA         11.4510   27.3040    5.8690 C.3       3 GLL5        0.0000 
     49 CA          8.4262   26.0070    6.7106 C.3       1 GLC5        0.0000 
     50 CA         10.2570   27.3240    6.5540 C.3       3 GLL5        0.0000 
     51 CA          6.5920   25.5170    6.4560 C.3       2 GLP5        0.0000 
     52 CA         10.9020   27.0465    8.8260 C.3       1 GLC5        0.0000 
     53 CA          9.8690   26.2300    7.3140 C.3       3 GLL5        0.0000 
     54 CA         11.7410   27.3160   10.7180 C.3       2 GLP5        0.0000 
@<TRIPOS>BOND
@<TRIPOS>SUBSTRUCTURE
     1 GLC5        1 GROUP        1 X    GLC  0     ROOT GLC X 6
     2 GLP5        3 GROUP        1 Y    GLP  0     ROOT GLP Y 13
     3 GLL5        2 GROUP        1 Z    GLL  0     ROOT GLL Z 20
@<TRIPOS>SET

