#    Name: 4kew_1C6_1_ligand
#    Modification time : Tue Mar 25 07:46:18 2014

@<TRIPOS>MOLECULE
4kew_1C6_1_ligand
   42    44     1     0     0
SMALL
NO_CHARGES


@<TRIPOS>ATOM
      1 S          11.7430   21.6320    8.5020 S.3       1 1C6502      0.0000 
      2 CB         13.3390   21.7690    9.1070 C.3       1 1C6502      0.0000 
      3 CG         13.6600   20.6010   10.0220 C.ar      1 1C6502      0.0000 
      4 CD1        14.0150   20.7320   11.4720 C.ar      1 1C6502      0.0000 
      5 C3         14.0950   22.0890   12.1310 C.3       1 1C6502      0.0000 
      6 CE1        14.2940   19.4660   12.2320 C.ar      1 1C6502      0.0000 
      7 O2         14.6300   19.4020   13.5630 O.3       1 1C6502      0.0000 
      8 C2         13.9240   20.2250   14.5140 C.3       1 1C6502      0.0000 
      9 CZ         14.2100   18.1800   11.4890 C.ar      1 1C6502      0.0000 
     10 C1         14.5040   16.8600   12.2030 C.3       1 1C6502      0.0000 
     11 CE2        13.8800   18.2030   10.1200 C.ar      1 1C6502      0.0000 
     12 N1         13.6480   19.3650    9.4540 N.ar      1 1C6502      0.0000 
     13 CF1        11.5730   23.1940    7.8320 C.2       1 1C6502      0.0000 
     14 NV         12.4670   23.8470    7.0270 N.pl3     1 1C6502      0.0000 
     15 CX2        11.9410   25.0590    6.7080 C.ar      1 1C6502      0.0000 
     16 CS2        10.6590   25.1100    7.4390 C.ar      1 1C6502      0.0000 
     17 NE1        10.5070   23.9220    8.1180 N.2       1 1C6502      0.0000 
     18 CE3        12.2990   26.1900    5.9430 C.ar      1 1C6502      0.0000 
     19 CZ3        11.4510   27.3040    5.8690 C.ar      1 1C6502      0.0000 
     20 O3         11.7950   28.4460    5.1240 O.3       1 1C6502      0.0000 
     21 C4         10.8060   29.3310    4.5170 C.3       1 1C6502      0.0000 
     22 CH2        10.2570   27.3240    6.5540 C.ar      1 1C6502      0.0000 
     23 CZ2         9.8690   26.2300    7.3140 C.ar      1 1C6502      0.0000 
     24 H          13.3548   22.7078    9.6223 H         1 1C6502      0.0000 
     25 H          13.9600   21.7869    8.2345 H         1 1C6502      0.0000 
     26 H          13.8167   17.2879    9.6197 H         1 1C6502      0.0000 
     27 H          13.3148   23.5045    6.7413 H         1 1C6502      0.0000 
     28 H          13.1935   26.1928    5.4354 H         1 1C6502      0.0000 
     29 H           9.6445   28.1541    6.5051 H         1 1C6502      0.0000 
     30 H           8.9466   26.2621    7.8054 H         1 1C6502      0.0000 
     31 H          14.3441   22.0187   13.0969 H         1 1C6502      0.0000 
     32 H          14.7780   22.6744   11.6941 H         1 1C6502      0.0000 
     33 H          13.2220   22.5748   12.0880 H         1 1C6502      0.0000 
     34 H          14.2576   20.0848   15.4462 H         1 1C6502      0.0000 
     35 H          14.0253   21.1987   14.3098 H         1 1C6502      0.0000 
     36 H          12.9438   20.0273   14.5206 H         1 1C6502      0.0000 
     37 H          15.4346   16.8345   12.5680 H         1 1C6502      0.0000 
     38 H          13.8832   16.7074   12.9720 H         1 1C6502      0.0000 
     39 H          14.4083   16.0764   11.5892 H         1 1C6502      0.0000 
     40 H          11.2367   30.0910    4.0304 H         1 1C6502      0.0000 
     41 H          10.2313   28.8481    3.8563 H         1 1C6502      0.0000 
     42 H          10.1949   29.7296    5.2009 H         1 1C6502      0.0000 
@<TRIPOS>BOND
     1    2    1 1    
     2   13    1 1    
     3    3    2 1    
     4   24    2 1    
     5   25    2 1    
     6    4    3 ar   
     7   12    3 ar   
     8    5    4 1    
     9    6    4 ar   
    10   31    5 1    
    11   32    5 1    
    12   33    5 1    
    13    7    6 1    
    14    9    6 ar   
    15    8    7 1    
    16   34    8 1    
    17   35    8 1    
    18   36    8 1    
    19   10    9 1    
    20   11    9 ar   
    21   37   10 1    
    22   38   10 1    
    23   39   10 1    
    24   12   11 ar   
    25   26   11 1    
    26   14   13 1    
    27   17   13 2    
    28   15   14 1    
    29   27   14 1    
    30   16   15 ar   
    31   18   15 ar   
    32   17   16 1    
    33   23   16 ar   
    34   19   18 ar   
    35   28   18 1    
    36   20   19 1    
    37   22   19 ar   
    38   21   20 1    
    39   40   21 1    
    40   41   21 1    
    41   42   21 1    
    42   23   22 ar   
    43   29   22 1    
    44   30   23 1    
@<TRIPOS>SUBSTRUCTURE
     1 1C6502      1 GROUP   
@<TRIPOS>SET

