#    Name: 1msm_JE2_1_INTS_M
#    Modification time : Mon Apr  7 14:45:40 2014

@<TRIPOS>MOLECULE
1msm_JE2_1_INTS_M
  114     0     9     0     0
SMALL
NO_CHARGES


@<TRIPOS>ATOM
      1 CA         11.6580   20.0050   20.3950 C.3       3 GLC5        0.0000 
      2 CA         12.0660   17.9180   20.1730 C.3       9 GLL5        0.0000 
      3 CA         11.2500   22.0920   20.6170 C.3       6 GLP5        0.0000 
      4 CA         11.0205   17.3775   22.0530 C.3       3 GLC5        0.0000 
      5 CA          9.9750   16.8370   23.9330 C.3       6 GLP5        0.0000 
      6 CA         16.1200   18.7005   20.6490 C.3       3 GLC5        0.0000 
      7 CA         14.1770   19.0330   21.0450 C.3       9 GLL5        0.0000 
      8 CA         18.0630   18.3680   20.2530 C.3       6 GLP5        0.0000 
      9 CA         14.4455   18.1030   22.7005 C.3       3 GLC5        0.0000 
     10 CA         14.7140   17.1730   24.3560 C.3       6 GLP5        0.0000 
     11 CA         14.6015   16.9200   21.1780 C.3       3 GLC5        0.0000 
     12 CA         15.0260   14.8070   21.3110 C.3       6 GLP5        0.0000 
     13 CA         15.6790   20.0675   22.0860 C.3       3 GLC5        0.0000 
     14 CA         17.1810   21.1020   23.1270 C.3       6 GLP5        0.0000 
     15 N          10.6680   18.0880   22.1030 N.am      2 SEC2        0.0000 
     16 N          11.9660   17.2650   21.3720 N.am      8 SEL2        0.0000 
     17 N           9.3700   18.9110   22.8340 N.am      5 SEP2        0.0000 
     18 O          10.8305   16.6025   21.5580 O.2       1 ALC1        0.0000 
     19 O          11.9660   17.2650   21.3720 O.2       7 ALL1        0.0000 
     20 O           9.6950   15.9400   21.7440 O.2       4 ALP1        0.0000 
     21 O          12.5535   22.2975   17.9405 O.2       1 ALC1        0.0000 
     22 O          13.9020   21.6620   17.8960 O.2       7 ALL1        0.0000 
     23 O          11.2050   22.9330   17.9850 O.2       4 ALP1        0.0000 
     24 CA         13.0300   24.4675   18.5765 C.3       3 GLC5        0.0000 
     25 CA         15.0240   23.6720   18.6270 C.3       9 GLL5        0.0000 
     26 CA         11.0360   25.2630   18.5260 C.3       6 GLP5        0.0000 
     27 CA         13.6555   22.8225   20.1805 C.3       3 GLC5        0.0000 
     28 CA         12.2870   21.9730   21.7340 C.3       6 GLP5        0.0000 
     29 CA         12.6370   24.3030   17.3395 C.3       3 GLC5        0.0000 
     30 CA         14.2380   23.3430   16.1530 C.3       9 GLL5        0.0000 
     31 CA         13.8140   19.5885   11.3370 C.3       3 GLC5        0.0000 
     32 CA         13.4930   20.3240   13.1030 C.3       9 GLL5        0.0000 
     33 CA         14.1350   18.8530    9.5710 C.3       6 GLP5        0.0000 
     34 N          13.7210   25.2075   19.7575 N.am      2 SEC2        0.0000 
     35 N          13.9550   24.5840   18.6560 N.am      8 SEL2        0.0000 
     36 N          13.4870   25.8310   20.8590 N.am      5 SEP2        0.0000 
     37 O          14.2175   25.6155   17.6385 O.2       1 ALC1        0.0000 
     38 O          13.9550   24.5840   18.6560 O.2       7 ALL1        0.0000 
     39 O          14.4800   26.6470   16.6210 O.2       4 ALP1        0.0000 
     40 CA         11.4030   23.4270   14.8405 C.3       3 GLC5        0.0000 
     41 CA         12.6680   21.8800   14.8060 C.3       9 GLL5        0.0000 
     42 CA         10.1380   24.9740   14.8750 C.3       6 GLP5        0.0000 
     43 CA         15.4840   20.3940   11.4770 C.3       3 GLC5        0.0000 
     44 CA         14.8240   20.7370   13.3770 C.3       9 GLL5        0.0000 
     45 CA         16.1440   20.0510    9.5770 C.3       6 GLP5        0.0000 
     46 CA         18.7075   26.0435   22.5285 C.3       3 GLC5        0.0000 
     47 CA         19.3770   24.9630   21.3740 C.3       9 GLL5        0.0000 
     48 CA         18.0380   27.1240   23.6830 C.3       6 GLP5        0.0000 
     49 CA         19.9090   24.4665   23.2870 C.3       3 GLC5        0.0000 
     50 CA         20.4410   23.9700   25.2000 C.3       6 GLP5        0.0000 
     51 CA         21.5530   22.5135   18.8215 C.3       3 GLC5        0.0000 
     52 CA         21.1890   24.1680   19.7940 C.3       9 GLL5        0.0000 
     53 CA         21.9170   20.8590   17.8490 C.3       6 GLP5        0.0000 
     54 CA         22.1400   22.8200   21.0145 C.3       3 GLC5        0.0000 
     55 CA         23.0910   21.4720   22.2350 C.3       6 GLP5        0.0000 
     56 CA         20.5505   21.6545   19.1045 C.3       3 GLC5        0.0000 
     57 CA         19.1840   22.4500   20.3600 C.3       9 GLL5        0.0000 
     58 CA         18.6235   20.4090   20.3065 C.3       3 GLC5        0.0000 
     59 CA         20.8375   21.4680   20.8260 C.3       3 GLC5        0.0000 
     60 CA         22.4910   20.4860   21.2920 C.3       6 GLP5        0.0000 
     61 O          20.4210   26.5475   17.6880 O.2       1 ALC1        0.0000 
     62 O          20.2120   25.2820   17.0280 O.2       7 ALL1        0.0000 
     63 O          20.6300   27.8130   18.3480 O.2       4 ALP1        0.0000 
     64 CA         20.6645   23.1055   15.1325 C.3       3 GLC5        0.0000 
     65 CA         20.8690   25.1620   15.7380 C.3       9 GLL5        0.0000 
     66 CA         20.4600   21.0490   14.5270 C.3       6 GLP5        0.0000 
     67 CA         22.9290   27.7150   12.8485 C.3       3 GLC5        0.0000 
     68 CA         21.5650   28.4450   13.9180 C.3       9 GLL5        0.0000 
     69 CA         24.2930   26.9850   11.7790 C.3       6 GLP5        0.0000 
     70 CA         22.7935   26.4560   13.5255 C.3       3 GLC5        0.0000 
     71 CA         21.7170   27.2840   14.7060 C.3       9 GLL5        0.0000 
     72 CA         23.8700   25.6280   12.3450 C.3       6 GLP5        0.0000 
     73 CA         16.4500   25.4055   13.5805 C.3       3 GLC5        0.0000 
     74 CA         18.1610   25.7500   14.3960 C.3       9 GLL5        0.0000 
     75 CA         14.7390   25.0610   12.7650 C.3       6 GLP5        0.0000 
     76 CA         18.3370   24.2780   13.0385 C.3       3 GLC5        0.0000 
     77 CA         18.5130   22.8060   11.6810 C.3       6 GLP5        0.0000 
     78 CA          9.3748   18.4110   19.3875 C.3       3 GLC5        0.0000 
     79 CA         11.1600   18.3330   17.9470 C.3       9 GLL5        0.0000 
     80 CA          7.6260   18.8150   20.2080 C.3       6 GLP5        0.0000 
     81 CA         12.4088   15.8963   19.6795 C.3       3 GLC5        0.0000 
     82 CA         11.0870   17.6810   19.1870 C.3       9 GLL5        0.0000 
     83 CA         13.2410   13.9930   19.6790 C.3       6 GLP5        0.0000 
     84 CA         11.9863   20.7240   19.3978 C.3       3 GLC5        0.0000 
     85 CA         13.2250   19.4840   18.6690 C.3       9 GLL5        0.0000 
     86 CA         12.9750   20.4490   21.1140 C.3       3 GLC5        0.0000 
     87 CA         13.1490   18.8170   19.9430 C.3       9 GLL5        0.0000 
     88 CA         11.8357   20.9335   12.0640 C.3       3 GLC5        0.0000 
     89 CA         12.4140   20.8960   13.8190 C.3       9 GLL5        0.0000 
     90 CA         10.7180   21.2570   10.6670 C.3       6 GLP5        0.0000 
     91 CA         14.8435   23.1445   13.3178 C.3       3 GLC5        0.0000 
     92 CA         15.6875   19.5880   14.7622 C.3       3 GLC5        0.0000 
     93 CA         15.0720   21.7190   14.3640 C.3       9 GLL5        0.0000 
     94 CA         16.4270   17.9480   15.6540 C.3       6 GLP5        0.0000 
     95 CA         16.6930   20.6910   13.5868 C.3       3 GLC5        0.0000 
     96 CA         18.4380   20.1540   13.3030 C.3       6 GLP5        0.0000 
     97 CA         14.0660   23.7058   13.9887 C.3       3 GLC5        0.0000 
     98 CA         17.7563   21.8897   21.6720 C.3       3 GLC5        0.0000 
     99 CA         17.4790   22.9050   20.0740 C.3       9 GLL5        0.0000 
    100 CA         20.8637   26.0355   12.7632 C.3       3 GLC5        0.0000 
    101 CA         20.6350   26.3790   14.8860 C.3       9 GLL5        0.0000 
    102 CA         21.7260   25.5530   10.9550 C.3       6 GLP5        0.0000 
    103 CA         20.7530   26.9125   12.1698 C.3       3 GLC5        0.0000 
    104 CA         19.2350   27.8290   13.4680 C.3       9 GLL5        0.0000 
    105 CA         21.0020   30.4155   13.3308 C.3       3 GLC5        0.0000 
    106 CA         20.3250   28.7150   13.3010 C.3       9 GLL5        0.0000 
    107 CA         21.0590   32.2510   13.0520 C.3       6 GLP5        0.0000 
    108 CA         21.7020   29.2150   11.8878 C.3       3 GLC5        0.0000 
    109 CA         22.4590   29.8500   10.1660 C.3       6 GLP5        0.0000 
    110 CA         17.7806   27.7043   15.1371 C.3       3 GLC5        0.0000 
    111 CA         19.3680   26.6570   14.2570 C.3       9 GLL5        0.0000 
    112 CA         16.8300   28.9120   16.1450 C.3       6 GLP5        0.0000 
    113 CA         18.1341   26.6433   12.1846 C.3       3 GLC5        0.0000 
    114 CA         17.5370   26.7900   10.2400 C.3       6 GLP5        0.0000 
@<TRIPOS>BOND
@<TRIPOS>SUBSTRUCTURE
     1 ALC1       18 GROUP        1 X    ALC  0     ROOT ALC X 1
     2 SEC2       15 GROUP        1 X    SEC  0     **** SEC X 2
     3 GLC5        1 GROUP        1 X    GLC  0     **** GLC X 6
     4 ALP1       20 GROUP        1 Y    ALP  0     ROOT ALP Y 8
     5 SEP2       17 GROUP        1 Y    SEP  0     **** SEP Y 9
     6 GLP5        3 GROUP        1 Y    GLP  0     **** GLP Y 13
     7 ALL1       19 GROUP        1 Z    ALL  0     ROOT ALL Z 15
     8 SEL2       16 GROUP        1 Z    SEL  0     **** SEL Z 16
     9 GLL5        2 GROUP        1 Z    GLL  0     **** GLL Z 20
@<TRIPOS>SET

