#    Name: 1msm_JE2_1_ligand
#    Modification time : Mon Apr  7 14:45:41 2014

@<TRIPOS>MOLECULE
1msm_JE2_1_ligand
   78    81     1     0     0
SMALL
NO_CHARGES


@<TRIPOS>ATOM
      1 C3         11.0870   17.6810   19.1870 C.ar      1 JE21001     0.0000 
      2 C4         11.1600   18.3330   17.9470 C.ar      1 JE21001     0.0000 
      3 C5         12.2200   19.2280   17.6880 C.ar      1 JE21001     0.0000 
      4 C6         13.2250   19.4840   18.6690 C.ar      1 JE21001     0.0000 
      5 C7         13.1490   18.8170   19.9430 C.ar      1 JE21001     0.0000 
      6 C1         12.0660   17.9180   20.1730 C.ar      1 JE21001     0.0000 
      7 C8         14.1770   19.0330   21.0450 C.3       1 JE21001     0.0000 
      8 C9         14.3140   20.4260   18.3250 C.2       1 JE21001     0.0000 
      9 O2         11.9660   17.2650   21.3720 O.3       1 JE21001     0.0000 
     10 O10        15.5100   20.1290   18.4130 O.2       1 JE21001     0.0000 
     11 C22        16.3500   24.4590   18.5220 C.2       1 JE21001     0.0000 
     12 N11        13.9020   21.6620   17.8960 N.am      1 JE21001     0.0000 
     13 O23        16.3110   25.6330   18.1470 O.2       1 JE21001     0.0000 
     14 C20        15.0240   23.6720   18.6270 C.3       1 JE21001     0.0000 
     15 C14        13.9980   22.2990   15.0850 C.ar      1 JE21001     0.0000 
     16 C13        14.2380   23.3430   16.1530 C.3       1 JE21001     0.0000 
     17 C17        13.4930   20.3240   13.1030 C.ar      1 JE21001     0.0000 
     18 C12        14.8130   22.7050   17.4490 C.3       1 JE21001     0.0000 
     19 O21        13.9550   24.5840   18.6560 O.3       1 JE21001     0.0000 
     20 C15        15.0720   21.7190   14.3640 C.ar      1 JE21001     0.0000 
     21 C19        12.6680   21.8800   14.8060 C.ar      1 JE21001     0.0000 
     22 C16        14.8240   20.7370   13.3770 C.ar      1 JE21001     0.0000 
     23 C18        12.4140   20.8960   13.8190 C.ar      1 JE21001     0.0000 
     24 C31        19.4050   24.2990   17.4800 C.2       1 JE21001     0.0000 
     25 N24        17.5050   23.8090   18.8830 N.am      1 JE21001     0.0000 
     26 O32        19.1540   23.2590   16.8780 O.2       1 JE21001     0.0000 
     27 C30        18.7820   24.5770   18.8680 C.3       1 JE21001     0.0000 
     28 C27        19.6690   24.1440   20.0950 C.3       1 JE21001     0.0000 
     29 C25        17.4790   22.9050   20.0740 C.3       1 JE21001     0.0000 
     30 C28        19.3770   24.9630   21.3740 C.3       1 JE21001     0.0000 
     31 C29        21.1890   24.1680   19.7940 C.3       1 JE21001     0.0000 
     32 S26        19.1840   22.4500   20.3600 S.3       1 JE21001     0.0000 
     33 N33        20.2120   25.2820   17.0280 N.am      1 JE21001     0.0000 
     34 C34        20.8690   25.1620   15.7380 C.3       1 JE21001     0.0000 
     35 C35        20.6350   26.3790   14.8860 C.ar      1 JE21001     0.0000 
     36 C36        19.3680   26.6570   14.2570 C.ar      1 JE21001     0.0000 
     37 C37        19.2350   27.8290   13.4680 C.ar      1 JE21001     0.0000 
     38 C38        20.3250   28.7150   13.3010 C.ar      1 JE21001     0.0000 
     39 C39        21.5650   28.4450   13.9180 C.ar      1 JE21001     0.0000 
     40 C40        21.7170   27.2840   14.7060 C.ar      1 JE21001     0.0000 
     41 C41        18.1610   25.7500   14.3960 C.3       1 JE21001     0.0000 
     42 H          10.3199   17.0291   19.3796 H         1 JE21001     0.0000 
     43 H          10.4510   18.1633   17.2323 H         1 JE21001     0.0000 
     44 H          12.2755   19.7063   16.7814 H         1 JE21001     0.0000 
     45 H          12.8825   21.9014   17.8764 H         1 JE21001     0.0000 
     46 H          15.0596   23.0848   19.5375 H         1 JE21001     0.0000 
     47 H          13.3022   23.8425   16.4030 H         1 JE21001     0.0000 
     48 H          14.9479   24.0876   15.7936 H         1 JE21001     0.0000 
     49 H          13.3170   19.6165   12.3914 H         1 JE21001     0.0000 
     50 H          15.7723   22.2526   17.2041 H         1 JE21001     0.0000 
     51 H          16.0316   22.0136   14.5599 H         1 JE21001     0.0000 
     52 H          11.8892   22.2943   15.3240 H         1 JE21001     0.0000 
     53 H          15.5997   20.3234   12.8601 H         1 JE21001     0.0000 
     54 H          11.4588   20.6016   13.6257 H         1 JE21001     0.0000 
     55 H          18.5615   25.6220   18.9451 H         1 JE21001     0.0000 
     56 H          17.0191   21.9781   19.9035 H         1 JE21001     0.0000 
     57 H          17.2139   23.3790   20.9711 H         1 JE21001     0.0000 
     58 H          20.3922   26.1402   17.5670 H         1 JE21001     0.0000 
     59 H          20.4984   24.2770   15.1947 H         1 JE21001     0.0000 
     60 H          21.9558   25.0279   15.8671 H         1 JE21001     0.0000 
     61 H          18.3390   28.0339   13.0152 H         1 JE21001     0.0000 
     62 H          20.2121   29.5563   12.7291 H         1 JE21001     0.0000 
     63 H          22.3482   29.0861   13.7951 H         1 JE21001     0.0000 
     64 H          22.6169   27.0865   15.1562 H         1 JE21001     0.0000 
     65 H          15.0975   18.7771   20.7496 H         1 JE21001     0.0000 
     66 H          14.2170   19.9897   21.3332 H         1 JE21001     0.0000 
     67 H          13.9688   18.4902   21.8587 H         1 JE21001     0.0000 
     68 H          19.9481   24.6703   22.1409 H         1 JE21001     0.0000 
     69 H          19.5476   25.9388   21.2372 H         1 JE21001     0.0000 
     70 H          18.4249   24.8699   21.6653 H         1 JE21001     0.0000 
     71 H          21.7295   23.8930   20.5892 H         1 JE21001     0.0000 
     72 H          21.4296   23.5478   19.0474 H         1 JE21001     0.0000 
     73 H          21.5008   25.0805   19.5291 H         1 JE21001     0.0000 
     74 H          18.3442   24.8317   14.0451 H         1 JE21001     0.0000 
     75 H          17.8806   25.6486   15.3505 H         1 JE21001     0.0000 
     76 H          17.3713   26.1033   13.8945 H         1 JE21001     0.0000 
     77 H          11.0552   16.8522   21.3666 H         1 JE21001     0.0000 
     78 H          14.1845   25.2734   17.9689 H         1 JE21001     0.0000 
@<TRIPOS>BOND
     1    2    1 ar   
     2    6    1 ar   
     3   42    1 1    
     4    3    2 ar   
     5   43    2 1    
     6    4    3 ar   
     7   44    3 1    
     8    5    4 ar   
     9    8    4 1    
    10    6    5 ar   
    11    7    5 1    
    12    9    6 1    
    13   65    7 1    
    14   66    7 1    
    15   67    7 1    
    16   10    8 2    
    17   12    8 am   
    18   77    9 1    
    19   13   11 2    
    20   14   11 1    
    21   25   11 am   
    22   18   12 1    
    23   45   12 1    
    24   18   14 1    
    25   19   14 1    
    26   46   14 1    
    27   16   15 1    
    28   20   15 ar   
    29   21   15 ar   
    30   18   16 1    
    31   47   16 1    
    32   48   16 1    
    33   22   17 ar   
    34   23   17 ar   
    35   49   17 1    
    36   50   18 1    
    37   78   19 1    
    38   22   20 ar   
    39   51   20 1    
    40   23   21 ar   
    41   52   21 1    
    42   53   22 1    
    43   54   23 1    
    44   26   24 2    
    45   27   24 1    
    46   33   24 am   
    47   27   25 1    
    48   29   25 1    
    49   28   27 1    
    50   55   27 1    
    51   30   28 1    
    52   31   28 1    
    53   32   28 1    
    54   32   29 1    
    55   56   29 1    
    56   57   29 1    
    57   68   30 1    
    58   69   30 1    
    59   70   30 1    
    60   71   31 1    
    61   72   31 1    
    62   73   31 1    
    63   34   33 1    
    64   58   33 1    
    65   35   34 1    
    66   59   34 1    
    67   60   34 1    
    68   36   35 ar   
    69   40   35 ar   
    70   37   36 ar   
    71   41   36 1    
    72   38   37 ar   
    73   61   37 1    
    74   39   38 ar   
    75   62   38 1    
    76   40   39 ar   
    77   63   39 1    
    78   64   40 1    
    79   74   41 1    
    80   75   41 1    
    81   76   41 1    
@<TRIPOS>SUBSTRUCTURE
     1 JE21001     1 GROUP   
@<TRIPOS>SET

