#    Name: 2jc9_ADN_2_INTS_M
#    Modification time : Tue Mar 25 19:57:45 2014

@<TRIPOS>MOLECULE
2jc9_ADN_2_INTS_M
   25     0     9     0     0
SMALL
NO_CHARGES


@<TRIPOS>ATOM
      1 CA        -26.1085   31.9130   53.9730 C.3       3 GLC5        0.0000 
      2 CA        -24.1010   31.8800   53.4160 C.3       9 GLL5        0.0000 
      3 CA        -28.1160   31.9460   54.5300 C.3       6 GLP5        0.0000 
      4 CA        -23.6090   29.6400   50.6065 C.3       3 GLC5        0.0000 
      5 CA        -23.4980   31.1590   52.2040 C.3       9 GLL5        0.0000 
      6 CA        -23.7200   28.1210   49.0090 C.3       6 GLP5        0.0000 
      7 CA        -23.0000   33.8325   50.1955 C.3       3 GLC5        0.0000 
      8 CA        -23.4390   32.2530   51.1770 C.3       9 GLL5        0.0000 
      9 CA        -22.5610   35.4120   49.2140 C.3       6 GLP5        0.0000 
     10 CA        -21.0375   31.4245   44.7765 C.3       3 GLC5        0.0000 
     11 CA        -21.5840   31.3270   46.8390 C.3       9 GLL5        0.0000 
     12 CA        -20.4910   31.5220   42.7140 C.3       6 GLP5        0.0000 
     13 O         -19.3120   30.8235   46.4245 O.2       1 ALC1        0.0000 
     14 O         -20.5230   31.0410   46.1160 O.2       7 ALL1        0.0000 
     15 O         -18.1010   30.6060   46.7330 O.2       4 ALP1        0.0000 
     16 CA        -23.8025   29.9315   47.9600 C.3       3 GLC5        0.0000 
     17 CA        -23.8850   31.7420   46.9110 C.3       9 GLL5        0.0000 
     18 N         -23.4475   33.5605   48.0890 N.am      2 SEC2        0.0000 
     19 N         -23.8400   31.9010   48.2300 N.am      8 SEL2        0.0000 
     20 N         -23.0550   35.2200   47.9480 N.am      5 SEP2        0.0000 
     21 CA        -22.3193   33.5265   48.8845 C.3       3 GLC5        0.0000 
     22 CA        -21.4900   31.4960   48.2200 C.3       9 GLL5        0.0000 
     23 CA        -20.2820   32.7097   47.3038 C.3       3 GLC5        0.0000 
     24 CA        -19.0270   34.0080   47.0780 C.3       6 GLP5        0.0000 
     25 CA        -22.9105   29.8599   48.6094 C.3       3 GLC5        0.0000 
@<TRIPOS>BOND
@<TRIPOS>SUBSTRUCTURE
     1 ALC1       13 GROUP        1 X    ALC  0     ROOT ALC X 1
     2 SEC2       18 GROUP        1 X    SEC  0     **** SEC X 2
     3 GLC5        1 GROUP        1 X    GLC  0     **** GLC X 6
     4 ALP1       15 GROUP        1 Y    ALP  0     ROOT ALP Y 8
     5 SEP2       20 GROUP        1 Y    SEP  0     **** SEP Y 9
     6 GLP5        3 GROUP        1 Y    GLP  0     **** GLP Y 13
     7 ALL1       14 GROUP        1 Z    ALL  0     ROOT ALL Z 15
     8 SEL2       19 GROUP        1 Z    SEL  0     **** SEL Z 16
     9 GLL5        2 GROUP        1 Z    GLL  0     **** GLL Z 20
@<TRIPOS>SET

