#    Name: 2jc9_ADN_2_ligand
#    Modification time : Tue Mar 25 19:57:45 2014

@<TRIPOS>MOLECULE
2jc9_ADN_2_ligand
   32    34     1     0     0
SMALL
NO_CHARGES


@<TRIPOS>ATOM
      1 O5'       -22.0320   35.1240   53.9330 O.3       1 ADN1498     0.0000 
      2 C5'       -22.5590   33.8040   54.2440 C.3       1 ADN1498     0.0000 
      3 C4'       -23.7020   33.3710   53.2640 C.3       1 ADN1498     0.0000 
      4 O4'       -23.2490   33.5430   51.8940 O.3       1 ADN1498     0.0000 
      5 C3'       -24.1010   31.8800   53.4160 C.3       1 ADN1498     0.0000 
      6 O3'       -25.5170   31.7540   53.3460 O.3       1 ADN1498     0.0000 
      7 C2'       -23.4980   31.1590   52.2040 C.3       1 ADN1498     0.0000 
      8 O2'       -24.4150   30.1950   51.6750 O.3       1 ADN1498     0.0000 
      9 C1'       -23.4390   32.2530   51.1770 C.3       1 ADN1498     0.0000 
     10 N9        -22.3700   31.9080   50.1750 N.pl3     1 ADN1498     0.0000 
     11 C8        -21.0430   31.6990   50.3390 C.2       1 ADN1498     0.0000 
     12 N7        -20.5020   31.4440   49.1350 N.2       1 ADN1498     0.0000 
     13 C5        -21.4900   31.4960   48.2200 C.ar      1 ADN1498     0.0000 
     14 C6        -21.5840   31.3270   46.8390 C.ar      1 ADN1498     0.0000 
     15 N6        -20.5230   31.0410   46.1160 N.pl3     1 ADN1498     0.0000 
     16 N1        -22.7840   31.4600   46.2250 N.ar      1 ADN1498     0.0000 
     17 C2        -23.8850   31.7420   46.9110 C.ar      1 ADN1498     0.0000 
     18 N3        -23.8400   31.9010   48.2300 N.ar      1 ADN1498     0.0000 
     19 C4        -22.6650   31.7860   48.8900 C.ar      1 ADN1498     0.0000 
     20 H         -22.9765   33.7672   55.2613 H         1 ADN1498     0.0000 
     21 H         -21.7754   33.0339   54.1844 H         1 ADN1498     0.0000 
     22 H         -24.5642   33.9749   53.4530 H         1 ADN1498     0.0000 
     23 H         -23.6775   31.4990   54.2906 H         1 ADN1498     0.0000 
     24 H         -22.5620   30.8132   52.4128 H         1 ADN1498     0.0000 
     25 H         -24.4072   32.2643   50.6686 H         1 ADN1498     0.0000 
     26 H         -20.5699   31.7291   51.1803 H         1 ADN1498     0.0000 
     27 H         -20.5336   31.3673   45.1708 H         1 ADN1498     0.0000 
     28 H         -19.8026   30.5234   46.5775 H         1 ADN1498     0.0000 
     29 H         -24.8041   31.8409   46.4057 H         1 ADN1498     0.0000 
     30 H         -21.2669   34.9571   53.3111 H         1 ADN1498     0.0000 
     31 H         -25.6801   31.0471   52.6577 H         1 ADN1498     0.0000 
     32 H         -24.0275   29.3068   51.9217 H         1 ADN1498     0.0000 
@<TRIPOS>BOND
     1    2    1 1    
     2   30    1 1    
     3    3    2 1    
     4   20    2 1    
     5   21    2 1    
     6    4    3 1    
     7    5    3 1    
     8   22    3 1    
     9    9    4 1    
    10    6    5 1    
    11    7    5 1    
    12   23    5 1    
    13   31    6 1    
    14    8    7 1    
    15    9    7 1    
    16   24    7 1    
    17   32    8 1    
    18   10    9 1    
    19   25    9 1    
    20   11   10 1    
    21   19   10 1    
    22   12   11 2    
    23   26   11 1    
    24   13   12 1    
    25   14   13 ar   
    26   19   13 ar   
    27   15   14 1    
    28   16   14 ar   
    29   27   15 1    
    30   28   15 1    
    31   17   16 ar   
    32   18   17 ar   
    33   29   17 1    
    34   19   18 ar   
@<TRIPOS>SUBSTRUCTURE
     1 ADN1498     1 GROUP   
@<TRIPOS>SET

