#    Name: 1nsy_AMP_2_INTS_M
#    Modification time : Mon Mar 24 18:53:00 2014

@<TRIPOS>MOLECULE
1nsy_AMP_2_INTS_M
   41     0    12     0     0
SMALL
NO_CHARGES


@<TRIPOS>ATOM
      1 Zn         16.1905   62.4725   47.5460 Zn        3 ZIC7        0.0000 
      2 Zn         16.0020   61.5510   47.1310 Zn       11 ZIL7        0.0000 
      3 Zn         16.3790   63.3940   47.9610 Zn        7 ZIP7        0.0000 
      4 N          12.3765   64.4480   47.4290 N.am      2 SEC2        0.0000 
      5 N          12.1630   63.4630   48.3660 N.am     10 SEL2        0.0000 
      6 N          12.5900   65.4330   46.4920 N.am      6 SEP2        0.0000 
      7 O           8.5660   63.1275   49.0170 O.2       1 ALC1        0.0000 
      8 O           9.4670   63.0300   48.0110 O.2       9 ALL1        0.0000 
      9 O           7.6650   63.2250   50.0230 O.2       5 ALP1        0.0000 
     10 CA          6.9410   56.7805   49.6585 C.3       4 GLC5        0.0000 
     11 CA          8.8790   56.9960   50.5600 C.3      12 GLL5        0.0000 
     12 CA          5.0030   56.5650   48.7570 C.3       8 GLP5        0.0000 
     13 O           9.1175   55.3545   52.4660 O.2       1 ALC1        0.0000 
     14 O           9.2560   55.8250   51.1400 O.2       9 ALL1        0.0000 
     15 O           8.9790   54.8840   53.7920 O.2       5 ALP1        0.0000 
     16 N           6.1785   57.1735   51.1010 N.am      2 SEC2        0.0000 
     17 N           7.7260   57.5200   50.9770 N.am     10 SEL2        0.0000 
     18 N           4.6310   56.8270   51.2250 N.am      6 SEP2        0.0000 
     19 CA          6.4995   60.4585   49.7995 C.3       4 GLC5        0.0000 
     20 CA          7.3510   58.6990   50.4920 C.3      12 GLL5        0.0000 
     21 CA          5.6480   62.2180   49.1070 C.3       8 GLP5        0.0000 
     22 CA          7.2535   60.5760   51.5560 C.3       4 GLC5        0.0000 
     23 CA          7.1560   62.4530   52.6200 C.3       8 GLP5        0.0000 
     24 CA          8.6965   59.3505   51.7160 C.3       4 GLC5        0.0000 
     25 CA         10.0420   60.0020   52.9400 C.3       8 GLP5        0.0000 
     26 CA          5.5100   58.4800   51.7290 C.3       4 GLC5        0.0000 
     27 CA          3.6690   58.2610   52.9660 C.3       8 GLP5        0.0000 
     28 CA          6.1770   57.6320   49.6245 C.3       4 GLC5        0.0000 
     29 CA         12.1638   61.2965   44.5130 C.3       4 GLC5        0.0000 
     30 CA         11.8270   61.7780   46.6600 C.3      12 GLL5        0.0000 
     31 CA         11.8130   61.0630   42.5530 C.3       8 GLP5        0.0000 
     32 CA         11.0813   60.9785   50.0945 C.3       4 GLC5        0.0000 
     33 CA         11.6990   62.1440   48.1390 C.3      12 GLL5        0.0000 
     34 CA         11.2000   59.9290   51.9240 C.3       8 GLP5        0.0000 
     35 CA         10.7123   63.3280   49.7885 C.3       4 GLC5        0.0000 
     36 CA         10.2260   61.9120   48.3910 C.3      12 GLL5        0.0000 
     37 CA         10.4620   64.6280   51.3120 C.3       8 GLP5        0.0000 
     38 CA         10.1920   59.0325   50.7796 C.3       4 GLC5        0.0000 
     39 CA          9.6190   57.7000   49.5790 C.3      12 GLL5        0.0000 
     40 CA          8.5105   57.2335   48.0616 C.3       4 GLC5        0.0000 
     41 CA          7.8370   56.3310   46.4880 C.3       8 GLP5        0.0000 
@<TRIPOS>BOND
@<TRIPOS>SUBSTRUCTURE
     1 ALC1        7 GROUP        1 X    ALC  0     ROOT ALC X 1
     2 SEC2        4 GROUP        1 X    SEC  0     **** SEC X 2
     3 ZIC7        1 GROUP        1 X    ZIC  0     **** ZIC X 5
     4 GLC5       10 GROUP        1 X    GLC  0     **** GLC X 6
     5 ALP1        9 GROUP        1 Y    ALP  0     ROOT ALP Y 8
     6 SEP2        6 GROUP        1 Y    SEP  0     **** SEP Y 9
     7 ZIP7        3 GROUP        1 Y    ZIP  0     **** ZIP Y 12
     8 GLP5       12 GROUP        1 Y    GLP  0     **** GLP Y 13
     9 ALL1        8 GROUP        1 Z    ALL  0     ROOT ALL Z 15
    10 SEL2        5 GROUP        1 Z    SEL  0     **** SEL Z 16
    11 ZIL7        2 GROUP        1 Z    ZIL  0     **** ZIL Z 19
    12 GLL5       11 GROUP        1 Z    GLL  0     **** GLL Z 20
@<TRIPOS>SET

