#    Name: 1nsy_AMP_2_ligand
#    Modification time : Mon Mar 24 18:53:00 2014

@<TRIPOS>MOLECULE
1nsy_AMP_2_ligand
   35    37     1     0     0
SMALL
NO_CHARGES


@<TRIPOS>ATOM
      1 P          15.3220   60.2550   47.3370 P.3       1 AMP4000     0.0000 
      2 O1P        16.0020   61.5510   47.1310 O.co2     1 AMP4000     0.0000 
      3 O2P        15.7250   59.3660   46.1990 O.co2     1 AMP4000     0.0000 
      4 O3P        15.5110   59.5370   48.8180 O.co2     1 AMP4000     0.0000 
      5 O5'        13.8510   60.5060   47.3310 O.3       1 AMP4000     0.0000 
      6 C5'        13.2020   61.2820   46.2860 C.3       1 AMP4000     0.0000 
      7 C4'        11.8270   61.7780   46.6600 C.3       1 AMP4000     0.0000 
      8 O4'        10.9320   60.6450   46.5190 O.3       1 AMP4000     0.0000 
      9 C3'        11.6990   62.1440   48.1390 C.3       1 AMP4000     0.0000 
     10 O3'        12.1630   63.4630   48.3660 O.3       1 AMP4000     0.0000 
     11 C2'        10.2260   61.9120   48.3910 C.3       1 AMP4000     0.0000 
     12 O2'         9.4670   63.0300   48.0110 O.3       1 AMP4000     0.0000 
     13 C1'         9.9140   60.6830   47.5170 C.3       1 AMP4000     0.0000 
     14 N9          9.9860   59.4230   48.2640 N.pl3     1 AMP4000     0.0000 
     15 C8         11.0250   58.5130   48.1600 C.2       1 AMP4000     0.0000 
     16 N7         10.8730   57.5020   48.9750 N.2       1 AMP4000     0.0000 
     17 C5          9.6190   57.7000   49.5790 C.ar      1 AMP4000     0.0000 
     18 C6          8.8790   56.9960   50.5600 C.ar      1 AMP4000     0.0000 
     19 N6          9.2560   55.8250   51.1400 N.pl3     1 AMP4000     0.0000 
     20 N1          7.7260   57.5200   50.9770 N.ar      1 AMP4000     0.0000 
     21 C2          7.3510   58.6990   50.4920 C.ar      1 AMP4000     0.0000 
     22 N3          7.9560   59.4550   49.5920 N.ar      1 AMP4000     0.0000 
     23 C4          9.1190   58.9240   49.2010 C.ar      1 AMP4000     0.0000 
     24 H          13.1122   60.6788   45.3561 H         1 AMP4000     0.0000 
     25 H          13.8259   62.1614   46.0138 H         1 AMP4000     0.0000 
     26 H          11.5225   62.5728   46.0616 H         1 AMP4000     0.0000 
     27 H          12.2499   61.3920   48.6816 H         1 AMP4000     0.0000 
     28 H          10.1053   61.6209   49.4073 H         1 AMP4000     0.0000 
     29 H           8.9564   60.8175   47.0744 H         1 AMP4000     0.0000 
     30 H          11.7760   58.6501   47.5291 H         1 AMP4000     0.0000 
     31 H           9.8543   55.2369   50.5957 H         1 AMP4000     0.0000 
     32 H           8.9016   55.6553   52.0596 H         1 AMP4000     0.0000 
     33 H           6.4002   59.1016   50.8995 H         1 AMP4000     0.0000 
     34 H          11.3366   64.0056   48.5165 H         1 AMP4000     0.0000 
     35 H           8.8142   63.1649   48.7564 H         1 AMP4000     0.0000 
@<TRIPOS>BOND
     1    2    1 ar   
     2    3    1 ar   
     3    4    1 ar   
     4    5    1 1    
     5    6    5 1    
     6    7    6 1    
     7   24    6 1    
     8   25    6 1    
     9    8    7 1    
    10    9    7 1    
    11   26    7 1    
    12   13    8 1    
    13   10    9 1    
    14   11    9 1    
    15   27    9 1    
    16   34   10 1    
    17   12   11 1    
    18   13   11 1    
    19   28   11 1    
    20   35   12 1    
    21   14   13 1    
    22   29   13 1    
    23   15   14 1    
    24   23   14 1    
    25   16   15 2    
    26   30   15 1    
    27   17   16 1    
    28   18   17 ar   
    29   23   17 ar   
    30   19   18 1    
    31   20   18 ar   
    32   31   19 1    
    33   32   19 1    
    34   21   20 ar   
    35   22   21 ar   
    36   33   21 1    
    37   23   22 ar   
@<TRIPOS>SUBSTRUCTURE
     1 AMP4000     1 GROUP   
@<TRIPOS>SET

