#    Name: 2gn8_NAP_2_INTS_M
#    Modification time : Tue Mar 25 14:48:48 2014

@<TRIPOS>MOLECULE
2gn8_NAP_2_INTS_M
  122     0    12     0     0
SMALL
NO_CHARGES


@<TRIPOS>ATOM
      1 NZ         26.0130   34.3660    4.4795 N.4       3 LYC4        0.0000 
      2 NZ         25.6810   33.0460    5.3660 N.4      11 LYL4        0.0000 
      3 NZ         26.3450   35.6860    3.5930 N.4       7 LYP4        0.0000 
      4 N          25.2690   33.6100    6.7265 N.am      2 SEC2        0.0000 
      5 N          25.6810   33.0460    5.3660 N.am     10 SEL2        0.0000 
      6 N          24.8570   34.1740    8.0870 N.am      6 SEP2        0.0000 
      7 NZ         26.9745   33.8825    3.6540 N.4       3 LYC4        0.0000 
      8 NZ         27.6040   32.0790    3.7150 N.4      11 LYL4        0.0000 
      9 N          30.0600   37.1585    7.0365 N.am      2 SEC2        0.0000 
     10 N          29.9290   35.8840    6.6120 N.am     10 SEL2        0.0000 
     11 N          30.1910   38.4330    7.4610 N.am      6 SEP2        0.0000 
     12 CA         33.1400   32.6290    6.7970 C.3       4 GLC5        0.0000 
     13 CA         32.6050   34.4120    5.7370 C.3      12 GLL5        0.0000 
     14 CA         33.6750   30.8460    7.8570 C.3       8 GLP5        0.0000 
     15 CA         38.9255   34.8180    5.0870 C.3       4 GLC5        0.0000 
     16 CA         37.1880   33.6440    4.3300 C.3      12 GLL5        0.0000 
     17 CA         40.6630   35.9920    5.8440 C.3       8 GLP5        0.0000 
     18 CA         38.1270   32.3520    5.2910 C.3       4 GLC5        0.0000 
     19 CA         39.0660   31.0600    6.2520 C.3       8 GLP5        0.0000 
     20 O          39.2880   33.5165    3.5395 O.2       1 ALC1        0.0000 
     21 O          37.8960   33.1390    3.2660 O.2       9 ALL1        0.0000 
     22 O          40.6800   33.8940    3.8130 O.2       5 ALP1        0.0000 
     23 O          37.9570   31.8065    2.2200 O.2       1 ALC1        0.0000 
     24 O          38.0180   30.4740    1.1740 O.2       5 ALP1        0.0000 
     25 N          39.0840   33.9080    6.0380 N.am      2 SEC2        0.0000 
     26 N          37.7690   34.1410    5.4730 N.am     10 SEL2        0.0000 
     27 N          40.3990   33.6750    6.6030 N.am      6 SEP2        0.0000 
     28 CA         36.2070   36.3210    7.3520 C.3       4 GLC5        0.0000 
     29 CA         36.9260   34.6240    6.4830 C.3      12 GLL5        0.0000 
     30 CA         35.4880   38.0180    8.2210 C.3       8 GLP5        0.0000 
     31 CA         37.2305   36.0825    5.2120 C.3       4 GLC5        0.0000 
     32 CA         37.5350   37.5410    3.9410 C.3       8 GLP5        0.0000 
     33 CA         38.7945   35.3080    6.1635 C.3       4 GLC5        0.0000 
     34 CA         37.8210   33.3395    7.5070 C.3       4 GLC5        0.0000 
     35 CA         38.7160   32.0550    8.5310 C.3       8 GLP5        0.0000 
     36 CA         35.9770   33.0840    7.2095 C.3       4 GLC5        0.0000 
     37 CA         35.0280   31.5440    7.9360 C.3       8 GLP5        0.0000 
     38 N          24.5630   31.4135    8.0630 N.am      2 SEC2        0.0000 
     39 N          25.9910   31.1890    8.2170 N.am     10 SEL2        0.0000 
     40 N          23.1350   31.6380    7.9090 N.am      6 SEP2        0.0000 
     41 N          25.2475   31.7310    9.2020 N.am      2 SEC2        0.0000 
     42 N          24.5040   32.2730   10.1870 N.am      6 SEP2        0.0000 
     43 NZ         24.5125   29.5150    5.0350 N.4       3 LYC4        0.0000 
     44 NZ         24.8030   29.6400    6.3400 N.4      11 LYL4        0.0000 
     45 NZ         24.2220   29.3900    3.7300 N.4       7 LYP4        0.0000 
     46 N          24.5125   29.5150    5.0350 N.am      2 SEC2        0.0000 
     47 N          24.8030   29.6400    6.3400 N.am     10 SEL2        0.0000 
     48 N          24.2220   29.3900    3.7300 N.am      6 SEP2        0.0000 
     49 CA         26.7810   29.6750    9.8750 C.3       4 GLC5        0.0000 
     50 CA         27.9480   28.9260    8.3790 C.3      12 GLL5        0.0000 
     51 CA         25.6140   30.4240   11.3710 C.3       8 GLP5        0.0000 
     52 CA         29.2505   29.4865    9.8545 C.3       4 GLC5        0.0000 
     53 CA         30.5530   30.0470   11.3300 C.3       8 GLP5        0.0000 
     54 CA         30.1860   28.4350    9.6305 C.3       4 GLC5        0.0000 
     55 CA         28.6300   27.5890    8.5110 C.3      12 GLL5        0.0000 
     56 CA         31.7420   29.2810   10.7500 C.3       8 GLP5        0.0000 
     57 CA         30.8915   27.4355    6.1635 C.3       4 GLC5        0.0000 
     58 CA         29.3080   27.2220    7.2300 C.3      12 GLL5        0.0000 
     59 CA         32.4750   27.6490    5.0970 C.3       8 GLP5        0.0000 
     60 N          31.4055   25.6880    7.4125 N.am      2 SEC2        0.0000 
     61 N          30.6530   26.8820    7.5490 N.am     10 SEL2        0.0000 
     62 N          32.1580   24.4940    7.2760 N.am      6 SEP2        0.0000 
     63 CA         30.3000   24.9115    6.3430 C.3       4 GLC5        0.0000 
     64 CA         28.5750   26.0470    6.7120 C.3      12 GLL5        0.0000 
     65 CA         32.0250   23.7760    5.9740 C.3       8 GLP5        0.0000 
     66 N          30.8345   24.7880    6.7675 N.am      2 SEC2        0.0000 
     67 N          29.5110   25.0820    6.2590 N.am     10 SEL2        0.0000 
     68 O          29.1300   24.3610    5.1875 O.2       1 ALC1        0.0000 
     69 O          29.5110   25.0820    6.2590 O.2       9 ALL1        0.0000 
     70 O          28.7490   23.6400    4.1160 O.2       5 ALP1        0.0000 
     71 CA         28.7840   25.3695    9.6745 C.3       4 GLC5        0.0000 
     72 CA         27.7770   25.5230    7.8740 C.3      12 GLL5        0.0000 
     73 CA         29.7910   25.2160   11.4750 C.3       8 GLP5        0.0000 
     74 CA         25.9890   26.9390    4.8440 C.3       4 GLC5        0.0000 
     75 CA         25.6540   25.7510    6.6040 C.3      12 GLL5        0.0000 
     76 CA         26.3240   28.1270    3.0840 C.3       8 GLP5        0.0000 
     77 N          20.8725   25.1855    5.9345 N.am      2 SEC2        0.0000 
     78 N          22.3150   25.5490    5.1120 N.am     10 SEL2        0.0000 
     79 N          19.4300   24.8220    6.7570 N.am      6 SEP2        0.0000 
     80 CA         21.9075   23.2925    6.3110 C.3       4 GLC5        0.0000 
     81 CA         23.9940   23.9410    6.8310 C.3      12 GLL5        0.0000 
     82 CA         19.8210   22.6440    5.7910 C.3       8 GLP5        0.0000 
     83 NZ         31.2070   39.4400    3.6335 N.4       3 LYC4        0.0000 
     84 NZ         32.5630   39.1470    4.5180 N.4      11 LYL4        0.0000 
     85 NZ         29.8510   39.7330    2.7490 N.4       7 LYP4        0.0000 
     86 N          33.5625   40.0345    4.4275 N.am      2 SEC2        0.0000 
     87 N          32.5630   39.1470    4.5180 N.am     10 SEL2        0.0000 
     88 N          34.5620   40.9220    4.3370 N.am      6 SEP2        0.0000 
     89 N          31.2070   39.4400    3.6335 N.am      2 SEC2        0.0000 
     90 N          29.8510   39.7330    2.7490 N.am      6 SEP2        0.0000 
     91 NZ         35.1995   36.7235    3.4165 N.4       3 LYC4        0.0000 
     92 NZ         34.2710   37.0800    4.5310 N.4      11 LYL4        0.0000 
     93 NZ         35.8100   35.7090    1.1900 N.4       7 LYP4        0.0000 
     94 N          35.1030   37.9510    5.2525 N.am      2 SEC2        0.0000 
     95 N          34.2710   37.0800    4.5310 N.am     10 SEL2        0.0000 
     96 N          35.9350   38.8220    5.9740 N.am      6 SEP2        0.0000 
     97 N          35.1995   36.7235    3.4165 N.am      2 SEC2        0.0000 
     98 N          36.1280   36.3670    2.3020 N.am      6 SEP2        0.0000 
     99 NZ         31.1150   38.3785    2.7950 N.4       3 LYC4        0.0000 
    100 NZ         32.3790   37.0240    2.8410 N.4      11 LYL4        0.0000 
    101 N          33.4600   36.2345    1.8780 N.am      2 SEC2        0.0000 
    102 N          32.3790   37.0240    2.8410 N.am     10 SEL2        0.0000 
    103 N          34.5410   35.4450    0.9150 N.am      6 SEP2        0.0000 
    104 CA         28.6021   34.6570    6.8513 C.3       4 GLC5        0.0000 
    105 CA         30.5010   33.6320    6.2670 C.3      12 GLL5        0.0000 
    106 CA         27.0180   35.2780    7.9310 C.3       8 GLP5        0.0000 
    107 CA         35.2043   32.7262    6.3603 C.3       4 GLC5        0.0000 
    108 CA         35.7540   33.6600    4.2600 C.3      12 GLL5        0.0000 
    109 CA         36.6130   31.6885    3.7010 C.3       4 GLC5        0.0000 
    110 CA         36.7550   29.7250    3.1070 C.3       8 GLP5        0.0000 
    111 CA         36.6165   35.3053    3.7415 C.3       4 GLC5        0.0000 
    112 CA         37.4940   36.7060    2.6810 C.3       8 GLP5        0.0000 
    113 CA         28.3105   27.7007   10.2710 C.3       4 GLC5        0.0000 
    114 CA         28.3320   27.1440   12.0970 C.3       8 GLP5        0.0000 
    115 CA         22.6728   25.4457    7.5355 C.3       4 GLC5        0.0000 
    116 CA         24.3910   25.1980    6.2690 C.3      12 GLL5        0.0000 
    117 CA         21.1530   26.3220    8.5210 C.3       8 GLP5        0.0000 
    118 CA         26.4755   22.0495    6.9377 C.3       4 GLC5        0.0000 
    119 CA         24.8580   23.2380    7.7230 C.3      12 GLL5        0.0000 
    120 CA         27.4670   20.5850    5.9880 C.3       8 GLP5        0.0000 
    121 CA         31.8574   34.3689    7.4734 C.3       4 GLC5        0.0000 
    122 CA         32.4500   34.1550    9.2890 C.3       8 GLP5        0.0000 
@<TRIPOS>BOND
@<TRIPOS>SUBSTRUCTURE
     1 ALC1       20 GROUP        1 X    ALC  0     ROOT ALC X 1
     2 SEC2        4 GROUP        1 X    SEC  0     **** SEC X 2
     3 LYC4        1 GROUP        1 X    LYC  0     **** LYC X 4
     4 GLC5       12 GROUP        1 X    GLC  0     **** GLC X 6
     5 ALP1       22 GROUP        1 Y    ALP  0     ROOT ALP Y 8
     6 SEP2        6 GROUP        1 Y    SEP  0     **** SEP Y 9
     7 LYP4        3 GROUP        1 Y    LYP  0     **** LYP Y 11
     8 GLP5       14 GROUP        1 Y    GLP  0     **** GLP Y 13
     9 ALL1       21 GROUP        1 Z    ALL  0     ROOT ALL Z 15
    10 SEL2        5 GROUP        1 Z    SEL  0     **** SEL Z 16
    11 LYL4        2 GROUP        1 Z    LYL  0     **** LYL Z 18
    12 GLL5       13 GROUP        1 Z    GLL  0     **** GLL Z 20
@<TRIPOS>SET

