#    Name: 2gn8_NAP_2_ligand
#    Modification time : Tue Mar 25 14:48:48 2014

@<TRIPOS>MOLECULE
2gn8_NAP_2_ligand
   73    77     1     0     0
SMALL
NO_CHARGES


@<TRIPOS>ATOM
      1 PA         27.0670   32.2240    5.2230 P.3       1 NAP334      0.0000 
      2 O1A        25.6810   33.0460    5.3660 O.co2     1 NAP334      0.0000 
      3 O2A        27.6040   32.0790    3.7150 O.co2     1 NAP334      0.0000 
      4 O5B        28.2980   32.8780    6.0530 O.3       1 NAP334      0.0000 
      5 C5B        29.6160   32.5860    5.6390 C.3       1 NAP334      0.0000 
      6 C4B        30.5010   33.6320    6.2670 C.3       1 NAP334      0.0000 
      7 O4B        31.8640   33.2500    6.1140 O.3       1 NAP334      0.0000 
      8 C3B        30.3140   34.9630    5.5900 C.3       1 NAP334      0.0000 
      9 O3B        29.9290   35.8840    6.6120 O.3       1 NAP334      0.0000 
     10 C2B        31.6390   35.3240    5.0370 C.3       1 NAP334      0.0000 
     11 O2B        31.8890   36.6920    5.3540 O.3       1 NAP334      0.0000 
     12 C1B        32.6050   34.4120    5.7370 C.3       1 NAP334      0.0000 
     13 N9A        33.7660   34.0090    4.8960 N.pl3     1 NAP334      0.0000 
     14 C8A        33.6760   33.4530    3.6570 C.2       1 NAP334      0.0000 
     15 N7A        34.9250   33.2100    3.2030 N.2       1 NAP334      0.0000 
     16 C5A        35.7540   33.6600    4.2600 C.ar      1 NAP334      0.0000 
     17 C6A        37.1880   33.6440    4.3300 C.ar      1 NAP334      0.0000 
     18 N6A        37.8960   33.1390    3.2660 N.pl3     1 NAP334      0.0000 
     19 N1A        37.7690   34.1410    5.4730 N.ar      1 NAP334      0.0000 
     20 C2A        36.9260   34.6240    6.4830 C.ar      1 NAP334      0.0000 
     21 N3A        35.5750   34.6620    6.4710 N.ar      1 NAP334      0.0000 
     22 C4A        35.0070   34.1570    5.3090 C.ar      1 NAP334      0.0000 
     23 O3         27.0020   30.7270    5.7620 O.3       1 NAP334      0.0000 
     24 PN         26.1770   30.1500    7.0080 P.3       1 NAP334      0.0000 
     25 O1N        25.9910   31.1890    8.2170 O.co2     1 NAP334      0.0000 
     26 O2N        24.8030   29.6400    6.3400 O.co2     1 NAP334      0.0000 
     27 O5D        26.9460   28.8020    7.4010 O.3       1 NAP334      0.0000 
     28 C5D        27.9480   28.9260    8.3790 C.3       1 NAP334      0.0000 
     29 C4D        28.6300   27.5890    8.5110 C.3       1 NAP334      0.0000 
     30 O4D        27.6310   26.6020    8.7920 O.3       1 NAP334      0.0000 
     31 C3D        29.3080   27.2220    7.2300 C.3       1 NAP334      0.0000 
     32 O3D        30.6530   26.8820    7.5490 O.3       1 NAP334      0.0000 
     33 C2D        28.5750   26.0470    6.7120 C.3       1 NAP334      0.0000 
     34 O2D        29.5110   25.0820    6.2590 O.3       1 NAP334      0.0000 
     35 C1D        27.7770   25.5230    7.8740 C.3       1 NAP334      0.0000 
     36 N1N        26.4300   24.9960    7.4790 N.pl3     1 NAP334      0.0000 
     37 C2N        25.6540   25.7510    6.6040 C.ar      1 NAP334      0.0000 
     38 C3N        24.3910   25.1980    6.2690 C.ar      1 NAP334      0.0000 
     39 C7N        23.4570   25.9120    5.3330 C.2       1 NAP334      0.0000 
     40 O7N        22.3150   25.5490    5.1120 O.2       1 NAP334      0.0000 
     41 N7N        24.0020   27.0110    4.7300 N.am      1 NAP334      0.0000 
     42 C4N        23.9940   23.9410    6.8310 C.ar      1 NAP334      0.0000 
     43 C5N        24.8580   23.2380    7.7230 C.ar      1 NAP334      0.0000 
     44 C6N        26.1100   23.7900    8.0520 C.ar      1 NAP334      0.0000 
     45 P2B        32.7560   37.5790    4.3150 P.3       1 NAP334      0.0000 
     46 O1X        32.5630   39.1470    4.5180 O.co2     1 NAP334      0.0000 
     47 O2X        34.2710   37.0800    4.5310 O.co2     1 NAP334      0.0000 
     48 O3X        32.3790   37.0240    2.8410 O.co2     1 NAP334      0.0000 
     49 H          29.7302   32.6452    4.5598 H         1 NAP334      0.0000 
     50 H          29.9469   31.6088    5.9807 H         1 NAP334      0.0000 
     51 H          30.2429   33.7329    7.3050 H         1 NAP334      0.0000 
     52 H          29.6002   34.8666    4.8306 H         1 NAP334      0.0000 
     53 H          31.6522   35.1274    4.0006 H         1 NAP334      0.0000 
     54 H          32.9631   34.9166    6.6298 H         1 NAP334      0.0000 
     55 H          32.8554   33.2661    3.1869 H         1 NAP334      0.0000 
     56 H          37.3536   32.8096    2.4932 H         1 NAP334      0.0000 
     57 H          38.8918   33.1450    3.3575 H         1 NAP334      0.0000 
     58 H          37.4310   35.0051    7.3632 H         1 NAP334      0.0000 
     59 H          27.5402   29.1971    9.3563 H         1 NAP334      0.0000 
     60 H          28.7035   29.6670    8.1049 H         1 NAP334      0.0000 
     61 H          29.3522   27.6395    9.2969 H         1 NAP334      0.0000 
     62 H          29.2357   28.0307    6.5579 H         1 NAP334      0.0000 
     63 H          27.9047   26.3621    5.9471 H         1 NAP334      0.0000 
     64 H          28.3483   24.7217    8.3399 H         1 NAP334      0.0000 
     65 H          25.9531   26.6215    6.2313 H         1 NAP334      0.0000 
     66 H          24.9590   27.2031    4.9476 H         1 NAP334      0.0000 
     67 H          23.3959   27.5264    4.1242 H         1 NAP334      0.0000 
     68 H          23.0849   23.5473    6.5896 H         1 NAP334      0.0000 
     69 H          24.5638   22.3475    8.1124 H         1 NAP334      0.0000 
     70 H          26.7324   23.3087    8.6819 H         1 NAP334      0.0000 
     71 H          30.4752   35.6284    7.4097 H         1 NAP334      0.0000 
     72 H          31.1685   27.0499    6.7087 H         1 NAP334      0.0000 
     73 H          29.3597   25.0180    5.2725 H         1 NAP334      0.0000 
@<TRIPOS>BOND
     1    2    1 ar   
     2    3    1 ar   
     3    4    1 1    
     4   23    1 1    
     5    5    4 1    
     6    6    5 1    
     7   49    5 1    
     8   50    5 1    
     9    7    6 1    
    10    8    6 1    
    11   51    6 1    
    12   12    7 1    
    13    9    8 1    
    14   10    8 1    
    15   52    8 1    
    16   71    9 1    
    17   11   10 1    
    18   12   10 1    
    19   53   10 1    
    20   45   11 1    
    21   13   12 1    
    22   54   12 1    
    23   14   13 1    
    24   22   13 1    
    25   15   14 2    
    26   55   14 1    
    27   16   15 1    
    28   17   16 ar   
    29   22   16 ar   
    30   18   17 1    
    31   19   17 ar   
    32   56   18 1    
    33   57   18 1    
    34   20   19 ar   
    35   21   20 ar   
    36   58   20 1    
    37   22   21 ar   
    38   24   23 1    
    39   25   24 ar   
    40   26   24 ar   
    41   27   24 1    
    42   28   27 1    
    43   29   28 1    
    44   59   28 1    
    45   60   28 1    
    46   30   29 1    
    47   31   29 1    
    48   61   29 1    
    49   35   30 1    
    50   32   31 1    
    51   33   31 1    
    52   62   31 1    
    53   72   32 1    
    54   34   33 1    
    55   35   33 1    
    56   63   33 1    
    57   73   34 1    
    58   36   35 1    
    59   64   35 1    
    60   37   36 ar   
    61   44   36 ar   
    62   38   37 ar   
    63   65   37 1    
    64   39   38 1    
    65   42   38 ar   
    66   40   39 2    
    67   41   39 am   
    68   66   41 1    
    69   67   41 1    
    70   43   42 ar   
    71   68   42 1    
    72   44   43 ar   
    73   69   43 1    
    74   70   44 1    
    75   46   45 ar   
    76   47   45 ar   
    77   48   45 ar   
@<TRIPOS>SUBSTRUCTURE
     1 NAP334      1 GROUP   
@<TRIPOS>SET

