#    Name: 1v0o_INR_2_INTS_M
#    Modification time : Tue Mar 25 07:25:02 2014

@<TRIPOS>MOLECULE
1v0o_INR_2_INTS_M
   62     0    12     0     0
SMALL
NO_CHARGES


@<TRIPOS>ATOM
      1 CA          3.2650   33.4330   25.2585 C.3       4 GLC5        0.0000 
      2 CA          3.1160   32.3540   23.6390 C.3      12 GLL5        0.0000 
      3 CA          3.4140   34.5120   26.8780 C.3       8 GLP5        0.0000 
      4 CA          4.4310   33.8180   24.6330 C.3       4 GLC5        0.0000 
      5 CA          3.9670   32.9230   22.7240 C.3      12 GLL5        0.0000 
      6 CA          4.8950   34.7130   26.5420 C.3       8 GLP5        0.0000 
      7 O           1.0770   31.9475   24.5125 O.2       1 ALC1        0.0000 
      8 O           1.9700   33.1170   23.8800 O.2       9 ALL1        0.0000 
      9 O           0.1840   30.7780   25.1450 O.2       5 ALP1        0.0000 
     10 CA          6.6920   29.5625   22.1295 C.3       4 GLC5        0.0000 
     11 CA          5.5350   31.1390   22.8700 C.3      12 GLL5        0.0000 
     12 CA          7.8490   27.9860   21.3890 C.3       8 GLP5        0.0000 
     13 CA          2.7320   34.3755   24.9980 C.3       4 GLC5        0.0000 
     14 CA          2.0500   34.2390   23.1180 C.3      12 GLL5        0.0000 
     15 CA          0.4040   36.2340   24.9285 C.3       4 GLC5        0.0000 
     16 CA          1.0450   35.2190   23.1150 C.3      12 GLL5        0.0000 
     17 CA         -0.2370   37.2490   26.7420 C.3       8 GLP5        0.0000 
     18 CA          2.1690   37.1840   23.7790 C.3       4 GLC5        0.0000 
     19 CA          0.8340   36.5150   22.3980 C.3      12 GLL5        0.0000 
     20 CA          3.5040   37.8530   25.1600 C.3       8 GLP5        0.0000 
     21 CA          0.8605   34.6060   21.3050 C.3       4 GLC5        0.0000 
     22 CA          0.8870   32.6970   20.2120 C.3       8 GLP5        0.0000 
     23 N          -1.3640   33.2090   25.1735 N.am      2 SEC2        0.0000 
     24 N          -0.5080   34.2470   24.7630 N.am     10 SEL2        0.0000 
     25 N          -2.2200   32.1710   25.5840 N.am      6 SEP2        0.0000 
     26 O          -2.2445   36.2465   24.5580 O.2       1 ALC1        0.0000 
     27 O          -0.9880   36.2200   23.7580 O.2       9 ALL1        0.0000 
     28 O          -3.5010   36.2730   25.3580 O.2       5 ALP1        0.0000 
     29 CA         -0.3050   37.1175   24.7990 C.3       4 GLC5        0.0000 
     30 CA         -0.3730   36.9860   22.8560 C.3      12 GLL5        0.0000 
     31 NZ          2.4105   41.4660   19.8505 N.4       3 LYC4        0.0000 
     32 NZ          2.9180   40.1570   20.4260 N.4      11 LYL4        0.0000 
     33 NZ          1.9030   42.7750   19.2750 N.4       7 LYP4        0.0000 
     34 N           2.4105   41.4660   19.8505 N.am      2 SEC2        0.0000 
     35 N           2.9180   40.1570   20.4260 N.am     10 SEL2        0.0000 
     36 N           1.9030   42.7750   19.2750 N.am      6 SEP2        0.0000 
     37 NZ          1.4015   41.5595   19.2300 N.4       3 LYC4        0.0000 
     38 NZ          0.9000   40.3440   19.1850 N.4      11 LYL4        0.0000 
     39 N           1.4015   41.5595   19.2300 N.am      2 SEC2        0.0000 
     40 N           0.9000   40.3440   19.1850 N.am     10 SEL2        0.0000 
     41 N           0.3060   39.7935   17.8560 N.am      2 SEC2        0.0000 
     42 N          -0.2880   39.2430   16.5270 N.am      6 SEP2        0.0000 
     43 CA          2.2142   32.6677   21.6968 C.3       4 GLC5        0.0000 
     44 CA          4.9335   32.1600   25.4383 C.3       4 GLC5        0.0000 
     45 CA          3.4950   31.1270   24.1890 C.3      12 GLL5        0.0000 
     46 CA          5.7700   33.4930   26.8770 C.3       8 GLP5        0.0000 
     47 CA          3.1360   29.2745   23.4623 C.3       4 GLC5        0.0000 
     48 CA          2.1750   27.7220   22.9250 C.3       8 GLP5        0.0000 
     49 CA          4.4972   30.9990   20.8200 C.3       4 GLC5        0.0000 
     50 CA          3.6390   30.2450   19.0460 C.3       8 GLP5        0.0000 
     51 CA          2.5257   36.2910   24.1382 C.3       4 GLC5        0.0000 
     52 CA          1.2172   33.7130   21.6642 C.3       4 GLC5        0.0000 
     53 CA         -2.6238   37.2433   22.0323 C.3       4 GLC5        0.0000 
     54 CA         -4.6020   36.8800   21.4400 C.3       8 GLP5        0.0000 
     55 CA          2.9543   38.5050   22.2467 C.3       4 GLC5        0.0000 
     56 CA          1.0210   38.5070   20.9650 C.3      12 GLL5        0.0000 
     57 CA          4.6170   39.1150   23.3010 C.3       8 GLP5        0.0000 
     58 CA         -1.8171   38.9526   23.3559 C.3       4 GLC5        0.0000 
     59 CA         -0.2090   38.9620   21.4490 C.3      12 GLL5        0.0000 
     60 CA         -3.2070   39.6210   24.6750 C.3       8 GLP5        0.0000 
     61 CA         -0.2764   37.6803   19.6624 C.3       4 GLC5        0.0000 
     62 CA         -1.0940   36.9320   18.0040 C.3       8 GLP5        0.0000 
@<TRIPOS>BOND
@<TRIPOS>SUBSTRUCTURE
     1 ALC1        7 GROUP        1 X    ALC  0     ROOT ALC X 1
     2 SEC2       23 GROUP        1 X    SEC  0     **** SEC X 2
     3 LYC4       31 GROUP        1 X    LYC  0     **** LYC X 4
     4 GLC5        1 GROUP        1 X    GLC  0     **** GLC X 6
     5 ALP1        9 GROUP        1 Y    ALP  0     ROOT ALP Y 8
     6 SEP2       25 GROUP        1 Y    SEP  0     **** SEP Y 9
     7 LYP4       33 GROUP        1 Y    LYP  0     **** LYP Y 11
     8 GLP5        3 GROUP        1 Y    GLP  0     **** GLP Y 13
     9 ALL1        8 GROUP        1 Z    ALL  0     ROOT ALL Z 15
    10 SEL2       24 GROUP        1 Z    SEL  0     **** SEL Z 16
    11 LYL4       32 GROUP        1 Z    LYL  0     **** LYL Z 18
    12 GLL5        2 GROUP        1 Z    GLL  0     **** GLL Z 20
@<TRIPOS>SET

