#    Name: 1v0o_INR_2_ligand
#    Modification time : Tue Mar 25 07:25:02 2014

@<TRIPOS>MOLECULE
1v0o_INR_2_ligand
   33    36     1     0     0
SMALL
NO_CHARGES


@<TRIPOS>ATOM
      1 C1          3.1160   32.3540   23.6390 C.ar      1 INR2638     0.0000 
      2 C2          3.9670   32.9230   22.7240 C.ar      1 INR2638     0.0000 
      3 C6          3.4950   31.1270   24.1890 C.ar      1 INR2638     0.0000 
      4 N7          1.9700   33.1170   23.8800 N.pl3     1 INR2638     0.0000 
      5 C3          5.1760   32.3670   22.3180 C.ar      1 INR2638     0.0000 
      6 C8          3.3220   34.1970   22.3410 C.2       1 INR2638     0.0000 
      7 C4          5.5350   31.1390   22.8700 C.ar      1 INR2638     0.0000 
      8 C5          4.6990   30.5270   23.8100 C.ar      1 INR2638     0.0000 
      9 O10         3.7510   35.0500   21.4890 O.2       1 INR2638     0.0000 
     10 C9          2.0500   34.2390   23.1180 C.2       1 INR2638     0.0000 
     11 C11         1.0450   35.2190   23.1150 C.2       1 INR2638     0.0000 
     12 C12        -0.1910   35.1560   23.9360 C.2       1 INR2638     0.0000 
     13 C15         0.8340   36.5150   22.3980 C.ar      1 INR2638     0.0000 
     14 O13        -0.5080   34.2470   24.7630 O.2       1 INR2638     0.0000 
     15 N14        -0.9880   36.2200   23.7580 N.am      1 INR2638     0.0000 
     16 C16        -0.3730   36.9860   22.8560 C.ar      1 INR2638     0.0000 
     17 C20         1.5620   37.2830   21.4200 C.ar      1 INR2638     0.0000 
     18 C19         1.0210   38.5070   20.9650 C.ar      1 INR2638     0.0000 
     19 C18        -0.2090   38.9620   21.4490 C.ar      1 INR2638     0.0000 
     20 S21         1.8010   39.3800   19.8560 S.o2      1 INR2638     0.0000 
     21 C17        -0.9180   38.2270   22.3930 C.ar      1 INR2638     0.0000 
     22 O24         2.9180   40.1570   20.4260 O.co2     1 INR2638     0.0000 
     23 O23         0.9000   40.3440   19.1850 O.co2     1 INR2638     0.0000 
     24 O22         2.3010   38.4190   18.8660 O.co2     1 INR2638     0.0000 
     25 H           2.8861   30.6634   24.8752 H         1 INR2638     0.0000 
     26 H           1.2707   32.8738   24.4765 H         1 INR2638     0.0000 
     27 H           5.7709   32.8344   21.6494 H         1 INR2638     0.0000 
     28 H           6.4095   30.6829   22.5895 H         1 INR2638     0.0000 
     29 H           4.9739   29.6258   24.2263 H         1 INR2638     0.0000 
     30 H          -1.8214   36.3894   24.1895 H         1 INR2638     0.0000 
     31 H           2.4460   36.9407   21.0719 H         1 INR2638     0.0000 
     32 H          -0.5929   39.8545   21.0996 H         1 INR2638     0.0000 
     33 H          -1.8072   38.5479   22.7590 H         1 INR2638     0.0000 
@<TRIPOS>BOND
     1    2    1 ar   
     2    3    1 ar   
     3    4    1 1    
     4    5    2 ar   
     5    6    2 1    
     6    8    3 ar   
     7   25    3 1    
     8   10    4 1    
     9   26    4 1    
    10    7    5 ar   
    11   27    5 1    
    12    9    6 2    
    13   10    6 1    
    14    8    7 ar   
    15   28    7 1    
    16   29    8 1    
    17   11   10 2    
    18   12   11 1    
    19   13   11 1    
    20   14   12 2    
    21   15   12 am   
    22   16   13 ar   
    23   17   13 ar   
    24   16   15 1    
    25   30   15 1    
    26   21   16 ar   
    27   18   17 ar   
    28   31   17 1    
    29   19   18 ar   
    30   20   18 1    
    31   21   19 ar   
    32   32   19 1    
    33   22   20 ar   
    34   23   20 ar   
    35   24   20 ar   
    36   33   21 1    
@<TRIPOS>SUBSTRUCTURE
     1 INR2638     1 GROUP   
@<TRIPOS>SET

