#    Name: 2zb8_IMN_1_INTS_M
#    Modification time : Tue Mar 25 10:29:48 2014

@<TRIPOS>MOLECULE
2zb8_IMN_1_INTS_M
   46     0     6     0     0
SMALL
NO_CHARGES


@<TRIPOS>ATOM
      1 CA        -44.8075   38.2035   44.8040 C.3       2 GLC5        0.0000 
      2 CA        -45.4690   39.5110   45.0710 C.3       6 GLL5        0.0000 
      3 CA        -44.1460   36.8960   44.5370 C.3       4 GLP5        0.0000 
      4 CA        -46.4500   37.9885   44.8725 C.3       2 GLC5        0.0000 
      5 CA        -47.4310   36.4660   44.6740 C.3       4 GLP5        0.0000 
      6 CA        -38.6815   47.1580   44.0955 C.3       2 GLC5        0.0000 
      7 CA        -40.6080   46.5170   43.9210 C.3       6 GLL5        0.0000 
      8 CA        -36.7550   47.7990   44.2700 C.3       4 GLP5        0.0000 
      9 CA        -40.3930   48.3950   43.5915 C.3       2 GLC5        0.0000 
     10 CA        -40.1780   50.2730   43.2620 C.3       4 GLP5        0.0000 
     11 CA        -40.0920   47.1385   45.3185 C.3       2 GLC5        0.0000 
     12 CA        -39.5760   47.7600   46.7160 C.3       4 GLP5        0.0000 
     13 CA        -41.7700   46.4205   46.7245 C.3       2 GLC5        0.0000 
     14 CA        -42.6810   45.0860   45.9690 C.3       6 GLL5        0.0000 
     15 CA        -40.8590   47.7550   47.4800 C.3       4 GLP5        0.0000 
     16 N         -40.8115   43.6720   48.6880 N.am      1 SEC2        0.0000 
     17 N         -40.9450   43.9180   47.3230 N.am      5 SEL2        0.0000 
     18 N         -40.6780   43.4260   50.0530 N.am      3 SEP2        0.0000 
     19 N         -41.8495   43.8360   49.1230 N.am      1 SEC2        0.0000 
     20 N         -43.0210   44.2460   48.1930 N.am      5 SEL2        0.0000 
     21 CA        -40.9220   40.1515   36.8470 C.3       2 GLC5        0.0000 
     22 CA        -39.5670   41.5990   37.1130 C.3       6 GLL5        0.0000 
     23 CA        -42.2770   38.7040   36.5810 C.3       4 GLP5        0.0000 
     24 CA        -37.9545   42.8450   36.7550 C.3       2 GLC5        0.0000 
     25 CA        -36.3420   44.0910   36.3970 C.3       4 GLP5        0.0000 
     26 CA        -39.4805   40.8635   35.8190 C.3       2 GLC5        0.0000 
     27 CA        -39.3940   40.1280   34.5250 C.3       4 GLP5        0.0000 
     28 CA        -42.0810   41.4580   45.0705 C.3       2 GLC5        0.0000 
     29 CA        -43.5480   42.5070   44.8500 C.3       6 GLL5        0.0000 
     30 CA        -40.4130   41.0070   45.5490 C.3       4 GLP5        0.0000 
     31 CA        -43.9057   38.9955   44.0892 C.3       2 GLC5        0.0000 
     32 CA        -43.9500   41.3110   44.3340 C.3       6 GLL5        0.0000 
     33 CA        -41.6572   41.1690   44.0735 C.3       2 GLC5        0.0000 
     34 CA        -43.3810   40.8790   42.9490 C.3       6 GLL5        0.0000 
     35 CA        -41.3255   42.4876   44.8344 C.3       2 GLC5        0.0000 
     36 CA        -42.0040   43.1290   42.8960 C.3       6 GLL5        0.0000 
     37 CA        -42.9177   46.4778   43.8380 C.3       2 GLC5        0.0000 
     38 CA        -41.2910   45.2060   43.7770 C.3       6 GLL5        0.0000 
     39 CA        -44.8860   47.0940   43.8270 C.3       4 GLP5        0.0000 
     40 CA        -41.7677   45.1119   39.0389 C.3       2 GLC5        0.0000 
     41 CA        -40.0650   43.8650   40.3070 C.3       6 GLL5        0.0000 
     42 CA        -42.6870   46.9070   39.0540 C.3       4 GLP5        0.0000 
     43 CA        -37.6412   43.4315   37.8240 C.3       2 GLC5        0.0000 
     44 CA        -39.7330   42.2440   38.0020 C.3       6 GLL5        0.0000 
     45 CA        -43.7113   45.8286   44.5176 C.3       2 GLC5        0.0000 
     46 CA        -42.6200   43.4180   44.2070 C.3       6 GLL5        0.0000 
@<TRIPOS>BOND
@<TRIPOS>SUBSTRUCTURE
     1 SEC2       16 GROUP        1 X    SEC  0     ROOT SEC X 2
     2 GLC5        1 GROUP        1 X    GLC  0     **** GLC X 6
     3 SEP2       18 GROUP        1 Y    SEP  0     ROOT SEP Y 9
     4 GLP5        3 GROUP        1 Y    GLP  0     **** GLP Y 13
     5 SEL2       17 GROUP        1 Z    SEL  0     ROOT SEL Z 16
     6 GLL5        2 GROUP        1 Z    GLL  0     **** GLL Z 20
@<TRIPOS>SET

