#    Name: 2zb8_IMN_1_ligand
#    Modification time : Tue Mar 25 10:29:48 2014

@<TRIPOS>MOLECULE
2zb8_IMN_1_ligand
   40    42     1     0     0
SMALL
NO_CHARGES


@<TRIPOS>ATOM
      1 C         -42.0040   43.1290   42.8960 C.ar      1 IMN800      0.0000 
      2 C1        -42.6200   43.4180   44.2070 C.ar      1 IMN800      0.0000 
      3 C2        -43.5480   42.5070   44.8500 C.ar      1 IMN800      0.0000 
      4 C3        -43.9500   41.3110   44.3340 C.ar      1 IMN800      0.0000 
      5 C4        -43.3810   40.8790   42.9490 C.ar      1 IMN800      0.0000 
      6 C5        -42.4220   41.7830   42.2470 C.ar      1 IMN800      0.0000 
      7 C6        -45.4690   39.5110   45.0710 C.3       1 IMN800      0.0000 
      8 C7        -42.1640   44.6630   44.6880 C.2       1 IMN800      0.0000 
      9 C8        -41.2910   45.2060   43.7770 C.2       1 IMN800      0.0000 
     10 C9        -40.2240   44.6800   41.4780 C.2       1 IMN800      0.0000 
     11 C10       -40.0650   43.8650   40.3070 C.ar      1 IMN800      0.0000 
     12 C11       -41.2270   43.6800   39.3680 C.ar      1 IMN800      0.0000 
     13 C12       -41.0510   42.8610   38.2100 C.ar      1 IMN800      0.0000 
     14 C13       -39.7330   42.2440   38.0020 C.ar      1 IMN800      0.0000 
     15 C14       -38.5790   42.4100   38.8940 C.ar      1 IMN800      0.0000 
     16 C15       -38.7250   43.2170   40.0540 C.ar      1 IMN800      0.0000 
     17 C16       -40.6080   46.5170   43.9210 C.3       1 IMN800      0.0000 
     18 C17       -42.6810   45.0860   45.9690 C.3       1 IMN800      0.0000 
     19 C18       -42.0910   44.3630   47.1940 C.2       1 IMN800      0.0000 
     20 N         -41.1200   44.3320   42.6240 N.am      1 IMN800      0.0000 
     21 O         -44.8600   40.7490   45.2980 O.3       1 IMN800      0.0000 
     22 O1        -39.5460   45.7340   41.4390 O.2       1 IMN800      0.0000 
     23 O2        -40.9450   43.9180   47.3230 O.co2     1 IMN800      0.0000 
     24 O3        -43.0210   44.2460   48.1930 O.co2     1 IMN800      0.0000 
     25 CL        -39.5670   41.5990   37.1130 Cl        1 IMN800      0.0000 
     26 H         -43.9212   42.8258   45.7878 H         1 IMN800      0.0000 
     27 H         -43.6648   40.0255   42.5706 H         1 IMN800      0.0000 
     28 H         -42.0401   41.5472   41.3697 H         1 IMN800      0.0000 
     29 H         -42.0860   44.1332   39.5795 H         1 IMN800      0.0000 
     30 H         -41.7817   42.7026   37.5574 H         1 IMN800      0.0000 
     31 H         -37.7160   41.9549   38.6706 H         1 IMN800      0.0000 
     32 H         -37.9935   43.3752   40.7031 H         1 IMN800      0.0000 
     33 H         -43.7900   44.9546   46.0129 H         1 IMN800      0.0000 
     34 H         -42.5153   46.1806   46.1225 H         1 IMN800      0.0000 
     35 H         -44.7953   38.7797   44.9645 H         1 IMN800      0.0000 
     36 H         -46.0696   39.2485   45.8262 H         1 IMN800      0.0000 
     37 H         -46.0273   39.5183   44.2414 H         1 IMN800      0.0000 
     38 H         -40.0347   46.5492   44.7397 H         1 IMN800      0.0000 
     39 H         -40.0153   46.7147   43.1402 H         1 IMN800      0.0000 
     40 H         -41.2616   47.2706   43.9911 H         1 IMN800      0.0000 
@<TRIPOS>BOND
     1    2    1 ar   
     2    6    1 ar   
     3   20    1 1    
     4    3    2 ar   
     5    8    2 1    
     6    4    3 ar   
     7   26    3 1    
     8    5    4 ar   
     9   21    4 1    
    10    6    5 ar   
    11   27    5 1    
    12   28    6 1    
    13   21    7 1    
    14   35    7 1    
    15   36    7 1    
    16   37    7 1    
    17    9    8 2    
    18   18    8 1    
    19   17    9 1    
    20   20    9 1    
    21   11   10 1    
    22   20   10 am   
    23   22   10 2    
    24   12   11 ar   
    25   16   11 ar   
    26   13   12 ar   
    27   29   12 1    
    28   14   13 ar   
    29   30   13 1    
    30   15   14 ar   
    31   25   14 1    
    32   16   15 ar   
    33   31   15 1    
    34   32   16 1    
    35   38   17 1    
    36   39   17 1    
    37   40   17 1    
    38   19   18 1    
    39   33   18 1    
    40   34   18 1    
    41   23   19 ar   
    42   24   19 ar   
@<TRIPOS>SUBSTRUCTURE
     1 IMN800      1 GROUP   
@<TRIPOS>SET

