#    Name: 1tkc_M6T_2_INTS_M
#    Modification time : Tue Mar 25 05:26:36 2014

@<TRIPOS>MOLECULE
1tkc_M6T_2_INTS_M
   66     0     9     0     0
SMALL
NO_CHARGES


@<TRIPOS>ATOM
      1 CA         15.3000   73.1230   24.6050 C.3       3 GLC5        0.0000 
      2 CA         14.1080   72.4930   25.9600 C.3       9 GLL5        0.0000 
      3 CA         16.4920   73.7530   23.2500 C.3       6 GLP5        0.0000 
      4 CA         12.4115   72.1175   27.4580 C.3       3 GLC5        0.0000 
      5 CA         12.7840   72.0390   25.5560 C.3       9 GLL5        0.0000 
      6 CA         12.0390   72.1960   29.3600 C.3       6 GLP5        0.0000 
      7 CA         11.3865   71.4335   25.0785 C.3       3 GLC5        0.0000 
      8 CA          9.9890   70.8280   24.6010 C.3       6 GLP5        0.0000 
      9 CA         13.4695   73.0705   23.9615 C.3       3 GLC5        0.0000 
     10 CA         14.1550   74.1020   22.3670 C.3       6 GLP5        0.0000 
     11 N          13.4965   74.3960   25.0765 N.am      2 SEC2        0.0000 
     12 N          14.3520   73.7740   26.1160 N.am      8 SEL2        0.0000 
     13 N          12.6410   75.0180   24.0370 N.am      5 SEP2        0.0000 
     14 CA         13.6485   75.0695   26.3120 C.3       3 GLC5        0.0000 
     15 CA         15.5620   74.1510   26.5880 C.3       9 GLL5        0.0000 
     16 CA         11.7350   75.9880   26.0360 C.3       6 GLP5        0.0000 
     17 O          14.8795   76.5625   26.1685 O.2       1 ALC1        0.0000 
     18 O          15.7090   75.4430   26.7570 O.2       7 ALL1        0.0000 
     19 O          14.0500   77.6820   25.5800 O.2       4 ALP1        0.0000 
     20 CA         19.6825   72.4570   28.1280 C.3       3 GLC5        0.0000 
     21 CA         17.9580   73.5270   27.4090 C.3       9 GLL5        0.0000 
     22 CA         21.4070   71.3870   28.8470 C.3       6 GLP5        0.0000 
     23 CA         18.2480   73.5100   29.3125 C.3       3 GLC5        0.0000 
     24 CA         18.5380   73.4930   31.2160 C.3       6 GLP5        0.0000 
     25 CA         16.2265   73.3615   28.7070 C.3       3 GLC5        0.0000 
     26 CA         14.4950   73.1960   30.0050 C.3       6 GLP5        0.0000 
     27 CA         17.2250   73.6400   25.3295 C.3       3 GLC5        0.0000 
     28 CA         19.5585   78.1895   24.5750 C.3       3 GLC5        0.0000 
     29 CA         19.7080   76.2030   25.0800 C.3       9 GLL5        0.0000 
     30 CA         19.4090   80.1760   24.0700 C.3       6 GLP5        0.0000 
     31 CA         20.4930   70.5525   24.6275 C.3       3 GLC5        0.0000 
     32 CA         19.6680   72.2000   25.4850 C.3       9 GLL5        0.0000 
     33 CA         21.3180   68.9050   23.7700 C.3       6 GLP5        0.0000 
     34 CA         20.5375   71.7935   27.1660 C.3       3 GLC5        0.0000 
     35 CA         19.2535   71.2765   23.8070 C.3       3 GLC5        0.0000 
     36 CA         18.8390   70.3530   22.1290 C.3       6 GLP5        0.0000 
     37 CA         18.4415   70.2280   28.4950 C.3       3 GLC5        0.0000 
     38 CA         17.0940   70.7520   27.2610 C.3       9 GLL5        0.0000 
     39 CA         19.7890   69.7040   29.7290 C.3       6 GLP5        0.0000 
     40 CA         15.7130   71.2920   28.5770 C.3       3 GLC5        0.0000 
     41 CA         14.3320   71.8320   29.8930 C.3       6 GLP5        0.0000 
     42 CA         22.3470   73.9620   24.4120 C.3       3 GLC5        0.0000 
     43 CA         20.8260   74.2850   23.3720 C.3       9 GLL5        0.0000 
     44 CA         23.8680   73.6390   25.4520 C.3       6 GLP5        0.0000 
     45 N          19.0180   74.9895   18.9280 N.am      2 SEC2        0.0000 
     46 N          19.5160   76.2680   19.7920 N.am      8 SEL2        0.0000 
     47 N          18.5200   73.7110   18.0640 N.am      5 SEP2        0.0000 
     48 N          21.7255   79.7405   21.4330 N.am      2 SEC2        0.0000 
     49 N          22.6480   79.6430   20.3820 N.am      8 SEL2        0.0000 
     50 N          20.8030   79.8380   22.4840 N.am      5 SEP2        0.0000 
     51 N          23.8435   78.8230   17.6270 N.am      2 SEC2        0.0000 
     52 N          22.9280   78.1120   18.3770 N.am      8 SEL2        0.0000 
     53 N          24.7590   79.5340   16.8770 N.am      5 SEP2        0.0000 
     54 N          24.3665   77.6255   21.5910 N.am      2 SEC2        0.0000 
     55 N          24.1200   77.7050   20.3560 N.am      8 SEL2        0.0000 
     56 N          24.6130   77.5460   22.8260 N.am      5 SEP2        0.0000 
     57 CA         12.5905   74.1270   25.8970 C.3       3 GLC5        0.0000 
     58 CA         16.3182   73.2605   24.9979 C.3       3 GLC5        0.0000 
     59 CA         17.8720   74.8375   24.4885 C.3       3 GLC5        0.0000 
     60 CA         18.7960   75.6410   26.3740 C.3       9 GLL5        0.0000 
     61 CA         18.0922   73.4606   24.2484 C.3       3 GLC5        0.0000 
     62 CA         19.9660   74.5800   24.5510 C.3       9 GLL5        0.0000 
     63 CA         21.3922   73.4591   26.0094 C.3       3 GLC5        0.0000 
     64 CA         19.4680   73.6930   25.4660 C.3       9 GLL5        0.0000 
     65 CA         23.0920   73.7500   26.7720 C.3       6 GLP5        0.0000 
     66 CA         18.5448   74.2465   23.0512 C.3       3 GLC5        0.0000 
@<TRIPOS>BOND
@<TRIPOS>SUBSTRUCTURE
     1 ALC1       17 GROUP        1 X    ALC  0     ROOT ALC X 1
     2 SEC2       11 GROUP        1 X    SEC  0     **** SEC X 2
     3 GLC5        1 GROUP        1 X    GLC  0     **** GLC X 6
     4 ALP1       19 GROUP        1 Y    ALP  0     ROOT ALP Y 8
     5 SEP2       13 GROUP        1 Y    SEP  0     **** SEP Y 9
     6 GLP5        3 GROUP        1 Y    GLP  0     **** GLP Y 13
     7 ALL1       18 GROUP        1 Z    ALL  0     ROOT ALL Z 15
     8 SEL2       12 GROUP        1 Z    SEL  0     **** SEL Z 16
     9 GLL5        2 GROUP        1 Z    GLL  0     **** GLL Z 20
@<TRIPOS>SET

