#    Name: 1tkc_M6T_2_ligand
#    Modification time : Tue Mar 25 05:26:36 2014

@<TRIPOS>MOLECULE
1tkc_M6T_2_ligand
   45    46     1     0     0
SMALL
NO_CHARGES


@<TRIPOS>ATOM
      1 N1'        14.9710   71.5430   26.3370 N.ar      1 M6T681      0.0000 
      2 C2'        14.1080   72.4930   25.9600 C.ar      1 M6T681      0.0000 
      3 CM2        12.7840   72.0390   25.5560 C.3       1 M6T681      0.0000 
      4 N3'        14.3520   73.7740   26.1160 N.ar      1 M6T681      0.0000 
      5 C4'        15.5620   74.1510   26.5880 C.ar      1 M6T681      0.0000 
      6 N4'        15.7090   75.4430   26.7570 N.pl3     1 M6T681      0.0000 
      7 C5'        16.5920   73.1750   26.8550 C.ar      1 M6T681      0.0000 
      8 C6'        16.2120   71.8730   26.7700 C.ar      1 M6T681      0.0000 
      9 C7'        17.9580   73.5270   27.4090 C.3       1 M6T681      0.0000 
     10 N3         18.7220   74.2990   26.3880 N.pl3     1 M6T681      0.0000 
     11 C2         18.7960   75.6410   26.3740 C.2       1 M6T681      0.0000 
     12 S1         19.7080   76.2030   25.0800 S.3       1 M6T681      0.0000 
     13 C5         19.9660   74.5800   24.5510 C.2       1 M6T681      0.0000 
     14 C4         19.4680   73.6930   25.4660 C.2       1 M6T681      0.0000 
     15 CM4        19.6680   72.2000   25.4850 C.3       1 M6T681      0.0000 
     16 CM6        17.0940   70.7520   27.2610 C.3       1 M6T681      0.0000 
     17 C6         20.8260   74.2850   23.3720 C.3       1 M6T681      0.0000 
     18 C7         20.3690   75.1950   22.3330 C.3       1 M6T681      0.0000 
     19 O7         21.2650   75.0290   21.2430 O.3       1 M6T681      0.0000 
     20 PA         20.9620   76.0150   20.0460 P.3       1 M6T681      0.0000 
     21 O1A        19.5160   76.2680   19.7920 O.co2     1 M6T681      0.0000 
     22 O2A        21.7080   75.4670   18.8700 O.co2     1 M6T681      0.0000 
     23 O3A        21.6930   77.4460   20.3720 O.3       1 M6T681      0.0000 
     24 PB         22.9140   78.3190   19.8540 P.3       1 M6T681      0.0000 
     25 O1B        22.6480   79.6430   20.3820 O.co2     1 M6T681      0.0000 
     26 O2B        22.9280   78.1120   18.3770 O.co2     1 M6T681      0.0000 
     27 O3B        24.1200   77.7050   20.3560 O.co2     1 M6T681      0.0000 
     28 H          16.3510   75.7232   27.4707 H         1 M6T681      0.0000 
     29 H          15.1657   76.0299   26.1567 H         1 M6T681      0.0000 
     30 H          18.4882   72.6101   27.6586 H         1 M6T681      0.0000 
     31 H          17.8338   74.1217   28.3118 H         1 M6T681      0.0000 
     32 H          18.4523   76.3207   26.9242 H         1 M6T681      0.0000 
     33 H          20.6893   73.2582   23.0731 H         1 M6T681      0.0000 
     34 H          21.8580   74.4718   23.6219 H         1 M6T681      0.0000 
     35 H          20.3869   76.2191   22.7053 H         1 M6T681      0.0000 
     36 H          19.3481   74.9442   22.0456 H         1 M6T681      0.0000 
     37 H          12.8275   71.4141   24.7765 H         1 M6T681      0.0000 
     38 H          12.3163   71.5538   26.2948 H         1 M6T681      0.0000 
     39 H          12.1956   72.8018   25.2877 H         1 M6T681      0.0000 
     40 H          20.2520   71.8939   24.7332 H         1 M6T681      0.0000 
     41 H          20.0986   71.8937   26.3340 H         1 M6T681      0.0000 
     42 H          18.8013   71.7081   25.4019 H         1 M6T681      0.0000 
     43 H          17.9864   71.0869   27.5636 H         1 M6T681      0.0000 
     44 H          16.6844   70.2689   28.0349 H         1 M6T681      0.0000 
     45 H          17.2627   70.0723   26.5472 H         1 M6T681      0.0000 
@<TRIPOS>BOND
     1    2    1 ar   
     2    8    1 ar   
     3    3    2 1    
     4    4    2 ar   
     5   37    3 1    
     6   38    3 1    
     7   39    3 1    
     8    5    4 ar   
     9    6    5 1    
    10    7    5 ar   
    11   28    6 1    
    12   29    6 1    
    13    8    7 ar   
    14    9    7 1    
    15   16    8 1    
    16   10    9 1    
    17   30    9 1    
    18   31    9 1    
    19   11   10 2    
    20   14   10 1    
    21   12   11 1    
    22   32   11 1    
    23   13   12 1    
    24   14   13 2    
    25   17   13 1    
    26   15   14 1    
    27   40   15 1    
    28   41   15 1    
    29   42   15 1    
    30   43   16 1    
    31   44   16 1    
    32   45   16 1    
    33   18   17 1    
    34   33   17 1    
    35   34   17 1    
    36   19   18 1    
    37   35   18 1    
    38   36   18 1    
    39   20   19 1    
    40   21   20 ar   
    41   22   20 ar   
    42   23   20 1    
    43   24   23 1    
    44   25   24 ar   
    45   26   24 ar   
    46   27   24 ar   
@<TRIPOS>SUBSTRUCTURE
     1 M6T681      1 GROUP   
@<TRIPOS>SET

