#    Name: 3ju8_NAD_1_INTS_M
#    Modification time : Tue Mar 25 17:56:02 2014

@<TRIPOS>MOLECULE
3ju8_NAD_1_INTS_M
   96     0     9     0     0
SMALL
NO_CHARGES


@<TRIPOS>ATOM
      1 N          11.3880   29.6010   61.2525 N.am      2 SEC2        0.0000 
      2 N          12.1360   30.7880   60.9940 N.am      8 SEL2        0.0000 
      3 N          10.6400   28.4140   61.5110 N.am      5 SEP2        0.0000 
      4 N          10.7940   30.8355   61.7970 N.am      2 SEC2        0.0000 
      5 N           9.4520   30.8830   62.6000 N.am      5 SEP2        0.0000 
      6 N          11.2210   32.0790   60.9065 N.am      2 SEC2        0.0000 
      7 N          10.3060   33.3700   60.8190 N.am      5 SEP2        0.0000 
      8 CA         16.3005   28.1480   59.8415 C.3       3 GLC5        0.0000 
      9 CA         14.9770   29.6480   59.3830 C.3       9 GLL5        0.0000 
     10 CA         17.6240   26.6480   60.3000 C.3       6 GLP5        0.0000 
     11 CA         13.6295   28.4080   59.7955 C.3       3 GLC5        0.0000 
     12 CA         12.2820   27.1680   60.2080 C.3       6 GLP5        0.0000 
     13 CA         18.6350   31.0780   58.8210 C.3       3 GLC5        0.0000 
     14 CA         16.8140   31.2690   57.9010 C.3       9 GLL5        0.0000 
     15 CA         20.4560   30.8870   59.7410 C.3       6 GLP5        0.0000 
     16 O          17.9290   29.7680   57.7185 O.2       1 ALC1        0.0000 
     17 O          17.9080   30.9080   57.0900 O.2       7 ALL1        0.0000 
     18 O          17.9500   28.6280   58.3470 O.2       4 ALP1        0.0000 
     19 N          18.5395   34.0895   57.9265 N.am      2 SEC2        0.0000 
     20 N          17.3560   33.7050   58.4690 N.am      8 SEL2        0.0000 
     21 N          19.7230   34.4740   57.3840 N.am      5 SEP2        0.0000 
     22 O          18.2200   34.1145   59.4940 O.2       1 ALC1        0.0000 
     23 O          17.3560   33.7050   58.4690 O.2       7 ALL1        0.0000 
     24 O          19.0840   34.5240   60.5190 O.2       4 ALP1        0.0000 
     25 CA         13.4980   31.4090   57.3810 C.3       3 GLC5        0.0000 
     26 CA         15.0210   32.8240   57.7480 C.3       9 GLL5        0.0000 
     27 CA         11.9750   29.9940   57.0140 C.3       6 GLP5        0.0000 
     28 CA         12.8370   33.0120   58.0785 C.3       3 GLC5        0.0000 
     29 CA         10.6530   33.2000   58.4090 C.3       6 GLP5        0.0000 
     30 CA         12.8795   38.2380   55.3855 C.3       3 GLC5        0.0000 
     31 CA         12.5790   36.0870   55.6440 C.3       9 GLL5        0.0000 
     32 CA         13.1800   40.3890   55.1270 C.3       6 GLP5        0.0000 
     33 CA         11.6160   34.6435   57.0265 C.3       3 GLC5        0.0000 
     34 CA         11.2050   35.0335   54.2220 C.3       3 GLC5        0.0000 
     35 CA          9.8310   33.9800   52.8000 C.3       6 GLP5        0.0000 
     36 CA         15.1910   27.9055   65.2700 C.3       3 GLC5        0.0000 
     37 CA         13.5790   27.1540   64.4230 C.3       9 GLL5        0.0000 
     38 CA         16.8030   28.6570   66.1170 C.3       6 GLP5        0.0000 
     39 CA         14.1630   25.7890   65.9190 C.3       3 GLC5        0.0000 
     40 CA         14.7470   24.4240   67.4150 C.3       6 GLP5        0.0000 
     41 CA         13.2550   24.8570   65.3105 C.3       3 GLC5        0.0000 
     42 CA         12.5980   26.1970   63.8340 C.3       9 GLL5        0.0000 
     43 CA         13.9120   23.5170   66.7870 C.3       6 GLP5        0.0000 
     44 O           9.2735   26.2370   65.6705 O.2       1 ALC1        0.0000 
     45 O          10.1670   26.6200   64.8350 O.2       7 ALL1        0.0000 
     46 O           8.3800   25.8540   66.5060 O.2       4 ALP1        0.0000 
     47 O           9.4865   23.5255   65.6455 O.2       1 ALC1        0.0000 
     48 O          10.3260   23.4090   64.7360 O.2       7 ALL1        0.0000 
     49 O           8.6470   23.6420   66.5550 O.2       4 ALP1        0.0000 
     50 CA         12.1480   25.6390   61.5750 C.3       3 GLC5        0.0000 
     51 CA         12.0140   24.1100   62.9420 C.3       9 GLL5        0.0000 
     52 CA          9.6175   23.3555   60.5855 C.3       3 GLC5        0.0000 
     53 CA         11.3190   22.4250   61.2680 C.3       9 GLL5        0.0000 
     54 CA          7.9160   24.2860   59.9030 C.3       6 GLP5        0.0000 
     55 CA          9.5320   22.8975   62.4155 C.3       3 GLC5        0.0000 
     56 CA          7.7450   23.3700   63.5630 C.3       6 GLP5        0.0000 
     57 CA         11.2320   21.3190   62.5785 C.3       3 GLC5        0.0000 
     58 CA         11.1450   20.2130   63.8890 C.3       6 GLP5        0.0000 
     59 CA         10.9510   21.4545   58.5910 C.3       3 GLC5        0.0000 
     60 CA         11.6150   21.1470   60.7080 C.3       9 GLL5        0.0000 
     61 CA         10.2870   21.7620   56.4740 C.3       6 GLP5        0.0000 
     62 O           8.8025   21.3770   60.3300 O.2       1 ALC1        0.0000 
     63 O           9.4410   20.4940   59.4990 O.2       7 ALL1        0.0000 
     64 O           8.1640   22.2600   61.1610 O.2       4 ALP1        0.0000 
     65 O           8.2565   20.1200   58.3775 O.2       1 ALC1        0.0000 
     66 O           7.0720   19.7460   57.2560 O.2       4 ALP1        0.0000 
     67 CA         12.1685   21.1185   63.3345 C.3       3 GLC5        0.0000 
     68 CA         13.1920   22.0240   62.7800 C.3       9 GLL5        0.0000 
     69 CA         13.5940   30.0512   57.9135 C.3       3 GLC5        0.0000 
     70 CA         15.8247   30.3500   56.1275 C.3       3 GLC5        0.0000 
     71 CA         15.4490   30.5690   58.2430 C.3       9 GLL5        0.0000 
     72 CA         15.5180   29.7810   54.1830 C.3       6 GLP5        0.0000 
     73 CA         15.6442   32.5213   55.9865 C.3       3 GLC5        0.0000 
     74 CA         15.5460   32.2840   53.9840 C.3       6 GLP5        0.0000 
     75 CA         13.8552   37.8558   58.9917 C.3       3 GLC5        0.0000 
     76 CA         13.0930   35.8270   58.3120 C.3       9 GLL5        0.0000 
     77 CA         15.0130   39.3690   59.8940 C.3       6 GLP5        0.0000 
     78 CA         11.9069   34.4181   58.0829 C.3       3 GLC5        0.0000 
     79 CA         13.6240   34.9300   57.4240 C.3       9 GLL5        0.0000 
     80 CA         12.6852   26.9217   62.1683 C.3       3 GLC5        0.0000 
     81 CA         10.6820   27.2452   63.2420 C.3       3 GLC5        0.0000 
     82 CA          9.4540   28.4890   62.3540 C.3       6 GLP5        0.0000 
     83 CA         11.3675   22.2182   63.7253 C.3       3 GLC5        0.0000 
     84 CA         11.1660   24.3370   64.1810 C.3       9 GLL5        0.0000 
     85 CA          9.6745   23.9804   63.5929 C.3       3 GLC5        0.0000 
     86 CA         12.0880   24.0184   65.3764 C.3       3 GLC5        0.0000 
     87 CA         12.5720   23.4460   67.1300 C.3       6 GLP5        0.0000 
     88 CA         12.5625   22.4670   59.8220 C.3       3 GLC5        0.0000 
     89 CA         13.6580   23.1480   58.6560 C.3       6 GLP5        0.0000 
     90 CA         12.2071   19.8060   62.2647 C.3       3 GLC5        0.0000 
     91 CA         11.6050   18.8240   62.9420 C.3       6 GLP5        0.0000 
     92 CA         14.7006   20.9557   61.2860 C.3       3 GLC5        0.0000 
     93 CA         12.6840   20.3830   61.1820 C.3       9 GLL5        0.0000 
     94 CA         16.2670   20.6010   60.3290 C.3       6 GLP5        0.0000 
     95 CA         13.3961   22.2293   60.4495 C.3       3 GLC5        0.0000 
     96 CA         13.4690   20.8110   62.2300 C.3       9 GLL5        0.0000 
@<TRIPOS>BOND
@<TRIPOS>SUBSTRUCTURE
     1 ALC1       16 GROUP        1 X    ALC  0     ROOT ALC X 1
     2 SEC2        1 GROUP        1 X    SEC  0     **** SEC X 2
     3 GLC5        8 GROUP        1 X    GLC  0     **** GLC X 6
     4 ALP1       18 GROUP        1 Y    ALP  0     ROOT ALP Y 8
     5 SEP2        3 GROUP        1 Y    SEP  0     **** SEP Y 9
     6 GLP5       10 GROUP        1 Y    GLP  0     **** GLP Y 13
     7 ALL1       17 GROUP        1 Z    ALL  0     ROOT ALL Z 15
     8 SEL2        2 GROUP        1 Z    SEL  0     **** SEL Z 16
     9 GLL5        9 GROUP        1 Z    GLL  0     **** GLL Z 20
@<TRIPOS>SET

