#    Name: 3ju8_NAD_1_ligand
#    Modification time : Tue Mar 25 17:56:02 2014

@<TRIPOS>MOLECULE
3ju8_NAD_1_ligand
   70    74     1     0     0
SMALL
NO_CHARGES


@<TRIPOS>ATOM
      1 PA         13.5070   30.5310   61.6140 P.3       1 NAD501      0.0000 
      2 O1A        12.1360   30.7880   60.9940 O.co2     1 NAD501      0.0000 
      3 O2A        13.7260   31.7090   62.5380 O.co2     1 NAD501      0.0000 
      4 O5B        14.7260   30.4370   60.5590 O.3       1 NAD501      0.0000 
      5 C5B        14.9770   29.6480   59.3830 C.3       1 NAD501      0.0000 
      6 C4B        15.4490   30.5690   58.2430 C.3       1 NAD501      0.0000 
      7 O4B        14.5240   31.4540   57.5560 O.3       1 NAD501      0.0000 
      8 C3B        16.8140   31.2690   57.9010 C.3       1 NAD501      0.0000 
      9 O3B        17.9080   30.9080   57.0900 O.3       1 NAD501      0.0000 
     10 C2B        16.4640   32.6930   58.2300 C.3       1 NAD501      0.0000 
     11 O2B        17.3560   33.7050   58.4690 O.3       1 NAD501      0.0000 
     12 C1B        15.0210   32.8240   57.7480 C.3       1 NAD501      0.0000 
     13 N9A        14.3630   34.0230   58.1880 N.pl3     1 NAD501      0.0000 
     14 C8A        14.2630   34.3690   59.4870 C.2       1 NAD501      0.0000 
     15 N7A        13.4740   35.4980   59.5740 N.2       1 NAD501      0.0000 
     16 C5A        13.0930   35.8270   58.3120 C.ar      1 NAD501      0.0000 
     17 C6A        12.3020   36.8580   57.8670 C.ar      1 NAD501      0.0000 
     18 N6A        11.7400   37.7820   58.8580 N.pl3     1 NAD501      0.0000 
     19 N1A        12.0410   36.9790   56.5550 N.ar      1 NAD501      0.0000 
     20 C2A        12.5790   36.0870   55.6440 C.ar      1 NAD501      0.0000 
     21 N3A        13.3690   35.0660   56.1000 N.ar      1 NAD501      0.0000 
     22 C4A        13.6240   34.9300   57.4240 C.ar      1 NAD501      0.0000 
     23 O3         13.4800   29.2290   62.4790 O.3       1 NAD501      0.0000 
     24 PN         14.8480   28.8320   63.1680 P.3       1 NAD501      0.0000 
     25 O1N        15.0410   29.7640   64.4290 O.co2     1 NAD501      0.0000 
     26 O2N        16.0370   28.9520   62.2230 O.co2     1 NAD501      0.0000 
     27 O5D        14.6830   27.3560   63.6260 O.3       1 NAD501      0.0000 
     28 C5D        13.5790   27.1540   64.4230 C.3       1 NAD501      0.0000 
     29 C4D        12.5980   26.1970   63.8340 C.3       1 NAD501      0.0000 
     30 O4D        12.9840   25.2040   62.8410 O.3       1 NAD501      0.0000 
     31 C3D        11.2220   25.8060   64.4260 C.3       1 NAD501      0.0000 
     32 O3D        10.1670   26.6200   64.8350 O.3       1 NAD501      0.0000 
     33 C2D        11.1660   24.3370   64.1810 C.3       1 NAD501      0.0000 
     34 O2D        10.3260   23.4090   64.7360 O.3       1 NAD501      0.0000 
     35 C1D        12.0140   24.1100   62.9420 C.3       1 NAD501      0.0000 
     36 N1N        12.1190   22.8300   62.2840 N.pl3     1 NAD501      0.0000 
     37 C2N        11.3190   22.4250   61.2680 C.ar      1 NAD501      0.0000 
     38 C3N        11.6150   21.1470   60.7080 C.ar      1 NAD501      0.0000 
     39 C7N        10.8670   20.4950   59.6060 C.2       1 NAD501      0.0000 
     40 O7N        11.5200   19.6600   59.0120 O.2       1 NAD501      0.0000 
     41 N7N         9.4410   20.4940   59.4990 N.am      1 NAD501      0.0000 
     42 C4N        12.6840   20.3830   61.1820 C.ar      1 NAD501      0.0000 
     43 C5N        13.4690   20.8110   62.2300 C.ar      1 NAD501      0.0000 
     44 C6N        13.1920   22.0240   62.7800 C.ar      1 NAD501      0.0000 
     45 H          14.0771   29.1324   59.0416 H         1 NAD501      0.0000 
     46 H          15.7582   28.9044   59.5534 H         1 NAD501      0.0000 
     47 H          15.5153   29.7035   57.2595 H         1 NAD501      0.0000 
     48 H          17.3121   31.0500   59.1187 H         1 NAD501      0.0000 
     49 H          16.0948   32.3919   59.4788 H         1 NAD501      0.0000 
     50 H          15.3231   33.1093   56.5488 H         1 NAD501      0.0000 
     51 H          14.6633   33.9209   60.2345 H         1 NAD501      0.0000 
     52 H          11.9691   37.5953   59.8133 H         1 NAD501      0.0000 
     53 H          11.1737   38.5231   58.4972 H         1 NAD501      0.0000 
     54 H          12.3845   36.1951   54.6419 H         1 NAD501      0.0000 
     55 H          13.0313   28.1093   64.6304 H         1 NAD501      0.0000 
     56 H          13.8588   26.7652   65.4360 H         1 NAD501      0.0000 
     57 H          12.0638   27.0393   62.9279 H         1 NAD501      0.0000 
     58 H          11.7954   25.6006   65.6664 H         1 NAD501      0.0000 
     59 H          12.2544   24.1145   64.9940 H         1 NAD501      0.0000 
     60 H          11.1202   24.6753   62.1237 H         1 NAD501      0.0000 
     61 H          10.5567   22.9650   60.9068 H         1 NAD501      0.0000 
     62 H           8.9445   20.9607   60.2309 H         1 NAD501      0.0000 
     63 H           9.0599   20.0267   58.7013 H         1 NAD501      0.0000 
     64 H          12.8857   19.4691   60.7266 H         1 NAD501      0.0000 
     65 H          14.2335   20.2296   62.5775 H         1 NAD501      0.0000 
     66 H          13.7471   22.3961   63.5691 H         1 NAD501      0.0000 
     67 H          18.1342   29.9727   57.3621 H         1 NAD501      0.0000 
     68 H          17.6950   33.5378   59.3948 H         1 NAD501      0.0000 
     69 H           9.6236   26.0493   65.4506 H         1 NAD501      0.0000 
     70 H           9.8297   23.9033   65.4497 H         1 NAD501      0.0000 
@<TRIPOS>BOND
     1    2    1 ar   
     2    3    1 ar   
     3    4    1 1    
     4   23    1 1    
     5    5    4 1    
     6    6    5 1    
     7   45    5 1    
     8   46    5 1    
     9    7    6 1    
    10    8    6 1    
    11   47    6 1    
    12   12    7 1    
    13    9    8 1    
    14   10    8 1    
    15   48    8 1    
    16   67    9 1    
    17   11   10 1    
    18   12   10 1    
    19   49   10 1    
    20   68   11 1    
    21   13   12 1    
    22   50   12 1    
    23   14   13 1    
    24   22   13 1    
    25   15   14 2    
    26   51   14 1    
    27   16   15 1    
    28   17   16 ar   
    29   22   16 ar   
    30   18   17 1    
    31   19   17 ar   
    32   52   18 1    
    33   53   18 1    
    34   20   19 ar   
    35   21   20 ar   
    36   54   20 1    
    37   22   21 ar   
    38   24   23 1    
    39   25   24 ar   
    40   26   24 ar   
    41   27   24 1    
    42   28   27 1    
    43   29   28 1    
    44   55   28 1    
    45   56   28 1    
    46   30   29 1    
    47   31   29 1    
    48   57   29 1    
    49   35   30 1    
    50   32   31 1    
    51   33   31 1    
    52   58   31 1    
    53   69   32 1    
    54   34   33 1    
    55   35   33 1    
    56   59   33 1    
    57   70   34 1    
    58   36   35 1    
    59   60   35 1    
    60   37   36 ar   
    61   44   36 ar   
    62   38   37 ar   
    63   61   37 1    
    64   39   38 1    
    65   42   38 ar   
    66   40   39 2    
    67   41   39 am   
    68   62   41 1    
    69   63   41 1    
    70   43   42 ar   
    71   64   42 1    
    72   44   43 ar   
    73   65   43 1    
    74   66   44 1    
@<TRIPOS>SUBSTRUCTURE
     1 NAD501      1 GROUP   
@<TRIPOS>SET

