#    Name: 2g97_DGB_1_INTS_M
#    Modification time : Tue Mar 25 13:48:52 2014

@<TRIPOS>MOLECULE
2g97_DGB_1_INTS_M
   63     0     3     0     0
SMALL
NO_CHARGES


@<TRIPOS>ATOM
      1 CA         -5.9160  102.6315    9.9165 C.3       1 GLC5        0.0000 
      2 CA         -4.7520  103.6540   11.1490 C.3       3 GLL5        0.0000 
      3 CA         -7.0800  101.6090    8.6840 C.3       2 GLP5        0.0000 
      4 CA         -1.5775  100.7070   13.8960 C.3       1 GLC5        0.0000 
      5 CA          0.3660  101.2730   14.7310 C.3       3 GLL5        0.0000 
      6 CA         -3.5210  100.1410   13.0610 C.3       2 GLP5        0.0000 
      7 CA          4.0655  100.9390   14.0955 C.3       1 GLC5        0.0000 
      8 CA          1.8840  101.2210   14.5140 C.3       3 GLL5        0.0000 
      9 CA          6.2470  100.6570   13.6770 C.3       2 GLP5        0.0000 
     10 CA          3.4360  101.7160   14.6760 C.3       1 GLC5        0.0000 
     11 CA          2.4400   99.8160   14.2670 C.3       3 GLL5        0.0000 
     12 CA          4.4320  103.6160   15.0850 C.3       2 GLP5        0.0000 
     13 CA          4.1645   99.9355   13.3675 C.3       1 GLC5        0.0000 
     14 CA          5.8890  100.0550   12.4680 C.3       2 GLP5        0.0000 
     15 CA          1.1920   98.0295   14.1270 C.3       1 GLC5        0.0000 
     16 CA         -0.0560   96.2430   13.9870 C.3       2 GLP5        0.0000 
     17 CA          4.3675   96.9080   17.5360 C.3       1 GLC5        0.0000 
     18 CA          4.3100   98.1540   15.9160 C.3       3 GLL5        0.0000 
     19 CA          4.4250   95.6620   19.1560 C.3       2 GLP5        0.0000 
     20 CA          5.2485   96.0170   16.0470 C.3       1 GLC5        0.0000 
     21 CA          4.9120   97.5680   14.8150 C.3       3 GLL5        0.0000 
     22 CA          5.5850   94.4660   17.2790 C.3       2 GLP5        0.0000 
     23 CA          5.3220   96.1600   12.1905 C.3       1 GLC5        0.0000 
     24 CA          6.8410   96.7720   13.5910 C.3       3 GLL5        0.0000 
     25 CA          3.8030   95.5480   10.7900 C.3       2 GLP5        0.0000 
     26 CA          8.6135   99.1915   14.5675 C.3       1 GLC5        0.0000 
     27 CA          7.2000   98.0400   15.5640 C.3       3 GLL5        0.0000 
     28 CA         10.0270  100.3430   13.5710 C.3       2 GLP5        0.0000 
     29 CA          7.3520   99.5365   17.0965 C.3       1 GLC5        0.0000 
     30 CA          7.5040  101.0330   18.6290 C.3       2 GLP5        0.0000 
     31 CA         -3.8670  101.7628   11.9318 C.3       1 GLC5        0.0000 
     32 CA         -3.6740  103.1150   10.4560 C.3       3 GLL5        0.0000 
     33 CA         -4.7103  102.0275    9.1050 C.3       1 GLC5        0.0000 
     34 CA         -5.8410  100.7870    8.4270 C.3       2 GLP5        0.0000 
     35 CA         -3.0365  103.6575    6.8622 C.3       1 GLC5        0.0000 
     36 CA         -3.4850  103.4210    9.1100 C.3       3 GLL5        0.0000 
     37 CA         -2.1420  103.4700    4.9390 C.3       2 GLP5        0.0000 
     38 CA         -2.2576  104.1577    9.1755 C.3       1 GLC5        0.0000 
     39 CA         -4.3770  104.2690    8.4610 C.3       3 GLL5        0.0000 
     40 CA         -0.5370  104.5470    9.2290 C.3       2 GLP5        0.0000 
     41 CA         -6.2509  103.6164    8.6581 C.3       1 GLC5        0.0000 
     42 CA         -7.2160  102.7160    7.6630 C.3       2 GLP5        0.0000 
     43 CA         -1.2565  104.1885   11.1657 C.3       1 GLC5        0.0000 
     44 CA         -1.3600  103.4280   13.3140 C.3       3 GLL5        0.0000 
     45 CA         -3.3765  101.5425   14.0820 C.3       1 GLC5        0.0000 
     46 CA         -2.6060  102.5520   15.3100 C.3       3 GLL5        0.0000 
     47 CA         -2.3635  102.2530   16.6208 C.3       1 GLC5        0.0000 
     48 CA         -3.8580  103.3360   14.8960 C.3       3 GLL5        0.0000 
     49 CA         -2.4440  101.4020   18.2720 C.3       2 GLP5        0.0000 
     50 CA         -2.5880  101.8440   13.5151 C.3       1 GLC5        0.0000 
     51 CA         -1.3340  103.2640   14.8360 C.3       3 GLL5        0.0000 
     52 CA          2.2308  102.7539   15.3621 C.3       1 GLC5        0.0000 
     53 CA         -0.0320  102.6240   15.3340 C.3       3 GLL5        0.0000 
     54 CA          3.4360  103.9230   15.9510 C.3       2 GLP5        0.0000 
     55 CA         -0.0872  100.5639   15.9621 C.3       1 GLC5        0.0000 
     56 CA         -1.2000   99.5430   17.1510 C.3       2 GLP5        0.0000 
     57 CA          1.7970   99.4348   12.7817 C.3       1 GLC5        0.0000 
     58 CA          1.4320   98.3510   11.1730 C.3       2 GLP5        0.0000 
     59 CA          5.4290   99.2590   14.5212 C.3       1 GLC5        0.0000 
     60 CA          3.2160   96.5765   15.8488 C.3       1 GLC5        0.0000 
     61 CA          1.8210   95.2920   16.3320 C.3       2 GLP5        0.0000 
     62 CA          9.3287   98.6060   13.7757 C.3       1 GLC5        0.0000 
     63 CA          8.2170   96.5810   13.5010 C.3       3 GLL5        0.0000 
@<TRIPOS>BOND
@<TRIPOS>SUBSTRUCTURE
     1 GLC5        1 GROUP        1 X    GLC  0     ROOT GLC X 6
     2 GLP5        3 GROUP        1 Y    GLP  0     ROOT GLP Y 13
     3 GLL5        2 GROUP        1 Z    GLL  0     ROOT GLL Z 20
@<TRIPOS>SET

