#    Name: 2g97_DGB_1_ligand
#    Modification time : Tue Mar 25 13:48:52 2014

@<TRIPOS>MOLECULE
2g97_DGB_1_ligand
   60    62     1     0     0
SMALL
NO_CHARGES


@<TRIPOS>ATOM
      1 CAK        -3.6740  103.1150   10.4560 C.ar      1 DGB1001     0.0000 
      2 CAF        -3.4850  103.4210    9.1100 C.ar      1 DGB1001     0.0000 
      3 CAE        -4.3770  104.2690    8.4610 C.ar      1 DGB1001     0.0000 
      4 CAG        -5.4600  104.8040    9.1560 C.ar      1 DGB1001     0.0000 
      5 CAL        -5.6530  104.4970   10.4980 C.ar      1 DGB1001     0.0000 
      6 CBA        -4.7520  103.6540   11.1490 C.ar      1 DGB1001     0.0000 
      7 CAY        -4.8800  103.4030   12.6540 C.2       1 DGB1001     0.0000 
      8 OAB        -5.9570  103.0530   13.1350 O.2       1 DGB1001     0.0000 
      9 NBC        -3.8200  103.6100   13.4390 N.am      1 DGB1001     0.0000 
     10 CAU        -2.5920  104.2320   12.8910 C.3       1 DGB1001     0.0000 
     11 CAS        -1.3600  103.4280   13.3140 C.3       1 DGB1001     0.0000 
     12 CAT        -3.8580  103.3360   14.8960 C.3       1 DGB1001     0.0000 
     13 CAR        -2.6060  102.5520   15.3100 C.3       1 DGB1001     0.0000 
     14 CBB        -1.3340  103.2640   14.8360 C.3       1 DGB1001     0.0000 
     15 CAQ        -0.0320  102.6240   15.3340 C.3       1 DGB1001     0.0000 
     16 CAO         0.3660  101.2730   14.7310 C.3       1 DGB1001     0.0000 
     17 CAN         1.8840  101.2210   14.5140 C.3       1 DGB1001     0.0000 
     18 CAP         2.4400   99.8160   14.2670 C.3       1 DGB1001     0.0000 
     19 NAW         2.0990   98.9680   15.4260 N.am      1 DGB1001     0.0000 
     20 CAX         2.9280   98.2470   16.1590 C.2       1 DGB1001     0.0000 
     21 OAA         2.5030   97.6710   17.1640 O.2       1 DGB1001     0.0000 
     22 CAC         4.3100   98.1540   15.9160 C.3       1 DGB1001     0.0000 
     23 CAD         4.9120   97.5680   14.8150 C.3       1 DGB1001     0.0000 
     24 CAZ         6.3050   97.5070   14.6480 C.ar      1 DGB1001     0.0000 
     25 CAJ         6.8410   96.7720   13.5910 C.ar      1 DGB1001     0.0000 
     26 CAH         8.2170   96.5810   13.5010 C.ar      1 DGB1001     0.0000 
     27 CAI         9.0440   97.1570   14.4600 C.ar      1 DGB1001     0.0000 
     28 NAV         8.5110   97.8670   15.4410 N.ar      1 DGB1001     0.0000 
     29 CAM         7.2000   98.0400   15.5640 C.ar      1 DGB1001     0.0000 
     30 H          -3.0142  102.4891   10.9366 H         1 DGB1001     0.0000 
     31 H          -2.6894  103.0214    8.5990 H         1 DGB1001     0.0000 
     32 H          -4.2382  104.5013    7.4698 H         1 DGB1001     0.0000 
     33 H          -6.1196  105.4296    8.6718 H         1 DGB1001     0.0000 
     34 H          -6.4520  104.8866   11.0082 H         1 DGB1001     0.0000 
     35 H          -2.4833  105.2526   13.2606 H         1 DGB1001     0.0000 
     36 H          -2.6310  104.2584   11.8012 H         1 DGB1001     0.0000 
     37 H          -0.4638  103.9498   12.9942 H         1 DGB1001     0.0000 
     38 H          -1.3935  102.4484   12.8483 H         1 DGB1001     0.0000 
     39 H          -4.7359  102.7444   15.1508 H         1 DGB1001     0.0000 
     40 H          -3.8842  104.2674   15.4595 H         1 DGB1001     0.0000 
     41 H          -2.6452  101.5578   14.8705 H         1 DGB1001     0.0000 
     42 H          -2.5832  102.4611   16.3937 H         1 DGB1001     0.0000 
     43 H          -1.3738  104.2996   15.2594 H         1 DGB1001     0.0000 
     44 H          -0.0964  102.5111   16.4434 H         1 DGB1001     0.0000 
     45 H           0.8030  103.3465   15.1654 H         1 DGB1001     0.0000 
     46 H          -0.1359  101.1429   13.7788 H         1 DGB1001     0.0000 
     47 H           0.0742  100.4778   15.4077 H         1 DGB1001     0.0000 
     48 H           2.3839  101.6528   15.3977 H         1 DGB1001     0.0000 
     49 H           2.1420  101.8634   13.6550 H         1 DGB1001     0.0000 
     50 H           3.5153   99.8865   14.1445 H         1 DGB1001     0.0000 
     51 H           1.9960   99.4235   13.3587 H         1 DGB1001     0.0000 
     52 H           1.0439   98.9767   15.6529 H         1 DGB1001     0.0000 
     53 H           4.8059   97.6925   16.8916 H         1 DGB1001     0.0000 
     54 H           4.7607   99.2459   16.0401 H         1 DGB1001     0.0000 
     55 H           4.4543   98.0390   13.8444 H         1 DGB1001     0.0000 
     56 H           4.4876   96.4827   14.6910 H         1 DGB1001     0.0000 
     57 H           6.2184   96.3712   12.8780 H         1 DGB1001     0.0000 
     58 H           8.6136   96.0254   12.7410 H         1 DGB1001     0.0000 
     59 H          10.0678   97.0127   14.3792 H         1 DGB1001     0.0000 
     60 H           6.8050   98.5912   16.3675 H         1 DGB1001     0.0000 
@<TRIPOS>BOND
     1    2    1 ar   
     2    6    1 ar   
     3   30    1 1    
     4    3    2 ar   
     5   31    2 1    
     6    4    3 ar   
     7   32    3 1    
     8    5    4 ar   
     9   33    4 1    
    10    6    5 ar   
    11   34    5 1    
    12    7    6 1    
    13    8    7 2    
    14    9    7 am   
    15   10    9 1    
    16   12    9 1    
    17   11   10 1    
    18   35   10 1    
    19   36   10 1    
    20   14   11 1    
    21   37   11 1    
    22   38   11 1    
    23   13   12 1    
    24   39   12 1    
    25   40   12 1    
    26   14   13 1    
    27   41   13 1    
    28   42   13 1    
    29   15   14 1    
    30   43   14 1    
    31   16   15 1    
    32   44   15 1    
    33   45   15 1    
    34   17   16 1    
    35   46   16 1    
    36   47   16 1    
    37   18   17 1    
    38   48   17 1    
    39   49   17 1    
    40   19   18 1    
    41   50   18 1    
    42   51   18 1    
    43   20   19 am   
    44   52   19 1    
    45   21   20 2    
    46   22   20 1    
    47   23   22 1    
    48   53   22 1    
    49   54   22 1    
    50   24   23 1    
    51   55   23 1    
    52   56   23 1    
    53   25   24 ar   
    54   29   24 ar   
    55   26   25 ar   
    56   57   25 1    
    57   27   26 ar   
    58   58   26 1    
    59   28   27 ar   
    60   59   27 1    
    61   29   28 ar   
    62   60   29 1    
@<TRIPOS>SUBSTRUCTURE
     1 DGB1001     1 GROUP   
@<TRIPOS>SET

