#    Name: 1ahh_NAD_1_INTS_M
#    Modification time : Mon Mar 24 18:25:01 2014

@<TRIPOS>MOLECULE
1ahh_NAD_1_INTS_M
   82     0     9     0     0
SMALL
NO_CHARGES


@<TRIPOS>ATOM
      1 CA         51.3550   13.7705    8.7435 C.3       3 GLC5        0.0000 
      2 CA         52.4610   15.4590    8.2640 C.3       9 GLL5        0.0000 
      3 CA         50.2490   12.0820    9.2230 C.3       6 GLP5        0.0000 
      4 CA         54.5485   16.3735   10.2560 C.3       3 GLC5        0.0000 
      5 CA         53.9730   15.5330    8.4190 C.3       9 GLL5        0.0000 
      6 CA         55.1240   17.2140   12.0930 C.3       6 GLP5        0.0000 
      7 O          54.9665   13.4220    9.2980 O.2       1 ALC1        0.0000 
      8 O          54.4450   14.9400    9.6340 O.2       7 ALL1        0.0000 
      9 O          55.4880   11.9040    8.9620 O.2       4 ALP1        0.0000 
     10 O          54.0080   13.6805    9.7490 O.2       1 ALC1        0.0000 
     11 O          53.5710   12.4210    9.8640 O.2       4 ALP1        0.0000 
     12 O          55.6225   13.1130    8.1710 O.2       1 ALC1        0.0000 
     13 O          55.7570   14.3220    7.3800 O.2       7 ALL1        0.0000 
     14 CA         51.8145   12.9200    8.0975 C.3       3 GLC5        0.0000 
     15 CA         53.3800   13.7580    6.9720 C.3       9 GLL5        0.0000 
     16 CA         53.7010   10.0855    2.9425 C.3       3 GLC5        0.0000 
     17 CA         52.2480   10.8080    3.2770 C.3       9 GLL5        0.0000 
     18 CA         55.1540    9.3630    2.6080 C.3       6 GLP5        0.0000 
     19 CA         52.5270    8.6640    3.0480 C.3       3 GLC5        0.0000 
     20 CA         52.8060    6.5200    2.8190 C.3       6 GLP5        0.0000 
     21 CA         50.5600   10.2610    2.8435 C.3       3 GLC5        0.0000 
     22 CA         48.8720    9.7140    2.4100 C.3       6 GLP5        0.0000 
     23 O          52.4095    9.4550    1.2510 O.2       1 ALC1        0.0000 
     24 O          52.2580   10.8280    1.9430 O.2       7 ALL1        0.0000 
     25 O          52.5610    8.0820    0.5590 O.2       4 ALP1        0.0000 
     26 N          51.2085    8.5180    3.4460 N.am      2 SEC2        0.0000 
     27 N          51.8910    9.7290    4.0350 N.am      8 SEL2        0.0000 
     28 N          50.5260    7.3070    2.8570 N.am      5 SEP2        0.0000 
     29 CA         52.8015    9.5200    7.2640 C.3       3 GLC5        0.0000 
     30 CA         51.9090    9.8080    5.3830 C.3       9 GLL5        0.0000 
     31 CA         53.6940    9.2320    9.1450 C.3       6 GLP5        0.0000 
     32 CA         53.4605    9.4245    4.7295 C.3       3 GLC5        0.0000 
     33 CA         55.0120    9.0410    4.0760 C.3       6 GLP5        0.0000 
     34 CA         52.3575    8.1640    4.1010 C.3       3 GLC5        0.0000 
     35 CA         50.2795    9.2045    5.0100 C.3       3 GLC5        0.0000 
     36 CA         48.6500    8.6010    4.6370 C.3       6 GLP5        0.0000 
     37 CA         50.1930   11.1000    5.6520 C.3       3 GLC5        0.0000 
     38 CA         48.4770   12.3920    5.9210 C.3       6 GLP5        0.0000 
     39 N          53.6970   10.1420    6.6075 N.am      2 SEC2        0.0000 
     40 N          52.2760   10.9200    6.0430 N.am      8 SEL2        0.0000 
     41 N          55.1180    9.3640    7.1720 N.am      5 SEP2        0.0000 
     42 CA         50.5655   12.2060    5.6360 C.3       3 GLC5        0.0000 
     43 CA         52.6540   12.0200    5.3510 C.3       9 GLL5        0.0000 
     44 N          49.5755   19.7430   11.2610 N.am      2 SEC2        0.0000 
     45 N          49.7960   19.6610    9.5380 N.am      8 SEL2        0.0000 
     46 N          49.3550   19.8250   12.9840 N.am      5 SEP2        0.0000 
     47 CA         44.5145   18.6990    7.7275 C.3       3 GLC5        0.0000 
     48 CA         46.2940   18.4810    6.9500 C.3       9 GLL5        0.0000 
     49 CA         42.7350   18.9170    8.5050 C.3       6 GLP5        0.0000 
     50 CA         46.7460   16.8265    4.1405 C.3       3 GLC5        0.0000 
     51 CA         46.4450   18.4080    5.4410 C.3       9 GLL5        0.0000 
     52 CA         47.0470   15.2450    2.8400 C.3       6 GLP5        0.0000 
     53 N          44.4595   17.9525    3.7840 N.am      2 SEC2        0.0000 
     54 N          45.4550   17.5340    4.8720 N.am      8 SEL2        0.0000 
     55 N          43.4640   18.3710    2.6960 N.am      5 SEP2        0.0000 
     56 O          45.6250   16.5085    5.9240 O.2       1 ALC1        0.0000 
     57 O          45.4550   17.5340    4.8720 O.2       7 ALL1        0.0000 
     58 O          45.7950   15.4830    6.9760 O.2       4 ALP1        0.0000 
     59 CA         47.1430   19.1620    3.0700 C.3       3 GLC5        0.0000 
     60 CA         46.2790   19.8470    4.9520 C.3       9 GLL5        0.0000 
     61 CA         48.0070   18.4770    1.1880 C.3       6 GLP5        0.0000 
     62 CA         44.7720   19.6560    3.3225 C.3       3 GLC5        0.0000 
     63 CA         43.2650   19.4650    1.6930 C.3       6 GLP5        0.0000 
     64 N          44.6080   19.1010    3.1490 N.am      2 SEC2        0.0000 
     65 N          45.7520   19.8310    3.6020 N.am      8 SEL2        0.0000 
     66 CA         44.0365   19.6775    7.2580 C.3       3 GLC5        0.0000 
     67 CA         45.3380   20.4380    6.0110 C.3       9 GLL5        0.0000 
     68 CA         46.2020   22.1745    8.9465 C.3       3 GLC5        0.0000 
     69 CA         46.4690   22.6100    6.8530 C.3       9 GLL5        0.0000 
     70 CA         45.9350   21.7390   11.0400 C.3       6 GLP5        0.0000 
     71 N          47.0435   26.8725    8.9140 N.am      2 SEC2        0.0000 
     72 N          47.5150   26.1150    7.7620 N.am      8 SEL2        0.0000 
     73 N          46.5720   27.6300   10.0660 N.am      5 SEP2        0.0000 
     74 CA         42.8345   22.4320    6.9660 C.3       3 GLC5        0.0000 
     75 CA         44.3470   22.6460    5.6920 C.3       9 GLL5        0.0000 
     76 CA         41.3220   22.2180    8.2400 C.3       6 GLP5        0.0000 
     77 CA         53.8270   10.5145    4.3675 C.3       3 GLC5        0.0000 
     78 CA         43.0405   23.0562    4.4083 C.3       3 GLC5        0.0000 
     79 CA         44.3370   24.0370    5.8210 C.3       9 GLL5        0.0000 
     80 CA         41.7390   22.7710    3.0600 C.3       6 GLP5        0.0000 
     81 CA         43.9793   23.9390    7.7777 C.3       3 GLC5        0.0000 
     82 CA         42.8230   23.6750    9.2760 C.3       6 GLP5        0.0000 
@<TRIPOS>BOND
@<TRIPOS>SUBSTRUCTURE
     1 ALC1        7 GROUP        1 X    ALC  0     ROOT ALC X 1
     2 SEC2       26 GROUP        1 X    SEC  0     **** SEC X 2
     3 GLC5        1 GROUP        1 X    GLC  0     **** GLC X 6
     4 ALP1        9 GROUP        1 Y    ALP  0     ROOT ALP Y 8
     5 SEP2       28 GROUP        1 Y    SEP  0     **** SEP Y 9
     6 GLP5        3 GROUP        1 Y    GLP  0     **** GLP Y 13
     7 ALL1        8 GROUP        1 Z    ALL  0     ROOT ALL Z 15
     8 SEL2       27 GROUP        1 Z    SEL  0     **** SEL Z 16
     9 GLL5        2 GROUP        1 Z    GLL  0     **** GLL Z 20
@<TRIPOS>SET

