#    Name: 1ahh_NAD_1_ligand
#    Modification time : Mon Mar 24 18:25:01 2014

@<TRIPOS>MOLECULE
1ahh_NAD_1_ligand
   70    74     1     0     0
SMALL
NO_CHARGES


@<TRIPOS>ATOM
      1 PA         52.4450   19.1960    7.3310 P.3       1 NAD256      0.0000 
      2 O1A        52.9970   18.9900    5.9640 O.co2     1 NAD256      0.0000 
      3 O2A        53.1130   20.1580    8.2600 O.co2     1 NAD256      0.0000 
      4 O5B        52.4360   17.7880    8.0980 O.3       1 NAD256      0.0000 
      5 C5B        51.9670   16.6220    7.4270 C.3       1 NAD256      0.0000 
      6 C4B        52.4610   15.4590    8.2640 C.3       1 NAD256      0.0000 
      7 O4B        52.1560   14.3120    7.4490 O.3       1 NAD256      0.0000 
      8 C3B        53.9730   15.5330    8.4190 C.3       1 NAD256      0.0000 
      9 O3B        54.4450   14.9400    9.6340 O.3       1 NAD256      0.0000 
     10 C2B        54.4450   14.8420    7.1470 C.3       1 NAD256      0.0000 
     11 O2B        55.7570   14.3220    7.3800 O.3       1 NAD256      0.0000 
     12 C1B        53.3800   13.7580    6.9720 C.3       1 NAD256      0.0000 
     13 N9A        53.1070   13.2510    5.6080 N.pl3     1 NAD256      0.0000 
     14 C8A        53.3220   13.8740    4.4200 C.2       1 NAD256      0.0000 
     15 N7A        53.0290   13.0760    3.3760 N.2       1 NAD256      0.0000 
     16 C5A        52.6300   11.9560    3.9670 C.ar      1 NAD256      0.0000 
     17 C6A        52.2480   10.8080    3.2770 C.ar      1 NAD256      0.0000 
     18 N6A        52.2580   10.8280    1.9430 N.pl3     1 NAD256      0.0000 
     19 N1A        51.8910    9.7290    4.0350 N.ar      1 NAD256      0.0000 
     20 C2A        51.9090    9.8080    5.3830 C.ar      1 NAD256      0.0000 
     21 N3A        52.2760   10.9200    6.0430 N.ar      1 NAD256      0.0000 
     22 C4A        52.6540   12.0200    5.3510 C.ar      1 NAD256      0.0000 
     23 O3         50.8540   19.5530    7.2170 O.3       1 NAD256      0.0000 
     24 PN         49.6380   20.1410    8.1380 P.3       1 NAD256      0.0000 
     25 O1N        49.5600   21.6220    7.9660 O.co2     1 NAD256      0.0000 
     26 O2N        49.7960   19.6610    9.5380 O.co2     1 NAD256      0.0000 
     27 O5D        48.3330   19.5610    7.3750 O.3       1 NAD256      0.0000 
     28 C5D        47.6270   18.3610    7.6790 C.3       1 NAD256      0.0000 
     29 C4D        46.2940   18.4810    6.9500 C.3       1 NAD256      0.0000 
     30 O4D        45.6740   19.7570    7.2410 O.3       1 NAD256      0.0000 
     31 C3D        46.4450   18.4080    5.4410 C.3       1 NAD256      0.0000 
     32 O3D        45.4550   17.5340    4.8720 O.3       1 NAD256      0.0000 
     33 C2D        46.2790   19.8470    4.9520 C.3       1 NAD256      0.0000 
     34 O2D        45.7520   19.8310    3.6020 O.3       1 NAD256      0.0000 
     35 C1D        45.3380   20.4380    6.0110 C.3       1 NAD256      0.0000 
     36 N1N        45.4090   21.9150    6.2000 N.pl3     1 NAD256      0.0000 
     37 C2N        46.4690   22.6100    6.8530 C.ar      1 NAD256      0.0000 
     38 C3N        46.4840   24.0240    7.0090 C.ar      1 NAD256      0.0000 
     39 C7N        47.5930   24.8740    7.7460 C.2       1 NAD256      0.0000 
     40 O7N        47.5150   26.1150    7.7620 O.2       1 NAD256      0.0000 
     41 N7N        48.6140   24.2420    8.3700 N.am      1 NAD256      0.0000 
     42 C4N        45.3840   24.7140    6.4670 C.ar      1 NAD256      0.0000 
     43 C5N        44.3370   24.0370    5.8210 C.ar      1 NAD256      0.0000 
     44 C6N        44.3470   22.6460    5.6920 C.ar      1 NAD256      0.0000 
     45 H          52.3821   16.5287    6.4352 H         1 NAD256      0.0000 
     46 H          50.8892   16.5806    7.3884 H         1 NAD256      0.0000 
     47 H          51.9824   15.4376    9.1776 H         1 NAD256      0.0000 
     48 H          54.2404   16.5801    8.3245 H         1 NAD256      0.0000 
     49 H          54.3752   15.5271    6.3580 H         1 NAD256      0.0000 
     50 H          53.6461   12.9179    7.6255 H         1 NAD256      0.0000 
     51 H          53.6531   14.7998    4.3391 H         1 NAD256      0.0000 
     52 H          52.4090    9.9489    1.4909 H         1 NAD256      0.0000 
     53 H          52.1136   11.7203    1.5152 H         1 NAD256      0.0000 
     54 H          51.6203    8.9533    5.9434 H         1 NAD256      0.0000 
     55 H          47.4258   18.2616    8.7348 H         1 NAD256      0.0000 
     56 H          48.1351   17.4833    7.3096 H         1 NAD256      0.0000 
     57 H          45.6453   17.6778    7.2647 H         1 NAD256      0.0000 
     58 H          47.4450   18.0968    5.2217 H         1 NAD256      0.0000 
     59 H          47.2248   20.3200    5.0364 H         1 NAD256      0.0000 
     60 H          44.3189   20.1502    5.7292 H         1 NAD256      0.0000 
     61 H          47.2634   22.0593    7.2304 H         1 NAD256      0.0000 
     62 H          49.2987   24.8305    8.7999 H         1 NAD256      0.0000 
     63 H          48.5933   23.2425    8.3458 H         1 NAD256      0.0000 
     64 H          45.3468   25.7447    6.5470 H         1 NAD256      0.0000 
     65 H          43.5471   24.5798    5.4355 H         1 NAD256      0.0000 
     66 H          43.5676   22.1716    5.2215 H         1 NAD256      0.0000 
     67 H          54.1066   13.9993    9.6112 H         1 NAD256      0.0000 
     68 H          55.6181   13.5208    7.9621 H         1 NAD256      0.0000 
     69 H          45.4445   16.7317    5.4688 H         1 NAD256      0.0000 
     70 H          45.5832   20.7910    3.3788 H         1 NAD256      0.0000 
@<TRIPOS>BOND
     1    2    1 ar   
     2    3    1 ar   
     3    4    1 1    
     4   23    1 1    
     5    5    4 1    
     6    6    5 1    
     7   45    5 1    
     8   46    5 1    
     9    7    6 1    
    10    8    6 1    
    11   47    6 1    
    12   12    7 1    
    13    9    8 1    
    14   10    8 1    
    15   48    8 1    
    16   67    9 1    
    17   11   10 1    
    18   12   10 1    
    19   49   10 1    
    20   68   11 1    
    21   13   12 1    
    22   50   12 1    
    23   14   13 1    
    24   22   13 1    
    25   15   14 2    
    26   51   14 1    
    27   16   15 1    
    28   17   16 ar   
    29   22   16 ar   
    30   18   17 1    
    31   19   17 ar   
    32   52   18 1    
    33   53   18 1    
    34   20   19 ar   
    35   21   20 ar   
    36   54   20 1    
    37   22   21 ar   
    38   24   23 1    
    39   25   24 ar   
    40   26   24 ar   
    41   27   24 1    
    42   28   27 1    
    43   29   28 1    
    44   55   28 1    
    45   56   28 1    
    46   30   29 1    
    47   31   29 1    
    48   57   29 1    
    49   35   30 1    
    50   32   31 1    
    51   33   31 1    
    52   58   31 1    
    53   69   32 1    
    54   34   33 1    
    55   35   33 1    
    56   59   33 1    
    57   70   34 1    
    58   36   35 1    
    59   60   35 1    
    60   37   36 ar   
    61   44   36 ar   
    62   38   37 ar   
    63   61   37 1    
    64   39   38 1    
    65   42   38 ar   
    66   40   39 2    
    67   41   39 am   
    68   62   41 1    
    69   63   41 1    
    70   43   42 ar   
    71   64   42 1    
    72   44   43 ar   
    73   65   43 1    
    74   66   44 1    
@<TRIPOS>SUBSTRUCTURE
     1 NAD256      1 GROUP   
@<TRIPOS>SET

