#    Name: 2PDL_1_CAVITY_N1_6.mol2
#    Modification time : Tue Mar 11 05:07:43 2014

@<TRIPOS>MOLECULE
2PDL_1_CAVITY_N1_6.mol2
  111     0     5     0     0
SMALL
NO_CHARGES


@<TRIPOS>ATOM
      1 CA         18.2321  -13.1686    6.8636 C.3       4 GLY6        0.0000 
      2 CA         17.9582  -12.2580    8.0237 C.3       4 GLY6        0.0000 
      3 CA         16.0183  -13.0934    8.2215 C.3       4 GLY6        0.0000 
      4 CA         16.6052  -11.9437    7.4575 C.3       4 GLY6        0.0000 
      5 CA         17.1920  -10.7939    6.6935 C.3       4 GLY6        0.0000 
      6 OG         17.6843  -11.3473    9.1837 O.2       1 SER1        0.0000 
      7 CZ         16.3313  -11.0330    8.6175 C.ar      3 PHE5        0.0000 
      8 OG         16.9181   -9.8833    7.8535 O.2       1 SER1        0.0000 
      9 CA         14.9783  -10.7187    8.0513 C.3       4 GLY6        0.0000 
     10 CA         15.5651   -9.5689    7.2873 C.3       4 GLY6        0.0000 
     11 CA         20.7032   -9.9156   10.7122 C.3       4 GLY6        0.0000 
     12 DU         18.7634  -10.7510   10.9100 H         5 CUB7        0.0000 
     13 OG         19.3502   -9.6013   10.1460 O.2       1 SER1        0.0000 
     14 CZ         16.8235  -11.5865   11.1078 C.ar      3 PHE5        0.0000 
     15 CZ         17.4104  -10.4367   10.3438 C.ar      3 PHE5        0.0000 
     16 OG         17.9972   -9.2870    9.5798 O.2       1 SER1        0.0000 
     17 CZ         16.0574  -10.1224    9.7776 C.ar      3 PHE5        0.0000 
     18 OG         16.6442   -8.9726    9.0136 O.2       1 SER1        0.0000 
     19 OG         17.2310   -7.8229    8.2496 O.2       1 SER1        0.0000 
     20 CZ         14.7044   -9.8080    9.2114 C.ar      3 PHE5        0.0000 
     21 CZ         15.2912   -8.6583    8.4474 C.ar      3 PHE5        0.0000 
     22 CZ         17.9026  -10.9902   12.8340 C.ar      3 PHE5        0.0000 
     23 CA         18.4895   -9.8404   12.0700 C.3       4 GLY6        0.0000 
     24 CA         19.0763   -8.6906   11.3060 C.3       4 GLY6        0.0000 
     25 CZ         17.1365   -9.5261   11.5038 C.ar      3 PHE5        0.0000 
     26 CA         17.7233   -8.3763   10.7398 C.3       4 GLY6        0.0000 
     27 CA         18.3101   -7.2266    9.9758 C.3       4 GLY6        0.0000 
     28 CZ         15.7835   -9.2117   10.9376 C.ar      3 PHE5        0.0000 
     29 CZ         16.3703   -8.0620   10.1736 C.ar      3 PHE5        0.0000 
     30 CA         16.9571   -6.9122    9.4096 C.3       4 GLY6        0.0000 
     31 CZ         14.4305   -8.8974   10.3714 C.ar      3 PHE5        0.0000 
     32 CZ         15.6041   -6.5979    8.8434 C.ar      3 PHE5        0.0000 
     33 DU         17.2213  -13.8431   16.8523 H         5 CUB7        0.0000 
     34 DU         17.8081  -12.6934   16.0883 H         5 CUB7        0.0000 
     35 CZ         18.3949  -11.5436   15.3243 C.ar      3 PHE5        0.0000 
     36 CZ         18.9817  -10.3938   14.5603 C.ar      3 PHE5        0.0000 
     37 CZ         19.5686   -9.2441   13.7963 C.ar      3 PHE5        0.0000 
     38 CZ         15.8683  -13.5288   16.2861 C.ar      3 PHE5        0.0000 
     39 CZ         16.4551  -12.3790   15.5221 C.ar      3 PHE5        0.0000 
     40 CZ         17.0419  -11.2293   14.7581 C.ar      3 PHE5        0.0000 
     41 CZ         17.6287  -10.0795   13.9941 C.ar      3 PHE5        0.0000 
     42 CA         18.2156   -8.9298   13.2301 C.3       4 GLY6        0.0000 
     43 CZ         14.5153  -13.2144   15.7199 C.ar      3 PHE5        0.0000 
     44 CZ         16.8626   -8.6154   12.6639 C.ar      3 PHE5        0.0000 
     45 CA         17.4494   -7.4657   11.8999 C.3       4 GLY6        0.0000 
     46 CZ         15.5096   -8.3011   12.0977 C.ar      3 PHE5        0.0000 
     47 CA         16.0964   -7.1513   11.3337 C.3       4 GLY6        0.0000 
     48 CA         16.6832   -6.0016   10.5697 C.3       4 GLY6        0.0000 
     49 CA         17.2700   -4.8518    9.8057 C.3       4 GLY6        0.0000 
     50 CZ         14.1566   -7.9868   11.5315 C.ar      3 PHE5        0.0000 
     51 CZ         14.7434   -6.8370   10.7675 C.ar      3 PHE5        0.0000 
     52 CZ         15.3302   -5.6873   10.0035 C.ar      3 PHE5        0.0000 
     53 O          18.3004  -13.2468   18.5785 O.2       2 ALA2        0.0000 
     54 CZ         18.8872  -12.0970   17.8145 C.ar      3 PHE5        0.0000 
     55 CZ         19.4740  -10.9473   17.0505 C.ar      3 PHE5        0.0000 
     56 DU         16.3605  -14.0822   18.7763 H         5 CUB7        0.0000 
     57 O          16.9474  -12.9325   18.0123 O.2       2 ALA2        0.0000 
     58 O          17.5342  -11.7827   17.2483 O.2       2 ALA2        0.0000 
     59 CZ         18.1210  -10.6330   16.4843 C.ar      3 PHE5        0.0000 
     60 CZ         18.7078   -9.4832   15.7203 C.ar      3 PHE5        0.0000 
     61 CZ         19.2947   -8.3334   14.9563 C.ar      3 PHE5        0.0000 
     62 N          15.0075  -13.7679   18.2101 N.2       2 ALA2        0.0000 
     63 O          15.5944  -12.6181   17.4461 O.2       2 ALA2        0.0000 
     64 O          16.1812  -11.4684   16.6821 O.2       2 ALA2        0.0000 
     65 CZ         16.7680  -10.3186   15.9181 C.ar      3 PHE5        0.0000 
     66 DU         17.3548   -9.1689   15.1541 H         5 CUB7        0.0000 
     67 CA         17.9417   -8.0191   14.3901 C.3       4 GLY6        0.0000 
     68 N          13.6545  -13.4536   17.6439 N.2       2 ALA2        0.0000 
     69 N          14.2414  -12.3038   16.8799 N.2       2 ALA2        0.0000 
     70 CZ         14.8282  -11.1541   16.1159 C.ar      3 PHE5        0.0000 
     71 CZ         15.4150  -10.0043   15.3519 C.ar      3 PHE5        0.0000 
     72 CZ         16.0018   -8.8545   14.5879 C.ar      3 PHE5        0.0000 
     73 DU         16.5887   -7.7048   13.8239 H         5 CUB7        0.0000 
     74 CA         17.1755   -6.5550   13.0599 C.3       4 GLY6        0.0000 
     75 CZ         15.2357   -7.3905   13.2577 C.ar      3 PHE5        0.0000 
     76 CZ         15.8225   -6.2407   12.4937 C.ar      3 PHE5        0.0000 
     77 CA         16.4093   -5.0910   11.7297 C.3       4 GLY6        0.0000 
     78 CZ         14.4695   -5.9264   11.9275 C.ar      3 PHE5        0.0000 
     79 CZ         15.0563   -4.7766   11.1635 C.ar      3 PHE5        0.0000 
     80 CZ         18.4339   -8.5726   16.8804 C.ar      3 PHE5        0.0000 
     81 CZ         19.0208   -7.4228   16.1164 C.ar      3 PHE5        0.0000 
     82 N          14.7336  -12.8573   19.3702 N.2       2 ALA2        0.0000 
     83 O          15.3205  -11.7075   18.6062 O.2       2 ALA2        0.0000 
     84 O          15.9073  -10.5577   17.8422 O.2       2 ALA2        0.0000 
     85 O          16.4941   -9.4080   17.0782 O.2       2 ALA2        0.0000 
     86 CZ         17.0809   -8.2582   16.3142 C.ar      3 PHE5        0.0000 
     87 CA         17.6678   -7.1085   15.5502 C.3       4 GLY6        0.0000 
     88 CA         18.2546   -5.9587   14.7862 C.3       4 GLY6        0.0000 
     89 N          13.9675  -11.3932   18.0400 N.2       2 ALA2        0.0000 
     90 CA         14.5543  -10.2434   17.2760 C.3       4 GLY6        0.0000 
     91 DU         15.1411   -9.0937   16.5120 H         5 CUB7        0.0000 
     92 DU         15.7279   -7.9439   15.7480 H         5 CUB7        0.0000 
     93 O          16.3148   -6.7942   14.9840 O.2       2 ALA2        0.0000 
     94 CZ         16.9016   -5.6444   14.2200 C.ar      3 PHE5        0.0000 
     95 CZ         13.7881   -8.7793   15.9458 C.ar      3 PHE5        0.0000 
     96 CZ         14.3749   -7.6296   15.1818 C.ar      3 PHE5        0.0000 
     97 O          14.9618   -6.4798   14.4178 O.2       2 ALA2        0.0000 
     98 CA         18.7469   -6.5122   17.2764 C.3       4 GLY6        0.0000 
     99 O          16.2202   -8.4974   18.2382 O.2       2 ALA2        0.0000 
    100 CZ         16.8070   -7.3476   17.4742 C.ar      3 PHE5        0.0000 
    101 CA         17.3939   -6.1978   16.7102 C.3       4 GLY6        0.0000 
    102 CZ         17.9807   -5.0481   15.9462 C.ar      3 PHE5        0.0000 
    103 CZ         14.2804   -9.3328   18.4360 C.ar      3 PHE5        0.0000 
    104 CZ         14.8672   -8.1830   17.6720 C.ar      3 PHE5        0.0000 
    105 O          15.4540   -7.0333   16.9080 O.2       2 ALA2        0.0000 
    106 O          16.0409   -5.8835   16.1440 O.2       2 ALA2        0.0000 
    107 CA         13.5142   -7.8687   17.1058 C.3       4 GLY6        0.0000 
    108 CZ         14.1010   -6.7189   16.3418 C.ar      3 PHE5        0.0000 
    109 CZ         16.5331   -6.4370   18.6343 C.ar      3 PHE5        0.0000 
    110 N          15.1801   -6.1226   18.0681 N.2       2 ALA2        0.0000 
    111 N          15.7670   -4.9729   17.3041 N.2       2 ALA2        0.0000 
@<TRIPOS>BOND
@<TRIPOS>SUBSTRUCTURE
     1 SER1        6 GROUP   
     2 ALA2       53 GROUP   
     3 PHE5        7 GROUP   
     4 GLY6        1 GROUP   
     5 CUB7       12 GROUP   
@<TRIPOS>SET

