#    Name: 2pdl_TOL_1_INTS_M
#    Modification time : Mon Mar 24 18:51:03 2014

@<TRIPOS>MOLECULE
2pdl_TOL_1_INTS_M
   62     0     6     0     0
SMALL
NO_CHARGES


@<TRIPOS>ATOM
      1 CA         19.5385   -8.8590    8.0480 C.3       2 GLC5        0.0000 
      2 CA         18.6800   -8.3410   10.0060 C.3       6 GLL5        0.0000 
      3 CA         20.3970   -9.3770    6.0900 C.3       4 GLP5        0.0000 
      4 CA         15.0145   -7.2795    8.7345 C.3       2 GLC5        0.0000 
      5 CA         16.8730   -7.6220    9.0620 C.3       6 GLL5        0.0000 
      6 CA         13.1560   -6.9370    8.4070 C.3       4 GLP5        0.0000 
      7 CA         17.4205   -6.2180    8.0340 C.3       2 GLC5        0.0000 
      8 CA         17.9680   -4.8140    7.0060 C.3       4 GLP5        0.0000 
      9 CA         12.8815   -4.9235   10.9990 C.3       2 GLC5        0.0000 
     10 CA         14.9940   -4.7640   10.6590 C.3       6 GLL5        0.0000 
     11 CA         10.7690   -5.0830   11.3390 C.3       4 GLP5        0.0000 
     12 CA         14.9010   -3.5465   11.9995 C.3       2 GLC5        0.0000 
     13 CA         14.8080   -2.3290   13.3400 C.3       4 GLP5        0.0000 
     14 CA         14.0750   -5.8505    9.5330 C.3       2 GLC5        0.0000 
     15 CA         15.6245   -4.5015    8.8030 C.3       2 GLC5        0.0000 
     16 CA         16.2550   -4.2390    6.9470 C.3       4 GLP5        0.0000 
     17 CA         17.8910   -8.9260   17.7505 C.3       2 GLC5        0.0000 
     18 CA         16.4140   -8.5160   16.3370 C.3       6 GLL5        0.0000 
     19 CA         19.3680   -9.3360   19.1640 C.3       4 GLP5        0.0000 
     20 CA         13.1620   -9.1780   17.3590 C.3       2 GLC5        0.0000 
     21 CA         14.9730   -9.2830   16.8600 C.3       6 GLL5        0.0000 
     22 CA         11.3510   -9.0730   17.8580 C.3       4 GLP5        0.0000 
     23 CA         14.2115   -8.6300   18.8330 C.3       2 GLC5        0.0000 
     24 CA         13.4500   -7.9770   20.8060 C.3       4 GLP5        0.0000 
     25 CA         14.5165  -10.5480   15.1970 C.3       2 GLC5        0.0000 
     26 CA         14.0600  -11.8130   13.5340 C.3       4 GLP5        0.0000 
     27 CA         18.8175   -8.1530   17.8740 C.3       2 GLC5        0.0000 
     28 CA         18.2670   -6.9700   16.5840 C.3       6 GLL5        0.0000 
     29 CA         19.8640   -8.0850   16.2725 C.3       2 GLC5        0.0000 
     30 CA         21.4610   -9.2000   15.9610 C.3       4 GLP5        0.0000 
     31 CA         19.4410   -5.6730   16.9990 C.3       2 GLC5        0.0000 
     32 CA         20.6150   -4.3760   17.4140 C.3       4 GLP5        0.0000 
     33 CA         18.8435   -5.8175   14.7755 C.3       2 GLC5        0.0000 
     34 CA         19.4200   -4.6650   12.9670 C.3       4 GLP5        0.0000 
     35 CA         17.4265   -8.3260   19.2375 C.3       2 GLC5        0.0000 
     36 CA         16.5520   -7.1770   18.4080 C.3       6 GLL5        0.0000 
     37 CA         18.3010   -9.4750   20.0670 C.3       4 GLP5        0.0000 
     38 CA         15.0010   -7.5770   19.6070 C.3       2 GLC5        0.0000 
     39 CA         16.9165   -5.4350   19.0850 C.3       2 GLC5        0.0000 
     40 CA         17.2810   -3.6930   19.7620 C.3       4 GLP5        0.0000 
     41 N          14.3320   -5.6325   20.3575 N.am      1 SEC2        0.0000 
     42 N          14.9250   -5.5190   19.1490 N.am      5 SEL2        0.0000 
     43 N          13.7390   -5.7460   21.5660 N.am      3 SEP2        0.0000 
     44 N          13.7150   -5.1035   18.6720 N.am      1 SEC2        0.0000 
     45 N          12.5050   -4.6880   18.1950 N.am      3 SEP2        0.0000 
     46 N          14.8475   -4.7890   15.9520 N.am      1 SEC2        0.0000 
     47 N          15.3290   -5.7540   16.9410 N.am      5 SEL2        0.0000 
     48 N          14.3660   -3.8240   14.9630 N.am      3 SEP2        0.0000 
     49 CA         15.7197  -10.1305   10.6080 C.3       2 GLC5        0.0000 
     50 CA         17.3620   -8.3350   10.0910 C.3       6 GLL5        0.0000 
     51 CA         14.3330  -11.3100   11.2340 C.3       4 GLP5        0.0000 
     52 CA         18.5390   -6.8400   10.7116 C.3       2 GLC5        0.0000 
     53 CA         19.6310   -5.7000   11.8680 C.3       4 GLP5        0.0000 
     54 CA         18.0275   -6.4525   11.6753 C.3       2 GLC5        0.0000 
     55 CA         16.8070   -7.7930   11.4360 C.3       6 GLL5        0.0000 
     56 CA         17.5670   -5.6270   13.1603 C.3       2 GLC5        0.0000 
     57 CA         15.5690   -6.2100   12.7850 C.3       6 GLL5        0.0000 
     58 CA         18.6520   -7.6020   12.8285 C.3       2 GLC5        0.0000 
     59 CA         16.6190   -8.1430   13.8220 C.3       6 GLL5        0.0000 
     60 CA         20.4460   -6.8510   12.4600 C.3       4 GLP5        0.0000 
     61 CA         19.2250   -8.4917   12.7605 C.3       2 GLC5        0.0000 
     62 CA         17.8580   -9.7470   12.4930 C.3       6 GLL5        0.0000 
@<TRIPOS>BOND
@<TRIPOS>SUBSTRUCTURE
     1 SEC2       41 GROUP        1 X    SEC  0     ROOT SEC X 2
     2 GLC5        1 GROUP        1 X    GLC  0     **** GLC X 6
     3 SEP2       43 GROUP        1 Y    SEP  0     ROOT SEP Y 9
     4 GLP5        3 GROUP        1 Y    GLP  0     **** GLP Y 13
     5 SEL2       42 GROUP        1 Z    SEL  0     ROOT SEL Z 16
     6 GLL5        2 GROUP        1 Z    GLL  0     **** GLL Z 20
@<TRIPOS>SET

