#    Name: 2pdl_TOL_1_ligand
#    Modification time : Mon Mar 24 18:51:03 2014

@<TRIPOS>MOLECULE
2pdl_TOL_1_ligand
   37    38     1     0     0
SMALL
NO_CHARGES


@<TRIPOS>ATOM
      1 C1         17.3620   -8.3350   10.0910 C.3       1 TOL600      0.0000 
      2 F1         18.6800   -8.3410   10.0060 F         1 TOL600      0.0000 
      3 F2         16.8730   -7.6220    9.0620 F         1 TOL600      0.0000 
      4 F3         16.8510   -9.5670    9.8730 F         1 TOL600      0.0000 
      5 C2         16.8070   -7.7930   11.4360 C.ar      1 TOL600      0.0000 
      6 C3         16.0410   -6.6170   11.5290 C.ar      1 TOL600      0.0000 
      7 O1         15.7760   -5.9060   10.4400 O.3       1 TOL600      0.0000 
      8 C4         14.9940   -4.7640   10.6590 C.3       1 TOL600      0.0000 
      9 C5         15.5690   -6.2100   12.7850 C.ar      1 TOL600      0.0000 
     10 C6         15.8590   -6.9680   13.9220 C.ar      1 TOL600      0.0000 
     11 C7         16.6190   -8.1430   13.8220 C.ar      1 TOL600      0.0000 
     12 C8         16.9160   -8.9110   14.9790 C.ar      1 TOL600      0.0000 
     13 C9         17.6650  -10.0940   14.8820 C.ar      1 TOL600      0.0000 
     14 C10        18.1500  -10.5180   13.6290 C.ar      1 TOL600      0.0000 
     15 C11        17.8580   -9.7470   12.4930 C.ar      1 TOL600      0.0000 
     16 C12        17.0970   -8.5630   12.5720 C.ar      1 TOL600      0.0000 
     17 C13        16.4140   -8.5160   16.3370 C.2       1 TOL600      0.0000 
     18 S1         14.9730   -9.2830   16.8600 S.2       1 TOL600      0.0000 
     19 N1         17.0260   -7.5760   17.0920 N.am      1 TOL600      0.0000 
     20 C14        18.2670   -6.9700   16.5840 C.3       1 TOL600      0.0000 
     21 C15        16.5520   -7.1770   18.4080 C.3       1 TOL600      0.0000 
     22 C16        15.5250   -6.0210   18.2230 C.2       1 TOL600      0.0000 
     23 O2         14.9250   -5.5190   19.1490 O.co2     1 TOL600      0.0000 
     24 O3         15.3290   -5.7540   16.9410 O.co2     1 TOL600      0.0000 
     25 H          15.0098   -5.3536   12.8667 H         1 TOL600      0.0000 
     26 H          15.5132   -6.6640   14.8426 H         1 TOL600      0.0000 
     27 H          17.8598  -10.6492   15.7183 H         1 TOL600      0.0000 
     28 H          18.7010  -11.3670   13.5516 H         1 TOL600      0.0000 
     29 H          18.2108  -10.0548   11.5684 H         1 TOL600      0.0000 
     30 H          17.3573   -6.8038   19.0290 H         1 TOL600      0.0000 
     31 H          16.0444   -7.9884   18.9153 H         1 TOL600      0.0000 
     32 H          15.4351   -4.1276   11.2918 H         1 TOL600      0.0000 
     33 H          14.8231   -4.2627    9.8108 H         1 TOL600      0.0000 
     34 H          14.1021   -4.9937   11.0485 H         1 TOL600      0.0000 
     35 H          18.6350   -6.2901   17.2182 H         1 TOL600      0.0000 
     36 H          18.9823   -7.6538   16.4399 H         1 TOL600      0.0000 
     37 H          18.1233   -6.5073   15.7092 H         1 TOL600      0.0000 
@<TRIPOS>BOND
     1    2    1 1    
     2    3    1 1    
     3    4    1 1    
     4    5    1 1    
     5    6    5 ar   
     6   16    5 ar   
     7    7    6 1    
     8    9    6 ar   
     9    8    7 1    
    10   32    8 1    
    11   33    8 1    
    12   34    8 1    
    13   10    9 ar   
    14   25    9 1    
    15   11   10 ar   
    16   26   10 1    
    17   12   11 ar   
    18   16   11 ar   
    19   13   12 ar   
    20   17   12 1    
    21   14   13 ar   
    22   27   13 1    
    23   15   14 ar   
    24   28   14 1    
    25   16   15 ar   
    26   29   15 1    
    27   18   17 2    
    28   19   17 am   
    29   20   19 1    
    30   21   19 1    
    31   35   20 1    
    32   36   20 1    
    33   37   20 1    
    34   22   21 1    
    35   30   21 1    
    36   31   21 1    
    37   23   22 ar   
    38   24   22 ar   
@<TRIPOS>SUBSTRUCTURE
     1 TOL600      1 GROUP   
@<TRIPOS>SET

