#    Name: 4lud_SK8_1_INTS_M
#    Modification time : Tue Apr  8 00:09:42 2014

@<TRIPOS>MOLECULE
4lud_SK8_1_INTS_M
   52     0     6     0     0
SMALL
NO_CHARGES


@<TRIPOS>ATOM
      1 CA         10.3490    2.9465   79.1610 C.3       2 GLC5        0.0000 
      2 CA          9.5350    1.6810   78.1980 C.3       6 GLL5        0.0000 
      3 CA         11.1630    4.2120   80.1240 C.3       4 GLP5        0.0000 
      4 CA          8.6520   -0.0085   80.6850 C.3       2 GLC5        0.0000 
      5 CA          8.6280    0.6780   78.5550 C.3       6 GLL5        0.0000 
      6 CA          8.6760   -0.6950   82.8150 C.3       4 GLP5        0.0000 
      7 CA          6.3405    1.6545   74.6940 C.3       2 GLC5        0.0000 
      8 CA          7.5630    0.9270   76.4010 C.3       6 GLL5        0.0000 
      9 CA          5.1180    2.3820   72.9870 C.3       4 GLP5        0.0000 
     10 CA          9.2050    3.7170   78.2520 C.3       2 GLC5        0.0000 
     11 CA          9.5090    2.3380   76.9560 C.3       6 GLL5        0.0000 
     12 CA          8.9010    5.0960   79.5480 C.3       4 GLP5        0.0000 
     13 CA         13.3320    4.0935   74.4695 C.3       2 GLC5        0.0000 
     14 CA         13.5660    5.5210   75.7770 C.3       6 GLL5        0.0000 
     15 CA         13.0980    2.6660   73.1620 C.3       4 GLP5        0.0000 
     16 CA         13.5820    0.1665   78.7215 C.3       2 GLC5        0.0000 
     17 CA         14.9600    1.5210   77.6600 C.3       6 GLL5        0.0000 
     18 CA         12.2040   -1.1880   79.7830 C.3       4 GLP5        0.0000 
     19 N          15.4785   -0.9525   76.7995 N.am      1 SEC2        0.0000 
     20 N          14.7250    0.2220   77.3530 N.am      5 SEL2        0.0000 
     21 N          16.2320   -2.1270   76.2460 N.am      3 SEP2        0.0000 
     22 CA         14.4395   -1.8115   77.3580 C.3       2 GLC5        0.0000 
     23 CA         13.5410   -0.0400   76.7530 C.3       6 GLL5        0.0000 
     24 CA         15.3380   -3.5830   77.9630 C.3       4 GLP5        0.0000 
     25 CA         14.9585   -0.5390   75.3990 C.3       2 GLC5        0.0000 
     26 CA         16.3760   -1.0380   74.0450 C.3       4 GLP5        0.0000 
     27 CA          5.3390   -1.4085   78.2715 C.3       2 GLC5        0.0000 
     28 CA          6.7600   -0.6490   77.9690 C.3       6 GLL5        0.0000 
     29 CA          3.9180   -2.1680   78.5740 C.3       4 GLP5        0.0000 
     30 CA         10.6427   -0.0042   79.0798 C.3       2 GLC5        0.0000 
     31 CA          7.4472    1.6402   79.2673 C.3       2 GLC5        0.0000 
     32 CA          5.8130    2.1010   80.1580 C.3       4 GLP5        0.0000 
     33 CA          6.5083    0.9667   78.9820 C.3       2 GLC5        0.0000 
     34 CA          7.6470    0.3140   77.6430 C.3       6 GLL5        0.0000 
     35 CA          7.3230    3.0176   77.1269 C.3       2 GLC5        0.0000 
     36 CA          5.8780    4.1540   77.6550 C.3       4 GLP5        0.0000 
     37 CA         11.1798    3.8080   78.3328 C.3       2 GLC5        0.0000 
     38 CA         10.4870    3.4170   76.5850 C.3       6 GLL5        0.0000 
     39 CA         12.1472    3.0350   74.8518 C.3       2 GLC5        0.0000 
     40 CA         14.1088    6.5857   73.8225 C.3       2 GLC5        0.0000 
     41 CA         14.8620    6.9520   72.1300 C.3       4 GLP5        0.0000 
     42 CA         12.3025    3.3125   78.6010 C.3       2 GLC5        0.0000 
     43 CA         12.8310    2.2720   76.7660 C.3       6 GLL5        0.0000 
     44 CA         13.2700    2.5395   75.1200 C.3       2 GLC5        0.0000 
     45 CA         15.0243    2.5703   79.1990 C.3       2 GLC5        0.0000 
     46 CA         14.0530    2.5540   77.3900 C.3       6 GLL5        0.0000 
     47 CA         15.5420    3.1030   80.8730 C.3       4 GLP5        0.0000 
     48 CA         12.6315   -0.3692   78.1920 C.3       2 GLC5        0.0000 
     49 CA         12.5910    0.4068   74.8780 C.3       2 GLC5        0.0000 
     50 CA         12.1230    0.3640   73.1550 C.3       4 GLP5        0.0000 
     51 CA          7.2542   -1.7651   77.1513 C.3       2 GLC5        0.0000 
     52 CA          7.3260   -3.5160   76.8070 C.3       4 GLP5        0.0000 
@<TRIPOS>BOND
@<TRIPOS>SUBSTRUCTURE
     1 SEC2       19 GROUP        1 X    SEC  0     ROOT SEC X 2
     2 GLC5        1 GROUP        1 X    GLC  0     **** GLC X 6
     3 SEP2       21 GROUP        1 Y    SEP  0     ROOT SEP Y 9
     4 GLP5        3 GROUP        1 Y    GLP  0     **** GLP Y 13
     5 SEL2       20 GROUP        1 Z    SEL  0     ROOT SEL Z 16
     6 GLL5        2 GROUP        1 Z    GLL  0     **** GLL Z 20
@<TRIPOS>SET

