#    Name: 4lud_SK8_1_ligand
#    Modification time : Tue Apr  8 00:09:42 2014

@<TRIPOS>MOLECULE
4lud_SK8_1_ligand
   33    36     1     0     0
SMALL
NO_CHARGES


@<TRIPOS>ATOM
      1 C1          9.5350    1.6810   78.1980 C.ar      1 SK8603      0.0000 
      2 C2          8.6280    0.6780   78.5550 C.ar      1 SK8603      0.0000 
      3 C3          7.6470    0.3140   77.6430 C.ar      1 SK8603      0.0000 
      4 C4          7.5630    0.9270   76.4010 C.ar      1 SK8603      0.0000 
      5 C5          8.4910    1.9220   76.0820 C.ar      1 SK8603      0.0000 
      6 C6          9.5090    2.3380   76.9560 C.ar      1 SK8603      0.0000 
      7 C7         10.4870    3.4170   76.5850 C.2       1 SK8603      0.0000 
      8 C8         11.9060    3.3910   76.4980 C.2       1 SK8603      0.0000 
      9 N9         12.3260    4.7020   76.0890 N.pl3     1 SK8603      0.0000 
     10 C10        11.1310    5.4340   75.9580 C.2       1 SK8603      0.0000 
     11 N11        10.0290    4.7100   76.2390 N.2       1 SK8603      0.0000 
     12 S12        11.3580    7.0820   75.4660 S.3       1 SK8603      0.0000 
     13 C13        13.1450    6.9180   75.2530 C.3       1 SK8603      0.0000 
     14 C14        13.5660    5.5210   75.7770 C.3       1 SK8603      0.0000 
     15 C15        12.8310    2.2720   76.7660 C.ar      1 SK8603      0.0000 
     16 C16        14.0530    2.5540   77.3900 C.ar      1 SK8603      0.0000 
     17 C17        14.9600    1.5210   77.6600 C.ar      1 SK8603      0.0000 
     18 N18        14.7250    0.2220   77.3530 N.ar      1 SK8603      0.0000 
     19 C19        13.5410   -0.0400   76.7530 C.ar      1 SK8603      0.0000 
     20 C20        12.5770    0.9390   76.4490 C.ar      1 SK8603      0.0000 
     21 F21         6.7600   -0.6490   77.9690 F         1 SK8603      0.0000 
     22 H          10.2719    1.9585   78.8894 H         1 SK8603      0.0000 
     23 H           8.6900    0.2276   79.4653 H         1 SK8603      0.0000 
     24 H           6.8424    0.6609   75.7332 H         1 SK8603      0.0000 
     25 H           8.4266    2.3837   75.1425 H         1 SK8603      0.0000 
     26 H          13.5252    7.7082   75.8310 H         1 SK8603      0.0000 
     27 H          13.2700    7.0254   74.2158 H         1 SK8603      0.0000 
     28 H          14.1529    5.0270   75.0143 H         1 SK8603      0.0000 
     29 H          14.1583    5.6507   76.6729 H         1 SK8603      0.0000 
     30 H          14.2844    3.5191   77.6499 H         1 SK8603      0.0000 
     31 H          15.8691    1.7877   78.1277 H         1 SK8603      0.0000 
     32 H          13.3039   -1.0390   76.4864 H         1 SK8603      0.0000 
     33 H          11.7007    0.6687   75.9999 H         1 SK8603      0.0000 
@<TRIPOS>BOND
     1    2    1 ar   
     2    6    1 ar   
     3   22    1 1    
     4    3    2 ar   
     5   23    2 1    
     6    4    3 ar   
     7   21    3 1    
     8    5    4 ar   
     9   24    4 1    
    10    6    5 ar   
    11   25    5 1    
    12    7    6 1    
    13    8    7 2    
    14   11    7 1    
    15    9    8 1    
    16   15    8 1    
    17   10    9 1    
    18   14    9 1    
    19   11   10 2    
    20   12   10 1    
    21   13   12 1    
    22   14   13 1    
    23   26   13 1    
    24   27   13 1    
    25   28   14 1    
    26   29   14 1    
    27   16   15 ar   
    28   20   15 ar   
    29   17   16 ar   
    30   30   16 1    
    31   18   17 ar   
    32   31   17 1    
    33   19   18 ar   
    34   20   19 ar   
    35   32   19 1    
    36   33   20 1    
@<TRIPOS>SUBSTRUCTURE
     1 SK8603      1 GROUP   
@<TRIPOS>SET

