#    Name: 2g82_NAD_4_INTS_M
#    Modification time : Tue Mar 25 13:42:08 2014

@<TRIPOS>MOLECULE
2g82_NAD_4_INTS_M
   79     0     9     0     0
SMALL
NO_CHARGES


@<TRIPOS>ATOM
      1 N          12.8265   53.1885  171.2945 N.am      2 SEC2        0.0000 
      2 N          11.3240   53.4020  170.8360 N.am      8 SEL2        0.0000 
      3 N          14.3290   52.9750  171.7530 N.am      5 SEP2        0.0000 
      4 N          10.1960   53.1080  171.7880 N.am      2 SEC2        0.0000 
      5 N           9.0680   52.8140  172.7400 N.am      5 SEP2        0.0000 
      6 CA         14.3910   57.6445  167.4125 C.3       3 GLC5        0.0000 
      7 CA         12.6000   57.1520  168.2440 C.3       9 GLL5        0.0000 
      8 CA         16.1820   58.1370  166.5810 C.3       6 GLP5        0.0000 
      9 CA         10.5245   57.2225  170.5780 C.3       3 GLC5        0.0000 
     10 CA         11.7970   57.9930  169.2440 C.3       9 GLL5        0.0000 
     11 CA          9.2520   56.4520  171.9120 C.3       6 GLP5        0.0000 
     12 CA         11.2855   58.6170  171.3440 C.3       3 GLC5        0.0000 
     13 CA         10.7740   59.2410  173.4440 C.3       6 GLP5        0.0000 
     14 O          13.7265   59.3525  169.8900 O.2       1 ALC1        0.0000 
     15 O          12.7020   58.4740  170.2480 O.2       7 ALL1        0.0000 
     16 O          14.7510   60.2310  169.5320 O.2       4 ALP1        0.0000 
     17 O          12.9820   60.1025  170.0495 O.2       1 ALC1        0.0000 
     18 O          13.2620   61.7310  169.8510 O.2       4 ALP1        0.0000 
     19 O          12.2045   61.0440  169.4855 O.2       1 ALC1        0.0000 
     20 O          11.1470   60.3570  169.1200 O.2       7 ALL1        0.0000 
     21 CA         14.2780   58.6995  166.9575 C.3       3 GLC5        0.0000 
     22 CA         12.3740   59.2620  167.3340 C.3       9 GLL5        0.0000 
     23 CA         12.9590   57.8435  165.6955 C.3       3 GLC5        0.0000 
     24 CA         13.5440   56.4250  164.0570 C.3       6 GLP5        0.0000 
     25 CA         11.1405   59.9510  162.5260 C.3       3 GLC5        0.0000 
     26 CA         11.8010   61.1120  164.2660 C.3       9 GLL5        0.0000 
     27 CA         10.4800   58.7900  160.7860 C.3       6 GLP5        0.0000 
     28 CA         11.8100   63.3975  164.4085 C.3       3 GLC5        0.0000 
     29 CA         12.3170   62.0120  163.3350 C.3       9 GLL5        0.0000 
     30 CA         11.3030   64.7830  165.4820 C.3       6 GLP5        0.0000 
     31 O          12.1480   63.5905  161.3940 O.2       1 ALC1        0.0000 
     32 O          11.6080   62.3980  162.2820 O.2       7 ALL1        0.0000 
     33 O          12.6880   64.7830  160.5060 O.2       4 ALP1        0.0000 
     34 CA         14.9030   62.5925  166.2785 C.3       3 GLC5        0.0000 
     35 CA         14.2670   62.1150  164.5660 C.3       9 GLL5        0.0000 
     36 CA         15.5390   63.0700  167.9910 C.3       6 GLP5        0.0000 
     37 CA         12.7850   63.4490  165.0240 C.3       3 GLC5        0.0000 
     38 CA         14.4305   60.3720  163.9365 C.3       3 GLC5        0.0000 
     39 CA         14.5940   58.6290  163.3070 C.3       6 GLP5        0.0000 
     40 N          14.8325   51.5330  169.7225 N.am      2 SEC2        0.0000 
     41 N          13.6370   51.9830  168.9960 N.am      8 SEL2        0.0000 
     42 N          16.0280   51.0830  170.4490 N.am      5 SEP2        0.0000 
     43 N          15.5380   50.4470  164.3305 N.am      2 SEC2        0.0000 
     44 N          14.1650   50.0130  165.0710 N.am      8 SEL2        0.0000 
     45 N          16.9110   50.8810  163.5900 N.am      5 SEP2        0.0000 
     46 CA         14.5930   48.9325  166.4470 C.3       3 GLC5        0.0000 
     47 CA         13.3710   48.9160  164.5930 C.3       9 GLL5        0.0000 
     48 CA         15.8150   48.9490  168.3010 C.3       6 GLP5        0.0000 
     49 CA         13.5845   48.7725  162.5335 C.3       3 GLC5        0.0000 
     50 CA         13.7980   48.6290  160.4740 C.3       6 GLP5        0.0000 
     51 N          12.2015   44.3680  170.4760 N.am      2 SEC2        0.0000 
     52 N          12.4560   45.2670  169.4150 N.am      8 SEL2        0.0000 
     53 N          11.9470   43.4690  171.5370 N.am      5 SEP2        0.0000 
     54 CA         16.5140   44.6815  166.7110 C.3       3 GLC5        0.0000 
     55 CA         14.8150   45.7410  165.9230 C.3       9 GLL5        0.0000 
     56 CA         18.2130   43.6220  167.4990 C.3       6 GLP5        0.0000 
     57 CA         15.1715   47.8850  166.7030 C.3       3 GLC5        0.0000 
     58 CA         14.5280   46.8210  165.1050 C.3       9 GLL5        0.0000 
     59 CA         12.8852   56.4620  166.0810 C.3       3 GLC5        0.0000 
     60 CA         13.3269   56.2580  169.8487 C.3       3 GLC5        0.0000 
     61 CA         11.8530   55.8460  167.9660 C.3       9 GLL5        0.0000 
     62 CA         14.6420   55.2700  171.0230 C.3       6 GLP5        0.0000 
     63 CA         11.5708   62.3675  165.7117 C.3       3 GLC5        0.0000 
     64 CA         12.5840   60.7480  165.3470 C.3       9 GLL5        0.0000 
     65 CA         10.9490   63.8050  166.6170 C.3       6 GLP5        0.0000 
     66 CA         13.4577   59.8920  163.9404 C.3       3 GLC5        0.0000 
     67 CA         14.9600   52.8608  164.7732 C.3       3 GLC5        0.0000 
     68 CA         13.1810   51.9800  166.0830 C.3       9 GLL5        0.0000 
     69 CA         16.6060   54.1100  164.1200 C.3       6 GLP5        0.0000 
     70 CA         12.0377   52.4500  163.4023 C.3       3 GLC5        0.0000 
     71 CA         13.4470   51.2430  164.7700 C.3       9 GLL5        0.0000 
     72 CA         11.2730   53.8680  162.3950 C.3       6 GLP5        0.0000 
     73 CA         14.4735   48.0472  167.7430 C.3       3 GLC5        0.0000 
     74 CA         12.9870   47.6950  166.7760 C.3       9 GLL5        0.0000 
     75 CA         15.3715   46.7283  167.8685 C.3       3 GLC5        0.0000 
     76 CA         14.1830   45.6280  167.1570 C.3       9 GLL5        0.0000 
     77 CA         16.2440   47.7720  169.1970 C.3       6 GLP5        0.0000 
     78 CA         14.5670   43.7797  166.5520 C.3       3 GLC5        0.0000 
     79 CA         14.6350   41.8750  166.5640 C.3       6 GLP5        0.0000 
@<TRIPOS>BOND
@<TRIPOS>SUBSTRUCTURE
     1 ALC1       14 GROUP        1 X    ALC  0     ROOT ALC X 1
     2 SEC2        1 GROUP        1 X    SEC  0     **** SEC X 2
     3 GLC5        6 GROUP        1 X    GLC  0     **** GLC X 6
     4 ALP1       16 GROUP        1 Y    ALP  0     ROOT ALP Y 8
     5 SEP2        3 GROUP        1 Y    SEP  0     **** SEP Y 9
     6 GLP5        8 GROUP        1 Y    GLP  0     **** GLP Y 13
     7 ALL1       15 GROUP        1 Z    ALL  0     ROOT ALL Z 15
     8 SEL2        2 GROUP        1 Z    SEL  0     **** SEL Z 16
     9 GLL5        7 GROUP        1 Z    GLL  0     **** GLL Z 20
@<TRIPOS>SET

