#    Name: 2g82_NAD_4_ligand
#    Modification time : Tue Mar 25 13:42:08 2014

@<TRIPOS>MOLECULE
2g82_NAD_4_ligand
   70    74     1     0     0
SMALL
NO_CHARGES


@<TRIPOS>ATOM
      1 PA         10.9610   53.8640  169.4870 P.3       1 NAD336      0.0000 
      2 O1A         9.5770   54.3450  169.2270 O.co2     1 NAD336      0.0000 
      3 O2A        11.3240   53.4020  170.8360 O.co2     1 NAD336      0.0000 
      4 O5B        12.0430   54.9640  169.0740 O.3       1 NAD336      0.0000 
      5 C5B        11.8530   55.8460  167.9660 C.3       1 NAD336      0.0000 
      6 C4B        12.6000   57.1520  168.2440 C.3       1 NAD336      0.0000 
      7 O4B        12.6790   57.8980  167.0100 O.3       1 NAD336      0.0000 
      8 C3B        11.7970   57.9930  169.2440 C.3       1 NAD336      0.0000 
      9 O3B        12.7020   58.4740  170.2480 O.3       1 NAD336      0.0000 
     10 C2B        11.2660   59.1320  168.3730 C.3       1 NAD336      0.0000 
     11 O2B        11.1470   60.3570  169.1200 O.3       1 NAD336      0.0000 
     12 C1B        12.3740   59.2620  167.3340 C.3       1 NAD336      0.0000 
     13 N9A        11.8860   59.8910  166.0870 N.pl3     1 NAD336      0.0000 
     14 C8A        10.6970   59.7110  165.4930 C.2       1 NAD336      0.0000 
     15 N7A        10.6470   60.4600  164.3840 N.2       1 NAD336      0.0000 
     16 C5A        11.8010   61.1120  164.2660 C.ar      1 NAD336      0.0000 
     17 C6A        12.3170   62.0120  163.3350 C.ar      1 NAD336      0.0000 
     18 N6A        11.6080   62.3980  162.2820 N.pl3     1 NAD336      0.0000 
     19 N1A        13.5520   62.4910  163.5140 N.ar      1 NAD336      0.0000 
     20 C2A        14.2670   62.1150  164.5660 C.ar      1 NAD336      0.0000 
     21 N3A        13.8090   61.2620  165.4730 N.ar      1 NAD336      0.0000 
     22 C4A        12.5840   60.7480  165.3470 C.ar      1 NAD336      0.0000 
     23 O3         11.2740   52.7370  168.3920 O.3       1 NAD336      0.0000 
     24 PN         12.3210   51.5040  168.4910 P.3       1 NAD336      0.0000 
     25 O1N        11.6440   50.3530  169.1200 O.co2     1 NAD336      0.0000 
     26 O2N        13.6370   51.9830  168.9960 O.co2     1 NAD336      0.0000 
     27 O5D        12.4410   51.1270  166.9540 O.3       1 NAD336      0.0000 
     28 C5D        13.1810   51.9800  166.0830 C.3       1 NAD336      0.0000 
     29 C4D        13.4470   51.2430  164.7700 C.3       1 NAD336      0.0000 
     30 O4D        14.1650   50.0130  165.0710 O.3       1 NAD336      0.0000 
     31 C3D        12.1580   50.8210  164.0490 C.3       1 NAD336      0.0000 
     32 O3D        12.4730   50.7760  162.6460 O.3       1 NAD336      0.0000 
     33 C2D        11.9310   49.4150  164.5970 C.3       1 NAD336      0.0000 
     34 O2D        11.1350   48.6160  163.7020 O.3       1 NAD336      0.0000 
     35 C1D        13.3710   48.9160  164.5930 C.3       1 NAD336      0.0000 
     36 N1N        13.6160   47.7950  165.5250 N.pl3     1 NAD336      0.0000 
     37 C2N        12.9870   47.6950  166.7760 C.ar      1 NAD336      0.0000 
     38 C3N        13.2770   46.5960  167.5940 C.ar      1 NAD336      0.0000 
     39 C7N        12.6280   46.4000  168.9670 C.2       1 NAD336      0.0000 
     40 O7N        12.4560   45.2670  169.4150 O.2       1 NAD336      0.0000 
     41 N7N        12.2630   47.5030  169.6000 N.am      1 NAD336      0.0000 
     42 C4N        14.1830   45.6280  167.1570 C.ar      1 NAD336      0.0000 
     43 C5N        14.8150   45.7410  165.9230 C.ar      1 NAD336      0.0000 
     44 C6N        14.5280   46.8210  165.1050 C.ar      1 NAD336      0.0000 
     45 H          10.7996   56.0894  167.8151 H         1 NAD336      0.0000 
     46 H          12.2479   55.4262  167.0389 H         1 NAD336      0.0000 
     47 H          13.5494   56.9417  168.6437 H         1 NAD336      0.0000 
     48 H          11.0063   57.4232  169.6020 H         1 NAD336      0.0000 
     49 H          10.3917   58.8202  167.8972 H         1 NAD336      0.0000 
     50 H          13.1911   59.7544  167.7402 H         1 NAD336      0.0000 
     51 H           9.9869   59.1303  165.8163 H         1 NAD336      0.0000 
     52 H          12.0522   63.0500  161.6674 H         1 NAD336      0.0000 
     53 H          10.6935   62.0021  162.1981 H         1 NAD336      0.0000 
     54 H          15.2490   62.5141  164.6877 H         1 NAD336      0.0000 
     55 H          14.1478   52.2600  166.5102 H         1 NAD336      0.0000 
     56 H          12.6331   52.8961  165.8462 H         1 NAD336      0.0000 
     57 H          14.0230   51.8583  164.1198 H         1 NAD336      0.0000 
     58 H          11.3965   51.4470  164.3143 H         1 NAD336      0.0000 
     59 H          11.5963   49.4738  165.5716 H         1 NAD336      0.0000 
     60 H          13.6545   48.6602  163.6032 H         1 NAD336      0.0000 
     61 H          12.3316   48.4098  167.0818 H         1 NAD336      0.0000 
     62 H          12.4710   48.3650  169.1377 H         1 NAD336      0.0000 
     63 H          11.8122   47.3747  170.4833 H         1 NAD336      0.0000 
     64 H          14.3863   44.8138  167.7626 H         1 NAD336      0.0000 
     65 H          15.4888   45.0276  165.6234 H         1 NAD336      0.0000 
     66 H          14.9823   46.9126  164.1872 H         1 NAD336      0.0000 
     67 H          13.3138   59.1011  169.7658 H         1 NAD336      0.0000 
     68 H          12.0879   60.6599  169.2717 H         1 NAD336      0.0000 
     69 H          12.1529   49.8802  162.3376 H         1 NAD336      0.0000 
     70 H          11.5147   47.6935  163.7717 H         1 NAD336      0.0000 
@<TRIPOS>BOND
     1    2    1 ar   
     2    3    1 ar   
     3    4    1 1    
     4   23    1 1    
     5    5    4 1    
     6    6    5 1    
     7   45    5 1    
     8   46    5 1    
     9    7    6 1    
    10    8    6 1    
    11   47    6 1    
    12   12    7 1    
    13    9    8 1    
    14   10    8 1    
    15   48    8 1    
    16   67    9 1    
    17   11   10 1    
    18   12   10 1    
    19   49   10 1    
    20   68   11 1    
    21   13   12 1    
    22   50   12 1    
    23   14   13 1    
    24   22   13 1    
    25   15   14 2    
    26   51   14 1    
    27   16   15 1    
    28   17   16 ar   
    29   22   16 ar   
    30   18   17 1    
    31   19   17 ar   
    32   52   18 1    
    33   53   18 1    
    34   20   19 ar   
    35   21   20 ar   
    36   54   20 1    
    37   22   21 ar   
    38   24   23 1    
    39   25   24 ar   
    40   26   24 ar   
    41   27   24 1    
    42   28   27 1    
    43   29   28 1    
    44   55   28 1    
    45   56   28 1    
    46   30   29 1    
    47   31   29 1    
    48   57   29 1    
    49   35   30 1    
    50   32   31 1    
    51   33   31 1    
    52   58   31 1    
    53   69   32 1    
    54   34   33 1    
    55   35   33 1    
    56   59   33 1    
    57   70   34 1    
    58   36   35 1    
    59   60   35 1    
    60   37   36 ar   
    61   44   36 ar   
    62   38   37 ar   
    63   61   37 1    
    64   39   38 1    
    65   42   38 ar   
    66   40   39 2    
    67   41   39 am   
    68   62   41 1    
    69   63   41 1    
    70   43   42 ar   
    71   64   42 1    
    72   44   43 ar   
    73   65   43 1    
    74   66   44 1    
@<TRIPOS>SUBSTRUCTURE
     1 NAD336      1 GROUP   
@<TRIPOS>SET

