#    Name: 1dib_L34_1_INTS_M
#    Modification time : Mon Mar 24 21:58:58 2014

@<TRIPOS>MOLECULE
1dib_L34_1_INTS_M
   46     0     9     0     0
SMALL
NO_CHARGES


@<TRIPOS>ATOM
      1 O           0.2000   49.2735   12.6735 O.2       1 ALC1        0.0000 
      2 O           1.3110   49.6580   13.5750 O.2       7 ALL1        0.0000 
      3 O          -0.9110   48.8890   11.7720 O.2       4 ALP1        0.0000 
      4 O           2.8940   49.6400   13.8390 O.2       1 ALC1        0.0000 
      5 O           4.4770   49.6220   14.1030 O.2       4 ALP1        0.0000 
      6 CA          1.7255   50.9580   12.8840 C.3       3 GLC5        0.0000 
      7 CA          1.2780   50.3750   14.7080 C.3       9 GLL5        0.0000 
      8 CA          2.1730   51.5410   11.0600 C.3       6 GLP5        0.0000 
      9 N           3.4675   50.2900   14.6650 N.am      2 SEC2        0.0000 
     10 N           2.4580   50.9580   15.2270 N.am      8 SEL2        0.0000 
     11 N           4.4770   49.6220   14.1030 N.am      5 SEP2        0.0000 
     12 CA          2.5755   53.6255   15.2880 C.3       3 GLC5        0.0000 
     13 CA          2.3740   51.7960   16.3100 C.3       9 GLL5        0.0000 
     14 CA          2.7770   55.4550   14.2660 C.3       6 GLP5        0.0000 
     15 N           2.2335   54.4560   15.5500 N.am      2 SEC2        0.0000 
     16 N           2.5730   54.6270   17.0950 N.am      8 SEL2        0.0000 
     17 N           1.8940   54.2850   14.0050 N.am      5 SEP2        0.0000 
     18 CA         -1.4010   56.2495   18.0730 C.3       3 GLC5        0.0000 
     19 CA         -0.3000   54.9250   18.7670 C.3       9 GLL5        0.0000 
     20 CA         -2.5020   57.5740   17.3790 C.3       6 GLP5        0.0000 
     21 CA          0.7060   54.1655   20.1370 C.3       3 GLC5        0.0000 
     22 CA          1.7120   53.4060   21.5070 C.3       6 GLP5        0.0000 
     23 CA          0.7125   57.8240   16.8060 C.3       3 GLC5        0.0000 
     24 CA          2.3980   57.3210   18.1060 C.3       9 GLL5        0.0000 
     25 CA         -0.9730   58.3270   15.5060 C.3       6 GLP5        0.0000 
     26 CA          2.5875   56.3880   16.1860 C.3       3 GLC5        0.0000 
     27 CA          3.8000   55.7205   18.7860 C.3       3 GLC5        0.0000 
     28 CA          5.2020   54.1200   19.4660 C.3       6 GLP5        0.0000 
     29 CA          3.8245   60.3480   22.5215 C.3       3 GLC5        0.0000 
     30 CA          2.8560   62.1610   21.9260 C.3       9 GLL5        0.0000 
     31 CA          4.7930   58.5350   23.1170 C.3       6 GLP5        0.0000 
     32 CA          4.7345   61.5075   22.7580 C.3       3 GLC5        0.0000 
     33 CA          6.6130   60.8540   23.5900 C.3       6 GLP5        0.0000 
     34 CA          1.7415   63.6730   24.1945 C.3       3 GLC5        0.0000 
     35 CA          1.6850   63.1040   22.1580 C.3       9 GLL5        0.0000 
     36 CA          1.7980   64.2420   26.2310 C.3       6 GLP5        0.0000 
     37 N           4.4215   63.1515   25.1170 N.am      2 SEC2        0.0000 
     38 N           4.2140   62.6620   23.7960 N.am      8 SEL2        0.0000 
     39 N           4.6290   63.6410   26.4380 N.am      5 SEP2        0.0000 
     40 CA         -0.0267   52.7670   19.8435 C.3       3 GLC5        0.0000 
     41 CA         -0.2580   53.3760   18.5950 C.3       9 GLL5        0.0000 
     42 CA          0.7680   52.3930   21.5600 C.3       6 GLP5        0.0000 
     43 CA          3.3327   58.7122   21.5498 C.3       3 GLC5        0.0000 
     44 CA          2.3390   59.2170   19.5870 C.3       9 GLL5        0.0000 
     45 CA          4.2181   58.6059   18.0784 C.3       3 GLC5        0.0000 
     46 CA          5.9540   58.6250   17.2230 C.3       6 GLP5        0.0000 
@<TRIPOS>BOND
@<TRIPOS>SUBSTRUCTURE
     1 ALC1        1 GROUP        1 X    ALC  0     ROOT ALC X 1
     2 SEC2        9 GROUP        1 X    SEC  0     **** SEC X 2
     3 GLC5        6 GROUP        1 X    GLC  0     **** GLC X 6
     4 ALP1        3 GROUP        1 Y    ALP  0     ROOT ALP Y 8
     5 SEP2       11 GROUP        1 Y    SEP  0     **** SEP Y 9
     6 GLP5        8 GROUP        1 Y    GLP  0     **** GLP Y 13
     7 ALL1        2 GROUP        1 Z    ALL  0     ROOT ALL Z 15
     8 SEL2       10 GROUP        1 Z    SEL  0     **** SEL Z 16
     9 GLL5        7 GROUP        1 Z    GLL  0     **** GLL Z 20
@<TRIPOS>SET

