#    Name: 1dib_L34_1_ligand
#    Modification time : Mon Mar 24 21:58:58 2014

@<TRIPOS>MOLECULE
1dib_L34_1_ligand
   53    56     1     0     0
SMALL
NO_CHARGES


@<TRIPOS>ATOM
      1 N2A         1.3110   49.6580   13.5750 N.pl3     1 L343001     0.0000 
      2 N1          0.1290   50.6070   15.3300 N.ar      1 L343001     0.0000 
      3 C2          1.2780   50.3750   14.7080 C.ar      1 L343001     0.0000 
      4 N3          2.4580   50.9580   15.2270 N.ar      1 L343001     0.0000 
      5 C4          2.3740   51.7960   16.3100 C.ar      1 L343001     0.0000 
      6 O4A         3.5350   52.2960   16.8800 O.3       1 L343001     0.0000 
      7 C4A         1.1600   52.0570   16.9080 C.ar      1 L343001     0.0000 
      8 N5          1.0300   53.1870   17.8440 N.am      1 L343001     0.0000 
      9 C6         -0.2580   53.3760   18.5950 C.3       1 L343001     0.0000 
     10 C7         -1.3850   52.9060   17.6590 C.3       1 L343001     0.0000 
     11 N8         -1.1250   51.7550   16.9800 N.pl3     1 L343001     0.0000 
     12 C8A         0.0790   51.4650   16.4300 C.ar      1 L343001     0.0000 
     13 CX          1.6870   54.3420   17.8710 C.2       1 L343001     0.0000 
     14 OX          2.5730   54.6270   17.0950 O.2       1 L343001     0.0000 
     15 C9         -0.3000   54.9250   18.7670 C.3       1 L343001     0.0000 
     16 N10         1.1250   55.2340   18.6910 N.am      1 L343001     0.0000 
     17 C1B         1.4500   56.6500   18.9300 C.ar      1 L343001     0.0000 
     18 C2B         2.3980   57.3210   18.1060 C.ar      1 L343001     0.0000 
     19 C3B         2.8530   58.5920   18.4550 C.ar      1 L343001     0.0000 
     20 C4B         2.3390   59.2170   19.5870 C.ar      1 L343001     0.0000 
     21 C5B         1.4060   58.5620   20.3780 C.ar      1 L343001     0.0000 
     22 C6B         0.9440   57.3000   20.0400 C.ar      1 L343001     0.0000 
     23 C7B         2.8280   60.5870   20.0220 C.2       1 L343001     0.0000 
     24 O7B         3.7150   61.1700   19.3920 O.2       1 L343001     0.0000 
     25 N           2.4160   60.9480   21.2400 N.am      1 L343001     0.0000 
     26 CA          2.8560   62.1610   21.9260 C.3       1 L343001     0.0000 
     27 CB          1.6850   63.1040   22.1580 C.3       1 L343001     0.0000 
     28 CG          0.9080   63.4880   20.9390 C.3       1 L343001     0.0000 
     29 CD         -0.1630   64.4960   21.2710 C.2       1 L343001     0.0000 
     30 OE1        -1.2940   64.0820   21.6010 O.co2     1 L343001     0.0000 
     31 OE2         0.1280   65.7080   21.2170 O.co2     1 L343001     0.0000 
     32 C           3.4260   61.8370   23.2980 C.2       1 L343001     0.0000 
     33 O           3.0060   60.8250   23.8980 O.co2     1 L343001     0.0000 
     34 OXT         4.2140   62.6620   23.7960 O.co2     1 L343001     0.0000 
     35 H           0.4264   49.3574   13.2186 H         1 L343001     0.0000 
     36 H           2.2173   49.4882   13.1879 H         1 L343001     0.0000 
     37 H          -0.2505   52.9073   19.4866 H         1 L343001     0.0000 
     38 H          -1.5999   53.7758   16.9768 H         1 L343001     0.0000 
     39 H          -2.3074   52.8348   18.3011 H         1 L343001     0.0000 
     40 H          -1.9116   51.0463   16.8770 H         1 L343001     0.0000 
     41 H          -0.7033   55.1383   19.7151 H         1 L343001     0.0000 
     42 H          -0.8384   55.3296   17.9587 H         1 L343001     0.0000 
     43 H           2.7378   56.8586   17.2591 H         1 L343001     0.0000 
     44 H           3.5602   59.0609   17.8817 H         1 L343001     0.0000 
     45 H           1.0496   59.0243   21.2346 H         1 L343001     0.0000 
     46 H           0.2210   56.8461   20.6189 H         1 L343001     0.0000 
     47 H           1.7310   60.3552   21.7823 H         1 L343001     0.0000 
     48 H           3.6030   62.6836   21.3636 H         1 L343001     0.0000 
     49 H           2.0696   64.0245   22.6552 H         1 L343001     0.0000 
     50 H           0.9986   62.6342   22.9000 H         1 L343001     0.0000 
     51 H           0.4416   62.5972   20.5030 H         1 L343001     0.0000 
     52 H           1.5844   63.9147   20.1896 H         1 L343001     0.0000 
     53 H           3.5781   53.2504   16.5845 H         1 L343001     0.0000 
@<TRIPOS>BOND
     1    3    1 1    
     2   35    1 1    
     3   36    1 1    
     4    3    2 ar   
     5   12    2 ar   
     6    4    3 ar   
     7    5    4 ar   
     8    6    5 1    
     9    7    5 ar   
    10   53    6 1    
    11    8    7 1    
    12   12    7 ar   
    13    9    8 1    
    14   13    8 am   
    15   10    9 1    
    16   15    9 1    
    17   37    9 1    
    18   11   10 1    
    19   38   10 1    
    20   39   10 1    
    21   12   11 1    
    22   40   11 1    
    23   14   13 2    
    24   16   13 am   
    25   16   15 1    
    26   41   15 1    
    27   42   15 1    
    28   17   16 1    
    29   18   17 ar   
    30   22   17 ar   
    31   19   18 ar   
    32   43   18 1    
    33   20   19 ar   
    34   44   19 1    
    35   21   20 ar   
    36   23   20 1    
    37   22   21 ar   
    38   45   21 1    
    39   46   22 1    
    40   24   23 2    
    41   25   23 am   
    42   26   25 1    
    43   47   25 1    
    44   27   26 1    
    45   32   26 1    
    46   48   26 1    
    47   28   27 1    
    48   49   27 1    
    49   50   27 1    
    50   29   28 1    
    51   51   28 1    
    52   52   28 1    
    53   30   29 ar   
    54   31   29 ar   
    55   33   32 ar   
    56   34   32 ar   
@<TRIPOS>SUBSTRUCTURE
     1 L343001     1 GROUP   
@<TRIPOS>SET

