#    Name: 3e2m_E2M_2_INTS_M
#    Modification time : Tue Mar 25 00:51:32 2014

@<TRIPOS>MOLECULE
3e2m_E2M_2_INTS_M
  112     0     6     0     0
SMALL
NO_CHARGES


@<TRIPOS>ATOM
      1 CA        -13.9615   17.5030  -32.0105 C.3       2 GLC5        0.0000 
      2 CA        -15.6590   18.9700  -31.9680 C.3       6 GLL5        0.0000 
      3 CA        -12.2640   16.0360  -32.0530 C.3       4 GLP5        0.0000 
      4 CA        -13.1105   17.5300  -31.1490 C.3       2 GLC5        0.0000 
      5 CA        -13.9570   19.0240  -30.2450 C.3       6 GLL5        0.0000 
      6 CA        -20.7820   12.7635  -30.6515 C.3       2 GLC5        0.0000 
      7 CA        -19.6210   14.0950  -29.9750 C.3       6 GLL5        0.0000 
      8 CA        -21.9430   11.4320  -31.3280 C.3       4 GLP5        0.0000 
      9 CA        -18.3545   12.9105  -31.2705 C.3       2 GLC5        0.0000 
     10 CA        -17.0880   11.7260  -32.5660 C.3       4 GLP5        0.0000 
     11 CA        -20.9655   14.9720  -31.0765 C.3       2 GLC5        0.0000 
     12 CA        -22.3100   15.8490  -32.1780 C.3       4 GLP5        0.0000 
     13 CA        -17.6190   13.2060  -32.0000 C.3       2 GLC5        0.0000 
     14 CA        -18.1500   14.6860  -31.4340 C.3       6 GLL5        0.0000 
     15 CA        -19.4750   14.9095  -32.7795 C.3       2 GLC5        0.0000 
     16 CA        -20.8000   15.1330  -34.1250 C.3       4 GLP5        0.0000 
     17 CA        -17.6500   14.6760  -33.3535 C.3       2 GLC5        0.0000 
     18 CA        -17.1500   14.6660  -35.2730 C.3       4 GLP5        0.0000 
     19 CA        -17.1900   15.7380  -33.6050 C.3       2 GLC5        0.0000 
     20 CA        -17.2300   16.8100  -31.9370 C.3       6 GLL5        0.0000 
     21 CA        -15.4695   15.6855  -32.7035 C.3       2 GLC5        0.0000 
     22 CA        -13.7090   14.5610  -33.4700 C.3       4 GLP5        0.0000 
     23 CA        -13.0055   17.8220  -27.0965 C.3       2 GLC5        0.0000 
     24 CA        -12.9120   19.7210  -28.0970 C.3       6 GLL5        0.0000 
     25 CA        -13.0990   15.9230  -26.0960 C.3       4 GLP5        0.0000 
     26 CA        -15.1590   21.8610  -25.8280 C.3       2 GLC5        0.0000 
     27 CA        -14.8420   21.2380  -27.5670 C.3       6 GLL5        0.0000 
     28 CA        -15.4760   22.4840  -24.0890 C.3       4 GLP5        0.0000 
     29 CA        -19.3120   19.2235  -32.1220 C.3       2 GLC5        0.0000 
     30 CA        -18.3760   18.5480  -30.2550 C.3       6 GLL5        0.0000 
     31 CA        -20.2480   19.8990  -33.9890 C.3       4 GLP5        0.0000 
     32 CA        -18.4595   18.0095  -26.5715 C.3       2 GLC5        0.0000 
     33 CA        -19.7080   17.8670  -28.3710 C.3       6 GLL5        0.0000 
     34 CA        -17.2110   18.1520  -24.7720 C.3       4 GLP5        0.0000 
     35 CA        -19.3455   16.0325  -25.2160 C.3       2 GLC5        0.0000 
     36 CA        -20.4280   15.9390  -26.6830 C.3       6 GLL5        0.0000 
     37 CA        -18.2630   16.1260  -23.7490 C.3       4 GLP5        0.0000 
     38 CA        -20.8085   14.5270  -25.2495 C.3       2 GLC5        0.0000 
     39 CA        -21.1890   13.1150  -23.8160 C.3       4 GLP5        0.0000 
     40 CA        -22.1425   16.1205  -25.3765 C.3       2 GLC5        0.0000 
     41 CA        -23.8570   16.3020  -24.0700 C.3       4 GLP5        0.0000 
     42 CA        -21.8830   13.0405  -29.3055 C.3       2 GLC5        0.0000 
     43 CA        -21.1860   14.9900  -28.4640 C.3       6 GLL5        0.0000 
     44 CA        -22.5800   11.0910  -30.1470 C.3       4 GLP5        0.0000 
     45 CA        -21.7480   15.4195  -30.3210 C.3       2 GLC5        0.0000 
     46 CA        -18.7470   15.3005  -25.7330 C.3       2 GLC5        0.0000 
     47 CA        -19.2310   14.4750  -27.7170 C.3       6 GLL5        0.0000 
     48 CA        -17.4930   14.0735  -26.6985 C.3       2 GLC5        0.0000 
     49 CA        -15.7550   13.6720  -25.6800 C.3       4 GLP5        0.0000 
     50 CA        -19.4280   17.9285  -25.5295 C.3       2 GLC5        0.0000 
     51 CA        -20.5290   18.2120  -27.1890 C.3       6 GLL5        0.0000 
     52 CA        -18.3270   17.6450  -23.8700 C.3       4 GLP5        0.0000 
     53 CA        -21.0985   20.4310  -28.8455 C.3       2 GLC5        0.0000 
     54 CA        -21.0140   19.4420  -27.0520 C.3       6 GLL5        0.0000 
     55 CA        -21.1830   21.4200  -30.6390 C.3       4 GLP5        0.0000 
     56 N         -22.3250   18.3000  -24.1270 N.am      1 SEC2        0.0000 
     57 N         -22.4280   18.9140  -25.2600 N.am      5 SEL2        0.0000 
     58 N         -22.2220   17.6860  -22.9940 N.am      3 SEP2        0.0000 
     59 CA        -25.7855   22.9235  -25.5530 C.3       2 GLC5        0.0000 
     60 CA        -23.6730   22.5700  -25.2060 C.3       6 GLL5        0.0000 
     61 CA        -27.8980   23.2770  -25.9000 C.3       4 GLP5        0.0000 
     62 CA        -24.7305   21.3940  -26.7035 C.3       2 GLC5        0.0000 
     63 CA        -25.7880   20.2180  -28.2010 C.3       4 GLP5        0.0000 
     64 CA        -24.6565   23.7595  -26.7125 C.3       2 GLC5        0.0000 
     65 CA        -25.6400   24.9490  -28.2190 C.3       4 GLP5        0.0000 
     66 CA        -22.9635   23.4725  -28.6790 C.3       2 GLC5        0.0000 
     67 CA        -22.0120   23.0520  -26.8140 C.3       6 GLL5        0.0000 
     68 CA        -23.9150   23.8930  -30.5440 C.3       4 GLP5        0.0000 
     69 CA        -18.9905   22.2130  -25.2680 C.3       2 GLC5        0.0000 
     70 CA        -21.0370   22.0720  -26.1720 C.3       6 GLL5        0.0000 
     71 CA        -16.9440   22.3540  -24.3640 C.3       4 GLP5        0.0000 
     72 CA        -16.9925   13.3140  -30.8170 C.3       2 GLC5        0.0000 
     73 CA        -18.5060   14.7740  -30.1670 C.3       6 GLL5        0.0000 
     74 CA        -15.9570   12.1030  -31.8480 C.3       4 GLP5        0.0000 
     75 CA        -20.1585   16.3665  -30.9390 C.3       2 GLC5        0.0000 
     76 CA        -21.6990   17.2390  -31.8900 C.3       4 GLP5        0.0000 
     77 CA        -16.6175   13.9225  -28.9225 C.3       2 GLC5        0.0000 
     78 CA        -15.2070   13.3200  -28.0590 C.3       4 GLP5        0.0000 
     79 CA        -19.6992   17.1255  -31.5755 C.3       2 GLC5        0.0000 
     80 CA        -18.1690   17.2140  -30.5850 C.3       6 GLL5        0.0000 
     81 CA        -18.2994   12.5591  -29.1485 C.3       2 GLC5        0.0000 
     82 CA        -18.2920   10.7630  -28.5590 C.3       4 GLP5        0.0000 
     83 CA        -15.1435   19.0978  -35.2203 C.3       2 GLC5        0.0000 
     84 CA        -17.0640   18.6330  -33.8880 C.3       6 GLL5        0.0000 
     85 CA        -13.4760   18.9830  -36.2640 C.3       4 GLP5        0.0000 
     86 CA        -18.4730   19.5046  -33.9266 C.3       2 GLC5        0.0000 
     87 CA        -16.5580   19.7920  -34.4650 C.3       6 GLL5        0.0000 
     88 CA        -16.7780   17.4496  -35.0601 C.3       2 GLC5        0.0000 
     89 CA        -16.8580   15.7890  -36.2560 C.3       4 GLP5        0.0000 
     90 CA        -16.9297   22.0748  -34.4560 C.3       2 GLC5        0.0000 
     91 CA        -17.7800   23.9830  -34.7840 C.3       4 GLP5        0.0000 
     92 CA        -14.0210   19.6152  -34.0475 C.3       2 GLC5        0.0000 
     93 CA        -15.6010   20.5410  -33.7910 C.3       6 GLL5        0.0000 
     94 CA        -12.5390   19.1850  -35.0720 C.3       4 GLP5        0.0000 
     95 CA        -11.5902   18.5482  -28.3837 C.3       2 GLC5        0.0000 
     96 CA        -13.8510   18.7180  -28.7560 C.3       6 GLL5        0.0000 
     97 CA         -9.7990   17.8770  -28.3410 C.3       4 GLP5        0.0000 
     98 CA        -14.3975   17.0285  -27.6678 C.3       2 GLC5        0.0000 
     99 CA        -14.2540   15.2890  -26.8990 C.3       4 GLP5        0.0000 
    100 CA        -13.2028   20.5339  -25.9396 C.3       2 GLC5        0.0000 
    101 CA        -12.3910   20.2340  -24.0200 C.3       4 GLP5        0.0000 
    102 CA        -16.3585   18.8392  -26.4718 C.3       2 GLC5        0.0000 
    103 CA        -15.2310   18.8180  -28.1170 C.3       6 GLL5        0.0000 
    104 CA        -20.2303   17.9753  -30.7952 C.3       2 GLC5        0.0000 
    105 CA        -19.1470   18.8750  -29.1460 C.3       6 GLL5        0.0000 
    106 CA        -20.6510   17.2212  -30.2137 C.3       2 GLC5        0.0000 
    107 CA        -22.4125   15.5630  -28.1883 C.3       2 GLC5        0.0000 
    108 CA        -24.0990   15.7830  -28.5070 C.3       4 GLP5        0.0000 
    109 CA        -20.0625   13.1146  -27.5411 C.3       2 GLC5        0.0000 
    110 CA        -20.1870   11.3810  -27.1410 C.3       4 GLP5        0.0000 
    111 CA        -20.7677   22.3125  -28.3905 C.3       2 GLC5        0.0000 
    112 CA        -20.0110   22.0630  -30.2880 C.3       4 GLP5        0.0000 
@<TRIPOS>BOND
@<TRIPOS>SUBSTRUCTURE
     1 SEC2       56 GROUP        1 X    SEC  0     ROOT SEC X 2
     2 GLC5        1 GROUP        1 X    GLC  0     **** GLC X 6
     3 SEP2       58 GROUP        1 Y    SEP  0     ROOT SEP Y 9
     4 GLP5        3 GROUP        1 Y    GLP  0     **** GLP Y 13
     5 SEL2       57 GROUP        1 Z    SEL  0     ROOT SEL Z 16
     6 GLL5        2 GROUP        1 Z    GLL  0     **** GLL Z 20
@<TRIPOS>SET

