#    Name: 3e2m_E2M_2_ligand
#    Modification time : Tue Mar 25 00:51:32 2014

@<TRIPOS>MOLECULE
3e2m_E2M_2_ligand
   70    73     1     0     0
SMALL
NO_CHARGES


@<TRIPOS>ATOM
      1 O1        -15.2150   18.5650  -30.7360 O.3       1 E2M1        0.0000 
      2 C1        -18.5060   14.7740  -30.1670 C.3       1 E2M1        0.0000 
      3 C2        -18.7300   16.2140  -29.8090 C.ar      1 E2M1        0.0000 
      4 C3        -18.1690   17.2140  -30.5850 C.ar      1 E2M1        0.0000 
      5 C4        -16.6120   18.2240  -32.6390 C.ar      1 E2M1        0.0000 
      6 C5        -15.6590   18.9700  -31.9680 C.ar      1 E2M1        0.0000 
      7 C6        -13.9570   19.0240  -30.2450 C.3       1 E2M1        0.0000 
      8 F6        -19.6210   14.0950  -29.9750 F         1 E2M1        0.0000 
      9 F1        -18.1500   14.6860  -31.4340 F         1 E2M1        0.0000 
     10 F2        -17.5500   14.2760  -29.4050 F         1 E2M1        0.0000 
     11 S         -17.2300   16.8100  -31.9370 S.3       1 E2M1        0.0000 
     12 C17       -17.0640   18.6330  -33.8880 C.ar      1 E2M1        0.0000 
     13 C16       -16.5580   19.7920  -34.4650 C.ar      1 E2M1        0.0000 
     14 C15       -15.6010   20.5410  -33.7910 C.ar      1 E2M1        0.0000 
     15 C14       -15.1510   20.1300  -32.5420 C.ar      1 E2M1        0.0000 
     16 C7        -13.8510   18.7180  -28.7560 C.3       1 E2M1        0.0000 
     17 C12       -12.9120   19.7210  -28.0970 C.3       1 E2M1        0.0000 
     18 C11       -13.4620   21.1380  -28.2060 C.3       1 E2M1        0.0000 
     19 C10       -14.8420   21.2380  -27.5670 C.3       1 E2M1        0.0000 
     20 C13       -15.3920   22.6550  -27.6760 C.2       1 E2M1        0.0000 
     21 O3        -15.3720   23.3360  -28.9350 O.co2     1 E2M1        0.0000 
     22 O2        -15.9880   23.2810  -26.5340 O.co2     1 E2M1        0.0000 
     23 C9        -15.7810   20.2350  -28.2260 C.3       1 E2M1        0.0000 
     24 C8        -15.2310   18.8180  -28.1170 C.3       1 E2M1        0.0000 
     25 C18       -18.3760   18.5480  -30.2550 C.ar      1 E2M1        0.0000 
     26 C19       -19.1470   18.8750  -29.1460 C.ar      1 E2M1        0.0000 
     27 C20       -19.7080   17.8670  -28.3710 C.ar      1 E2M1        0.0000 
     28 C28       -19.4980   16.5400  -28.7040 C.ar      1 E2M1        0.0000 
     29 C29       -20.1040   15.4530  -27.8670 C.3       1 E2M1        0.0000 
     30 F5        -20.4280   15.9390  -26.6830 F         1 E2M1        0.0000 
     31 F4        -21.1860   14.9900  -28.4640 F         1 E2M1        0.0000 
     32 F3        -19.2310   14.4750  -27.7170 F         1 E2M1        0.0000 
     33 C21       -20.5290   18.2120  -27.1890 C.2       1 E2M1        0.0000 
     34 C22       -21.0140   19.4420  -27.0520 C.2       1 E2M1        0.0000 
     35 C23       -21.8320   19.7840  -25.8730 C.2       1 E2M1        0.0000 
     36 O5        -22.4280   18.9140  -25.2600 O.2       1 E2M1        0.0000 
     37 N         -21.8760   21.0700  -25.5330 N.am      1 E2M1        0.0000 
     38 C27       -22.7660   21.5710  -24.4970 C.3       1 E2M1        0.0000 
     39 C26       -23.6730   22.5700  -25.2060 C.3       1 E2M1        0.0000 
     40 O4        -22.8780   23.5850  -25.8140 O.3       1 E2M1        0.0000 
     41 C25       -22.0120   23.0520  -26.8140 C.3       1 E2M1        0.0000 
     42 C24       -21.0370   22.0720  -26.1720 C.3       1 E2M1        0.0000 
     43 H         -13.8399   20.1055  -30.3748 H         1 E2M1        0.0000 
     44 H         -13.1190   18.5308  -30.7497 H         1 E2M1        0.0000 
     45 H         -17.7729   18.0782  -34.3855 H         1 E2M1        0.0000 
     46 H         -16.8914   20.0945  -35.3891 H         1 E2M1        0.0000 
     47 H         -15.2260   21.3989  -34.2161 H         1 E2M1        0.0000 
     48 H         -14.4428   20.6833  -32.0425 H         1 E2M1        0.0000 
     49 H         -13.4684   17.7325  -28.6224 H         1 E2M1        0.0000 
     50 H         -11.9372   19.6749  -28.5835 H         1 E2M1        0.0000 
     51 H         -12.7899   19.4623  -27.0448 H         1 E2M1        0.0000 
     52 H         -13.5312   21.4174  -29.2575 H         1 E2M1        0.0000 
     53 H         -12.7825   21.8275  -27.7047 H         1 E2M1        0.0000 
     54 H         -14.7503   20.9800  -26.5171 H         1 E2M1        0.0000 
     55 H         -15.9031   20.4937  -29.2782 H         1 E2M1        0.0000 
     56 H         -16.7558   20.2811  -27.7395 H         1 E2M1        0.0000 
     57 H         -15.1618   18.5386  -27.0655 H         1 E2M1        0.0000 
     58 H         -15.9106   18.1285  -28.6183 H         1 E2M1        0.0000 
     59 H         -17.9598   19.2912  -30.8299 H         1 E2M1        0.0000 
     60 H         -19.3021   19.8606  -28.8993 H         1 E2M1        0.0000 
     61 H         -20.6857   17.4556  -26.5137 H         1 E2M1        0.0000 
     62 H         -20.8567   20.1976  -27.7282 H         1 E2M1        0.0000 
     63 H         -22.2233   22.0857  -23.7262 H         1 E2M1        0.0000 
     64 H         -23.3733   20.7864  -24.0858 H         1 E2M1        0.0000 
     65 H         -24.3625   22.9840  -24.4619 H         1 E2M1        0.0000 
     66 H         -24.2654   22.0194  -25.9452 H         1 E2M1        0.0000 
     67 H         -21.4252   23.8366  -27.3043 H         1 E2M1        0.0000 
     68 H         -22.5684   22.5129  -27.5887 H         1 E2M1        0.0000 
     69 H         -20.4253   21.6408  -26.9424 H         1 E2M1        0.0000 
     70 H         -20.4394   22.6019  -25.4538 H         1 E2M1        0.0000 
@<TRIPOS>BOND
     1    6    1 1    
     2    7    1 1    
     3    3    2 1    
     4    8    2 1    
     5    9    2 1    
     6   10    2 1    
     7    4    3 ar   
     8   28    3 ar   
     9   11    4 1    
    10   25    4 ar   
    11    6    5 ar   
    12   11    5 1    
    13   12    5 ar   
    14   15    6 ar   
    15   16    7 1    
    16   43    7 1    
    17   44    7 1    
    18   13   12 ar   
    19   45   12 1    
    20   14   13 ar   
    21   46   13 1    
    22   15   14 ar   
    23   47   14 1    
    24   48   15 1    
    25   17   16 1    
    26   24   16 1    
    27   49   16 1    
    28   18   17 1    
    29   50   17 1    
    30   51   17 1    
    31   19   18 1    
    32   52   18 1    
    33   53   18 1    
    34   20   19 1    
    35   23   19 1    
    36   54   19 1    
    37   21   20 ar   
    38   22   20 ar   
    39   24   23 1    
    40   55   23 1    
    41   56   23 1    
    42   57   24 1    
    43   58   24 1    
    44   26   25 ar   
    45   59   25 1    
    46   27   26 ar   
    47   60   26 1    
    48   28   27 ar   
    49   33   27 1    
    50   29   28 1    
    51   30   29 1    
    52   31   29 1    
    53   32   29 1    
    54   34   33 2    
    55   61   33 1    
    56   35   34 1    
    57   62   34 1    
    58   36   35 2    
    59   37   35 am   
    60   38   37 1    
    61   42   37 1    
    62   39   38 1    
    63   63   38 1    
    64   64   38 1    
    65   40   39 1    
    66   65   39 1    
    67   66   39 1    
    68   41   40 1    
    69   42   41 1    
    70   67   41 1    
    71   68   41 1    
    72   69   42 1    
    73   70   42 1    
@<TRIPOS>SUBSTRUCTURE
     1 E2M1        1 GROUP   
@<TRIPOS>SET

