#    Name: 4m10_ICD_4_INTS_M
#    Modification time : Tue Mar 25 11:48:24 2014

@<TRIPOS>MOLECULE
4m10_ICD_4_INTS_M
   57     0     6     0     0
SMALL
NO_CHARGES


@<TRIPOS>ATOM
      1 CA         77.9645   22.1255   57.4440 C.3       2 GLC5        0.0000 
      2 CA         79.2270   22.9700   58.9250 C.3       6 GLL5        0.0000 
      3 CA         76.7020   21.2810   55.9630 C.3       4 GLP5        0.0000 
      4 CA         76.7150   21.8655   60.7525 C.3       2 GLC5        0.0000 
      5 CA         78.5060   23.0790   60.1400 C.3       6 GLL5        0.0000 
      6 CA         74.9240   20.6520   61.3650 C.3       4 GLP5        0.0000 
      7 CA         76.4960   23.8380   59.7865 C.3       2 GLC5        0.0000 
      8 CA         74.4860   24.5970   59.4330 C.3       4 GLP5        0.0000 
      9 CA         77.8585   23.4270   56.9735 C.3       2 GLC5        0.0000 
     10 CA         79.4450   24.1010   58.1340 C.3       6 GLL5        0.0000 
     11 CA         76.2720   22.7530   55.8130 C.3       4 GLP5        0.0000 
     12 CA         82.0020   19.8945   58.1650 C.3       2 GLC5        0.0000 
     13 CA         80.8110   21.7150   57.6150 C.3       6 GLL5        0.0000 
     14 CA         83.1930   18.0740   58.7150 C.3       4 GLP5        0.0000 
     15 CA         77.2605   20.8915   61.5920 C.3       2 GLC5        0.0000 
     16 CA         78.5880   22.1190   61.2260 C.3       6 GLL5        0.0000 
     17 CA         75.9330   19.6640   61.9580 C.3       4 GLP5        0.0000 
     18 N          76.6045   24.7435   59.7420 N.am      1 SEC2        0.0000 
     19 N          77.6510   23.9760   60.2080 N.am      5 SEL2        0.0000 
     20 N          75.5580   25.5110   59.2760 N.am      3 SEP2        0.0000 
     21 CA         81.4685   24.8730   56.0610 C.3       2 GLC5        0.0000 
     22 CA         80.9650   22.8080   56.7540 C.3       6 GLL5        0.0000 
     23 CA         81.9720   26.9380   55.3680 C.3       4 GLP5        0.0000 
     24 CA         80.4955   23.4325   62.3510 C.3       2 GLC5        0.0000 
     25 CA         80.6380   21.7010   62.1980 C.3       6 GLL5        0.0000 
     26 CA         80.3530   25.1640   62.5040 C.3       4 GLP5        0.0000 
     27 CA         81.6355   20.6780   63.5495 C.3       2 GLC5        0.0000 
     28 CA         82.6330   19.6550   64.9010 C.3       4 GLP5        0.0000 
     29 CA         82.2240   22.7795   62.1180 C.3       2 GLC5        0.0000 
     30 CA         83.8100   23.8580   62.0380 C.3       4 GLP5        0.0000 
     31 CA         75.4695   21.9435   62.9410 C.3       2 GLC5        0.0000 
     32 CA         76.0150   23.2350   64.5170 C.3       6 GLL5        0.0000 
     33 CA         73.3715   25.2475   66.8690 C.3       2 GLC5        0.0000 
     34 CA         74.5910   23.6240   66.5910 C.3       6 GLL5        0.0000 
     35 CA         72.1520   26.8710   67.1470 C.3       4 GLP5        0.0000 
     36 CA         74.8005   24.5755   68.0905 C.3       2 GLC5        0.0000 
     37 CA         75.0100   25.5270   69.5900 C.3       4 GLP5        0.0000 
     38 CA         72.8695   23.1575   67.7975 C.3       2 GLC5        0.0000 
     39 CA         71.1480   22.6910   69.0040 C.3       4 GLP5        0.0000 
     40 CA         74.3565   21.6215   66.7600 C.3       2 GLC5        0.0000 
     41 CA         74.1220   19.6190   66.9290 C.3       4 GLP5        0.0000 
     42 CA         79.6770   21.0263   56.7495 C.3       2 GLC5        0.0000 
     43 CA         80.0510   21.8840   58.7650 C.3       6 GLL5        0.0000 
     44 CA         78.9230   20.2530   55.3090 C.3       4 GLP5        0.0000 
     45 CA         80.7283   25.7485   57.1797 C.3       2 GLC5        0.0000 
     46 CA         80.2780   24.0070   57.0110 C.3       6 GLL5        0.0000 
     47 CA         81.5950   27.4430   56.7870 C.3       4 GLP5        0.0000 
     48 CA         78.8418   25.6055   57.2403 C.3       2 GLC5        0.0000 
     49 CA         77.8220   27.1570   56.9080 C.3       4 GLP5        0.0000 
     50 CA         82.7355   22.1782   57.0072 C.3       2 GLC5        0.0000 
     51 CA         84.5830   22.0950   56.8300 C.3       4 GLP5        0.0000 
     52 CA         81.5080   21.4718   55.4868 C.3       2 GLC5        0.0000 
     53 CA         82.1280   20.6820   53.7890 C.3       4 GLP5        0.0000 
     54 CA         79.5401   23.8679   61.4416 C.3       2 GLC5        0.0000 
     55 CA         79.7723   21.8302   56.0957 C.3       2 GLC5        0.0000 
     56 CA         76.4275   24.4672   66.1899 C.3       2 GLC5        0.0000 
     57 CA         77.7950   25.3420   66.6650 C.3       4 GLP5        0.0000 
@<TRIPOS>BOND
@<TRIPOS>SUBSTRUCTURE
     1 SEC2       18 GROUP        1 X    SEC  0     ROOT SEC X 2
     2 GLC5        1 GROUP        1 X    GLC  0     **** GLC X 6
     3 SEP2       20 GROUP        1 Y    SEP  0     ROOT SEP Y 9
     4 GLP5        3 GROUP        1 Y    GLP  0     **** GLP Y 13
     5 SEL2       19 GROUP        1 Z    SEL  0     ROOT SEL Z 16
     6 GLL5        2 GROUP        1 Z    GLL  0     **** GLL Z 20
@<TRIPOS>SET

