#    Name: 4m10_ICD_4_ligand
#    Modification time : Tue Mar 25 11:48:24 2014

@<TRIPOS>MOLECULE
4m10_ICD_4_ligand
   36    38     1     0     0
SMALL
NO_CHARGES


@<TRIPOS>ATOM
      1 CAA        79.2270   22.9700   58.9250 C.ar      1 ICD706      0.0000 
      2 CAB        80.0510   21.8840   58.7650 C.ar      1 ICD706      0.0000 
      3 CAC        78.5060   23.0790   60.1400 C.2       1 ICD706      0.0000 
      4 CAD        79.4450   24.1010   58.1340 C.ar      1 ICD706      0.0000 
      5 SAE        79.5970   20.6650   59.8110 S.o2      1 ICD706      0.0000 
      6 CAF        80.8110   21.7150   57.6150 C.ar      1 ICD706      0.0000 
      7 CAG        78.5880   22.1190   61.2260 C.2       1 ICD706      0.0000 
      8 OAH        77.6510   23.9760   60.2080 O.3       1 ICD706      0.0000 
      9 CAI        80.2780   24.0070   57.0110 C.ar      1 ICD706      0.0000 
     10 NAJ        79.6370   21.1710   61.2580 N.pl3     1 ICD706      0.0000 
     11 OAK        80.6330   19.5790   59.7050 O.2       1 ICD706      0.0000 
     12 OAL        78.2910   20.0250   59.4050 O.2       1 ICD706      0.0000 
     13 CAM        80.9650   22.8080   56.7540 C.ar      1 ICD706      0.0000 
     14 CAN        77.8080   22.3920   62.3790 C.2       1 ICD706      0.0000 
     15 CAO        80.6380   21.7010   62.1980 C.3       1 ICD706      0.0000 
     16 NAP        76.9080   23.3940   62.2880 N.am      1 ICD706      0.0000 
     17 OAQ        77.9690   21.5780   63.4420 O.2       1 ICD706      0.0000 
     18 CAR        76.0990   23.7580   63.2950 C.2       1 ICD706      0.0000 
     19 NAS        75.2540   24.7840   63.1890 N.2       1 ICD706      0.0000 
     20 CAT        76.0150   23.2350   64.5170 C.2       1 ICD706      0.0000 
     21 OAU        74.5410   24.8930   64.4100 O.3       1 ICD706      0.0000 
     22 CAV        75.0430   23.8870   65.1600 C.2       1 ICD706      0.0000 
     23 CAW        74.5910   23.6240   66.5910 C.3       1 ICD706      0.0000 
     24 H          79.0015   24.9904   58.3709 H         1 ICD706      0.0000 
     25 H          81.2461   20.8233   57.3995 H         1 ICD706      0.0000 
     26 H          80.3865   24.8041   56.3818 H         1 ICD706      0.0000 
     27 H          81.5775   22.7366   55.9363 H         1 ICD706      0.0000 
     28 H          76.8385   23.9234   61.3637 H         1 ICD706      0.0000 
     29 H          76.5543   22.5192   64.8730 H         1 ICD706      0.0000 
     30 H          81.3741   21.0452   62.3654 H         1 ICD706      0.0000 
     31 H          81.0637   22.5380   61.8543 H         1 ICD706      0.0000 
     32 H          80.2339   21.9210   63.0859 H         1 ICD706      0.0000 
     33 H          75.3356   23.7548   67.2456 H         1 ICD706      0.0000 
     34 H          73.8492   24.2363   66.8646 H         1 ICD706      0.0000 
     35 H          74.2577   22.6886   66.7092 H         1 ICD706      0.0000 
     36 H          77.9917   24.6057   60.9060 H         1 ICD706      0.0000 
@<TRIPOS>BOND
     1    2    1 ar   
     2    3    1 1    
     3    4    1 ar   
     4    5    2 1    
     5    6    2 ar   
     6    7    3 2    
     7    8    3 1    
     8    9    4 ar   
     9   24    4 1    
    10   10    5 1    
    11   11    5 2    
    12   12    5 2    
    13   13    6 ar   
    14   25    6 1    
    15   10    7 1    
    16   14    7 1    
    17   36    8 1    
    18   13    9 ar   
    19   26    9 1    
    20   15   10 1    
    21   27   13 1    
    22   16   14 am   
    23   17   14 2    
    24   30   15 1    
    25   31   15 1    
    26   32   15 1    
    27   18   16 1    
    28   28   16 1    
    29   19   18 2    
    30   20   18 1    
    31   21   19 1    
    32   22   20 2    
    33   29   20 1    
    34   22   21 1    
    35   23   22 1    
    36   33   23 1    
    37   34   23 1    
    38   35   23 1    
@<TRIPOS>SUBSTRUCTURE
     1 ICD706      1 GROUP   
@<TRIPOS>SET

