#    Name: 2PGJ_1_CAVITY_N1_ALL.mol2
#    Modification time : Tue Mar 11 05:17:13 2014

@<TRIPOS>MOLECULE
2PGJ_1_CAVITY_N1_ALL.mol2
   72     0     6     0     0
SMALL
NO_CHARGES


@<TRIPOS>ATOM
      1 N           2.9583    4.1778    4.0752 N.2       2 ALA2        0.0000 
      2 O           3.7129    4.5054    2.8209 O.2       2 ALA2        0.0000 
      3 CZ          3.4660    2.7678    4.0124 C.ar      4 PHE5        0.0000 
      4 CA          4.2207    3.0953    2.7582 C.3       5 GLY6        0.0000 
      5 CZ          3.2192    1.0301    5.2040 C.ar      4 PHE5        0.0000 
      6 DU          3.9738    1.3577    3.9497 H         6 CUB7        0.0000 
      7 OG          4.7285    1.6853    2.6954 O.2       1 SER1        0.0000 
      8 CZ          2.9723   -0.7075    6.3955 C.ar      4 PHE5        0.0000 
      9 CZ          3.7270   -0.3799    5.1412 C.ar      4 PHE5        0.0000 
     10 DU          4.4816   -0.0523    3.8869 H         6 CUB7        0.0000 
     11 OG          5.2363    0.2753    2.6327 O.2       1 SER1        0.0000 
     12 DU          4.9894   -1.4624    3.8242 H         6 CUB7        0.0000 
     13 CA          5.7441   -1.1348    2.5699 C.3       5 GLY6        0.0000 
     14 CA          6.4987   -0.8072    1.3157 C.3       5 GLY6        0.0000 
     15 DU          4.7425   -3.2000    5.0157 H         6 CUB7        0.0000 
     16 CA          5.4972   -2.8724    3.7615 C.3       5 GLY6        0.0000 
     17 N           1.7655    3.7848    3.2549 N.2       2 ALA2        0.0000 
     18 N           2.5202    4.1124    2.0006 N.2       2 ALA2        0.0000 
     19 CZ          2.2733    2.3747    3.1921 C.ar      4 PHE5        0.0000 
     20 CA          3.0280    2.7023    1.9379 C.3       5 GLY6        0.0000 
     21 CZ          2.7811    0.9647    3.1294 C.ar      4 PHE5        0.0000 
     22 OG          3.5357    1.2923    1.8751 O.2       1 SER1        0.0000 
     23 CZ          1.7796   -1.1005    5.5752 C.ar      4 PHE5        0.0000 
     24 CZ          2.5342   -0.7729    4.3209 C.ar      4 PHE5        0.0000 
     25 DU          3.2889   -0.4454    3.0667 H         6 CUB7        0.0000 
     26 OG          4.0435   -0.1178    1.8124 O.2       1 SER1        0.0000 
     27 OG          4.7982    0.2098    0.5581 O.2       1 SER1        0.0000 
     28 DU          3.0420   -2.1830    4.2582 H         6 CUB7        0.0000 
     29 CZ          3.7967   -1.8554    3.0039 C.ar      4 PHE5        0.0000 
     30 CA          4.5513   -1.5278    1.7496 C.3       5 GLY6        0.0000 
     31 N           0.5728    3.3917    2.4346 N.2       2 ALA2        0.0000 
     32 N           1.3274    3.7193    1.1803 N.2       2 ALA2        0.0000 
     33 CZ          1.0806    1.9817    2.3719 C.ar      4 PHE5        0.0000 
     34 CA          1.8352    2.3093    1.1176 C.3       5 GLY6        0.0000 
     35 CZ          1.5883    0.5717    2.3091 C.ar      4 PHE5        0.0000 
     36 OG          2.3430    0.8992    1.0548 O.2       1 SER1        0.0000 
     37 CA          3.0977    1.2268   -0.1994 C.3       5 GLY6        0.0000 
     38 CA          4.3422    2.8987    8.1616 C.3       5 GLY6        0.0000 
     39 O           5.0969    3.2262    6.9073 O.2       2 ALA2        0.0000 
     40 O           5.8515    3.5538    5.6530 O.2       2 ALA2        0.0000 
     41 O           6.6062    3.8814    4.3988 O.2       2 ALA2        0.0000 
     42 DU          5.6047    1.8162    6.8445 H         6 CUB7        0.0000 
     43 DU          6.3593    2.1438    5.5903 H         6 CUB7        0.0000 
     44 OG          7.1140    2.4714    4.3360 O.2       1 SER1        0.0000 
     45 OG          7.8686    2.7989    3.0817 O.2       1 SER1        0.0000 
     46 OG          4.1510    4.5708    4.8955 O.2       1 SER1        0.0000 
     47 CA          4.9057    4.8984    3.6412 C.3       5 GLY6        0.0000 
     48 CZ          3.9041    2.8332    6.0870 C.ar      4 PHE5        0.0000 
     49 DU          4.6588    3.1608    4.8327 H         6 CUB7        0.0000 
     50 O           5.4135    3.4884    3.5785 O.2       2 ALA2        0.0000 
     51 CZ          3.6573    1.0956    7.2785 C.ar      4 PHE5        0.0000 
     52 DU          4.4119    1.4232    6.0243 H         6 CUB7        0.0000 
     53 DU          5.1666    1.7507    4.7700 H         6 CUB7        0.0000 
     54 OG          5.9212    2.0783    3.5157 O.2       1 SER1        0.0000 
     55 DU          4.9197    0.0131    5.9615 H         6 CUB7        0.0000 
     56 DU          5.6744    0.3407    4.7072 H         6 CUB7        0.0000 
     57 OG          6.4290    0.6683    3.4530 O.2       1 SER1        0.0000 
     58 CZ          1.3415   -1.1660    3.5006 C.ar      4 PHE5        0.0000 
     59 CZ          2.0961   -0.8384    2.2464 C.ar      4 PHE5        0.0000 
     60 CZ          2.8508   -0.5108    0.9921 C.ar      4 PHE5        0.0000 
     61 CZ          1.8493   -2.5760    3.4379 C.ar      4 PHE5        0.0000 
     62 CZ          2.6039   -2.2484    2.1836 C.ar      4 PHE5        0.0000 
     63 CZ         -0.6200    2.9987    1.6143 C.ar      4 PHE5        0.0000 
     64 NZ          0.1347    3.3263    0.3600 N.2       3 LYS4        0.0000 
     65 CZ         -0.1122    1.5887    1.5516 C.ar      4 PHE5        0.0000 
     66 NZ          0.6425    1.9162    0.2973 N.2       3 LYS4        0.0000 
     67 NZ          0.3956    0.1786    1.4888 N.2       3 LYS4        0.0000 
     68 OG          1.1502    0.5062    0.2345 O.2       1 SER1        0.0000 
     69 CZ          0.9034   -1.2314    1.4261 C.ar      4 PHE5        0.0000 
     70 O          -1.8127    2.6057    0.7940 O.2       2 ALA2        0.0000 
     71 CA         -1.3049    1.1956    0.7313 C.3       5 GLY6        0.0000 
     72 CA         -0.5503    1.5232   -0.5230 C.3       5 GLY6        0.0000 
@<TRIPOS>BOND
@<TRIPOS>SUBSTRUCTURE
     1 SER1        7 GROUP   
     2 ALA2        1 GROUP   
     3 LYS4       64 GROUP   
     4 PHE5        3 GROUP   
     5 GLY6        4 GROUP   
     6 CUB7        6 GROUP   
@<TRIPOS>SET

