#    Name: 2pgj_N1C_1_INTS_M
#    Modification time : Mon Mar 24 18:57:33 2014

@<TRIPOS>MOLECULE
2pgj_N1C_1_INTS_M
   58     0    12     0     0
SMALL
NO_CHARGES


@<TRIPOS>ATOM
      1 N           6.1450    4.3015    2.2760 N.am      2 SEC2        0.0000 
      2 N           5.5610    3.5100    3.3870 N.am     10 SEL2        0.0000 
      3 N           6.7290    5.0930    1.1650 N.am      6 SEP2        0.0000 
      4 N           5.9270    2.9210    1.9460 N.am      2 SEC2        0.0000 
      5 N           6.2930    2.3320    0.5050 N.am      6 SEP2        0.0000 
      6 N           2.8250    4.8210    6.2770 N.am      2 SEC2        0.0000 
      7 N           3.6290    3.9540    4.9900 N.am     10 SEL2        0.0000 
      8 N           2.0210    5.6880    7.5640 N.am      6 SEP2        0.0000 
      9 N           3.7220    6.5910    3.9285 N.am      2 SEC2        0.0000 
     10 N           3.8740    5.5440    3.0580 N.am     10 SEL2        0.0000 
     11 N           3.5700    7.6380    4.7990 N.am      6 SEP2        0.0000 
     12 N           4.1275    5.9300    1.6470 N.am      2 SEC2        0.0000 
     13 N           4.3810    6.3160    0.2360 N.am      6 SEP2        0.0000 
     14 CA          1.1405    2.9370    4.3765 C.3       4 GLC5        0.0000 
     15 CA          1.7560    3.3960    2.6900 C.3      12 GLL5        0.0000 
     16 CA          0.5250    2.4780    6.0630 C.3       8 GLP5        0.0000 
     17 CA          1.9140    5.7840    1.1025 C.3       4 GLC5        0.0000 
     18 CA          1.1920    3.6620    1.2870 C.3      12 GLL5        0.0000 
     19 CA          2.6360    7.9060    0.9180 C.3       8 GLP5        0.0000 
     20 N          -1.6285    5.4320    1.5695 N.am      2 SEC2        0.0000 
     21 N          -0.8900    4.5840    0.5910 N.am     10 SEL2        0.0000 
     22 N          -2.3670    6.2800    2.5480 N.am      6 SEP2        0.0000 
     23 O          -0.2055    5.1955   -0.3390 O.2       1 ALC1        0.0000 
     24 O          -0.8900    4.5840    0.5910 O.2       9 ALL1        0.0000 
     25 O           0.4790    5.8070   -1.2690 O.2       5 ALP1        0.0000 
     26 O          -0.4225    4.2400   -0.8565 O.2       1 ALC1        0.0000 
     27 O           0.0450    3.8960   -2.3040 O.2       5 ALP1        0.0000 
     28 CA         -1.8330    0.8200   -0.3605 C.3       4 GLC5        0.0000 
     29 CA         -0.5400    2.1560    0.5270 C.3      12 GLL5        0.0000 
     30 CA         -3.1260   -0.5160   -1.2480 C.3       8 GLP5        0.0000 
     31 O          -0.6525    3.1560   -1.4640 O.2       1 ALC1        0.0000 
     32 O          -1.3500    2.4160   -0.6240 O.2       9 ALL1        0.0000 
     33 CA         -0.0400    0.4015   -1.1080 C.3       4 GLC5        0.0000 
     34 CA          0.8310    1.6120    0.1250 C.3      12 GLL5        0.0000 
     35 CA         -0.9110   -0.8090   -2.3410 C.3       8 GLP5        0.0000 
     36 CA          1.5960    1.5275   -1.8095 C.3       4 GLC5        0.0000 
     37 CA          2.3610    1.4430   -3.7440 C.3       8 GLP5        0.0000 
     38 CA          2.7840    2.2465   -0.5635 C.3       4 GLC5        0.0000 
     39 CA          4.7370    2.8810   -1.2520 C.3       8 GLP5        0.0000 
     40 CA          3.4065   -3.7550    2.7655 C.3       4 GLC5        0.0000 
     41 CA          3.9150   -2.5960    4.3890 C.3      12 GLL5        0.0000 
     42 CA          2.8980   -4.9140    1.1420 C.3       8 GLP5        0.0000 
     43 CA          5.1080   -3.4210    2.1765 C.3       4 GLC5        0.0000 
     44 CA          5.1370   -2.3060    3.5260 C.3      12 GLL5        0.0000 
     45 CA          5.0790   -4.5360    0.8270 C.3       8 GLP5        0.0000 
     46 NZ          6.1620    4.8455    6.6480 N.4       3 LYC4        0.0000 
     47 NZ          5.8320    3.5850    6.2400 N.4      11 LYL4        0.0000 
     48 NZ          7.6030    6.8340    7.1430 N.4       7 LYP4        0.0000 
     49 N           6.1620    4.8455    6.6480 N.am      2 SEC2        0.0000 
     50 N           5.8320    3.5850    6.2400 N.am     10 SEL2        0.0000 
     51 N           6.4920    6.1060    7.0560 N.am      6 SEP2        0.0000 
     52 N           2.7635    4.3470    7.4210 N.am      2 SEC2        0.0000 
     53 N           3.5060    3.0060    7.2780 N.am     10 SEL2        0.0000 
     54 CA          3.4175    3.4280    1.0277 C.3       4 GLC5        0.0000 
     55 CA          5.3610    3.3270    0.0670 C.3       8 GLP5        0.0000 
     56 CA         -1.0667    2.4312    2.7025 C.3       4 GLC5        0.0000 
     57 CA         -0.3070    3.4630    1.2690 C.3      12 GLL5        0.0000 
     58 CA         -1.7100    2.0530    4.5070 C.3       8 GLP5        0.0000 
@<TRIPOS>BOND
@<TRIPOS>SUBSTRUCTURE
     1 ALC1       23 GROUP        1 X    ALC  0     ROOT ALC X 1
     2 SEC2        1 GROUP        1 X    SEC  0     **** SEC X 2
     3 LYC4       46 GROUP        1 X    LYC  0     **** LYC X 4
     4 GLC5       14 GROUP        1 X    GLC  0     **** GLC X 6
     5 ALP1       25 GROUP        1 Y    ALP  0     ROOT ALP Y 8
     6 SEP2        3 GROUP        1 Y    SEP  0     **** SEP Y 9
     7 LYP4       48 GROUP        1 Y    LYP  0     **** LYP Y 11
     8 GLP5       16 GROUP        1 Y    GLP  0     **** GLP Y 13
     9 ALL1       24 GROUP        1 Z    ALL  0     ROOT ALL Z 15
    10 SEL2        2 GROUP        1 Z    SEL  0     **** SEL Z 16
    11 LYL4       47 GROUP        1 Z    LYL  0     **** LYL Z 18
    12 GLL5       15 GROUP        1 Z    GLL  0     **** GLL Z 20
@<TRIPOS>SET

