#    Name: 2pgj_N1C_1_ligand
#    Modification time : Mon Mar 24 18:57:33 2014

@<TRIPOS>MOLECULE
2pgj_N1C_1_ligand
   53    57     1     0     0
SMALL
NO_CHARGES


@<TRIPOS>ATOM
      1 O1B         5.5610    3.5100    3.3870 O.co2     1 N1C301      0.0000 
      2 PB          4.1620    4.1010    3.4810 P.3       1 N1C301      0.0000 
      3 O3A         3.6290    3.9540    4.9900 O.3       1 N1C301      0.0000 
      4 O2B         3.8740    5.5440    3.0580 O.co2     1 N1C301      0.0000 
      5 O5D         3.1650    3.1570    2.6320 O.3       1 N1C301      0.0000 
      6 C5D         1.7560    3.3960    2.6900 C.3       1 N1C301      0.0000 
      7 C4D         1.1920    3.6620    1.2870 C.3       1 N1C301      0.0000 
      8 C3D        -0.3070    3.4630    1.2690 C.3       1 N1C301      0.0000 
      9 O3D        -0.8900    4.5840    0.5910 O.3       1 N1C301      0.0000 
     10 C2D        -0.5400    2.1560    0.5270 C.3       1 N1C301      0.0000 
     11 O2D        -1.3500    2.4160   -0.6240 O.3       1 N1C301      0.0000 
     12 O4D         1.6900    2.7430    0.3050 O.3       1 N1C301      0.0000 
     13 C1D         0.8310    1.6120    0.1250 C.3       1 N1C301      0.0000 
     14 N1          1.3060    0.5800    1.0650 N.am      1 N1C301      0.0000 
     15 C6          0.4220   -0.3510    1.6720 C.2       1 N1C301      0.0000 
     16 O6         -0.7950   -0.3960    1.4040 O.2       1 N1C301      0.0000 
     17 C5          0.9950   -1.3270    2.6280 C.2       1 N1C301      0.0000 
     18 N7          0.4540   -2.3190    3.3690 N.2       1 N1C301      0.0000 
     19 C8          1.4640   -2.8810    4.0690 C.2       1 N1C301      0.0000 
     20 C2          2.6140    0.5350    1.3900 C.2       1 N1C301      0.0000 
     21 N3          3.1270   -0.3500    2.2630 N.2       1 N1C301      0.0000 
     22 C4          2.3500   -1.2740    2.8930 C.2       1 N1C301      0.0000 
     23 N9          2.6100   -2.2510    3.7710 N.pl3     1 N1C301      0.0000 
     24 C1'         3.9150   -2.5960    4.3890 C.3       1 N1C301      0.0000 
     25 O4'         4.0050   -1.7400    5.5350 O.3       1 N1C301      0.0000 
     26 C2'         5.1370   -2.3060    3.5260 C.3       1 N1C301      0.0000 
     27 O2'         6.0650   -3.3830    3.7110 O.3       1 N1C301      0.0000 
     28 C3'         5.7000   -1.0820    4.1610 C.3       1 N1C301      0.0000 
     29 O3'         6.7950   -0.4600    3.7320 O.3       1 N1C301      0.0000 
     30 C4'         4.9960   -0.7360    5.2210 C.3       1 N1C301      0.0000 
     31 C5'         5.1750    0.5350    6.0220 C.3       1 N1C301      0.0000 
     32 O5'         4.4730    1.6110    5.3930 O.3       1 N1C301      0.0000 
     33 PA          4.4190    3.0660    6.0790 P.3       1 N1C301      0.0000 
     34 O1A         5.8320    3.5850    6.2400 O.co2     1 N1C301      0.0000 
     35 O2A         3.5060    3.0060    7.2780 O.co2     1 N1C301      0.0000 
     36 H           1.5167    4.2689    3.3137 H         1 N1C301      0.0000 
     37 H           1.2141    2.5352    3.1066 H         1 N1C301      0.0000 
     38 H           1.3957    4.6756    1.0060 H         1 N1C301      0.0000 
     39 H          -0.6440    3.3637    2.2690 H         1 N1C301      0.0000 
     40 H          -0.9980    1.4655    1.1993 H         1 N1C301      0.0000 
     41 H           0.8139    1.2898   -0.8579 H         1 N1C301      0.0000 
     42 H           1.3692   -3.6235    4.6885 H         1 N1C301      0.0000 
     43 H           3.2723    1.2359    0.9317 H         1 N1C301      0.0000 
     44 H           3.9240   -3.6155    4.6972 H         1 N1C301      0.0000 
     45 H           4.8538   -2.1334    2.5590 H         1 N1C301      0.0000 
     46 H           4.8415   -0.2979    3.3188 H         1 N1C301      0.0000 
     47 H           5.9287   -1.4249    6.0852 H         1 N1C301      0.0000 
     48 H           6.2504    0.7448    6.0943 H         1 N1C301      0.0000 
     49 H           4.8034    0.3531    7.0392 H         1 N1C301      0.0000 
     50 H          -0.1927    4.8838   -0.0601 H         1 N1C301      0.0000 
     51 H          -0.7012    2.5335   -1.3757 H         1 N1C301      0.0000 
     52 H           6.8520   -3.1471    3.1409 H         1 N1C301      0.0000 
     53 H           7.2424   -1.1146    3.1226 H         1 N1C301      0.0000 
@<TRIPOS>BOND
     1    2    1 ar   
     2    3    2 1    
     3    4    2 ar   
     4    5    2 1    
     5   33    3 1    
     6    6    5 1    
     7    7    6 1    
     8   36    6 1    
     9   37    6 1    
    10    8    7 1    
    11   12    7 1    
    12   38    7 1    
    13    9    8 1    
    14   10    8 1    
    15   39    8 1    
    16   50    9 1    
    17   11   10 1    
    18   13   10 1    
    19   40   10 1    
    20   51   11 1    
    21   13   12 1    
    22   14   13 1    
    23   41   13 1    
    24   15   14 am   
    25   20   14 1    
    26   16   15 2    
    27   17   15 1    
    28   18   17 1    
    29   22   17 2    
    30   19   18 2    
    31   23   19 1    
    32   42   19 1    
    33   21   20 2    
    34   43   20 1    
    35   22   21 1    
    36   23   22 1    
    37   24   23 1    
    38   25   24 1    
    39   26   24 1    
    40   44   24 1    
    41   30   25 1    
    42   27   26 1    
    43   28   26 1    
    44   45   26 1    
    45   52   27 1    
    46   29   28 1    
    47   30   28 1    
    48   46   28 1    
    49   53   29 1    
    50   31   30 1    
    51   47   30 1    
    52   32   31 1    
    53   48   31 1    
    54   49   31 1    
    55   33   32 1    
    56   34   33 ar   
    57   35   33 ar   
@<TRIPOS>SUBSTRUCTURE
     1 N1C301      1 GROUP   
@<TRIPOS>SET

