#    Name: 1STO_1_CAVITY_N1_6.mol2
#    Modification time : Tue Mar 11 08:58:51 2014

@<TRIPOS>MOLECULE
1STO_1_CAVITY_N1_6.mol2
   38     0     5     0     0
SMALL
NO_CHARGES


@<TRIPOS>ATOM
      1 CA         14.3297   27.5146   23.8319 C.3       4 GLY6        0.0000 
      2 CA         14.0514   28.0414   20.5312 C.3       4 GLY6        0.0000 
      3 CA         14.2427   27.1741   21.7399 C.3       4 GLY6        0.0000 
      4 CA         14.1557   26.8335   19.6479 C.3       4 GLY6        0.0000 
      5 NZ         15.4139   30.9944   24.2959 N.2       3 LYS4        0.0000 
      6 CA         15.1356   31.5213   20.9952 C.3       4 GLY6        0.0000 
      7 CA         15.3269   30.6539   22.2039 C.3       4 GLY6        0.0000 
      8 CA         15.5182   29.7865   23.4127 C.3       4 GLY6        0.0000 
      9 CA         15.7095   28.9192   24.6214 C.3       4 GLY6        0.0000 
     10 CA         15.2399   30.3134   20.1119 C.3       4 GLY6        0.0000 
     11 CA         15.4312   29.4460   21.3207 C.3       4 GLY6        0.0000 
     12 CA         15.6225   28.5786   22.5294 C.3       4 GLY6        0.0000 
     13 CA         15.8138   27.7113   23.7382 C.3       4 GLY6        0.0000 
     14 OG         15.5355   28.2381   20.4374 O.2       1 SER1        0.0000 
     15 N          15.7268   27.3707   21.6462 N.2       2 ALA2        0.0000 
     16 N          15.9181   26.5034   22.8549 N.2       2 ALA2        0.0000 
     17 OG         15.6398   27.0302   19.5542 O.2       1 SER1        0.0000 
     18 NZ         16.7067   32.0585   22.9934 N.2       3 LYS4        0.0000 
     19 NZ         16.8980   31.1911   24.2022 N.2       3 LYS4        0.0000 
     20 NZ         17.0893   30.3237   25.4110 N.2       3 LYS4        0.0000 
     21 CA         16.6197   31.7179   20.9014 C.3       4 GLY6        0.0000 
     22 CA         16.8110   30.8506   22.1102 C.3       4 GLY6        0.0000 
     23 DU         17.0023   29.9832   23.3190 H         5 CUB7        0.0000 
     24 N          17.1936   29.1158   24.5277 N.2       2 ALA2        0.0000 
     25 N          17.1066   28.7753   22.4357 N.2       2 ALA2        0.0000 
     26 N          17.2979   27.9080   23.6445 N.2       2 ALA2        0.0000 
     27 O          18.1908   32.2552   22.8997 O.2       2 ALA2        0.0000 
     28 CA         18.3821   31.3878   24.1085 C.3       4 GLY6        0.0000 
     29 CA         18.5734   30.5204   25.3172 C.3       4 GLY6        0.0000 
     30 CA         18.2951   31.0473   22.0165 C.3       4 GLY6        0.0000 
     31 CA         18.4864   30.1799   23.2252 C.3       4 GLY6        0.0000 
     32 N          18.6777   29.3125   24.4340 N.2       2 ALA2        0.0000 
     33 CA         19.8662   31.5845   24.0147 C.3       4 GLY6        0.0000 
     34 CA         19.7792   31.2440   21.9227 C.3       4 GLY6        0.0000 
     35 CA         19.9705   30.3766   23.1315 C.3       4 GLY6        0.0000 
     36 CA         20.1618   29.5092   24.3402 C.3       4 GLY6        0.0000 
     37 N          21.2633   31.4406   21.8290 N.2       2 ALA2        0.0000 
     38 N          21.4546   30.5733   23.0378 N.2       2 ALA2        0.0000 
@<TRIPOS>BOND
@<TRIPOS>SUBSTRUCTURE
     1 SER1       14 GROUP   
     2 ALA2       15 GROUP   
     3 LYS4        5 GROUP   
     4 GLY6        1 GROUP   
     5 CUB7       23 GROUP   
@<TRIPOS>SET

