#    Name: 1sto_OMP_1_INTS_M
#    Modification time : Tue Mar 25 02:44:20 2014

@<TRIPOS>MOLECULE
1sto_OMP_1_INTS_M
   46     0    12     0     0
SMALL
NO_CHARGES


@<TRIPOS>ATOM
      1 N          18.6390   26.1390   18.1180 N.am      2 SEC2        0.0000 
      2 N          18.4600   26.1670   16.5100 N.am     10 SEL2        0.0000 
      3 N          18.8180   26.1110   19.7260 N.am      6 SEP2        0.0000 
      4 N          20.8235   27.3055   17.9135 N.am      2 SEC2        0.0000 
      5 N          20.9870   26.5280   16.6710 N.am     10 SEL2        0.0000 
      6 N          20.6600   28.0830   19.1560 N.am      6 SEP2        0.0000 
      7 N          20.7695   25.3185   17.0060 N.am      2 SEC2        0.0000 
      8 N          20.5520   24.1090   17.3410 N.am      6 SEP2        0.0000 
      9 NZ         19.8985   25.8815   12.8180 N.4       3 LYC4        0.0000 
     10 NZ         19.6760   26.2560   14.4800 N.4      11 LYL4        0.0000 
     11 NZ         20.1210   25.5070   11.1560 N.4       7 LYP4        0.0000 
     12 N          19.8985   25.8815   12.8180 N.am      2 SEC2        0.0000 
     13 N          19.6760   26.2560   14.4800 N.am     10 SEL2        0.0000 
     14 N          20.1210   25.5070   11.1560 N.am      6 SEP2        0.0000 
     15 CA         20.3295   30.5670   15.7370 C.3       4 GLC5        0.0000 
     16 CA         19.1190   29.2420   14.4210 C.3      12 GLL5        0.0000 
     17 CA         21.5400   31.8920   17.0530 C.3       8 GLP5        0.0000 
     18 CA         18.4840   30.2445   17.0345 C.3       4 GLC5        0.0000 
     19 CA         17.8630   29.9920   14.9310 C.3      12 GLL5        0.0000 
     20 CA         19.1050   30.4970   19.1380 C.3       8 GLP5        0.0000 
     21 N          17.9530   29.5865   17.3620 N.am      2 SEC2        0.0000 
     22 N          18.0930   30.6780   16.1600 N.am     10 SEL2        0.0000 
     23 N          17.8130   28.4950   18.5640 N.am      6 SEP2        0.0000 
     24 N          14.8790   28.9930   13.8845 N.am      2 SEC2        0.0000 
     25 N          15.6830   30.3710   13.6720 N.am     10 SEL2        0.0000 
     26 N          14.0750   27.6150   14.0970 N.am      6 SEP2        0.0000 
     27 CA         19.3255   31.8195   16.6810 C.3       4 GLC5        0.0000 
     28 CA         17.1110   31.7470   16.3090 C.3      12 GLL5        0.0000 
     29 CA         18.1080   31.1220   17.7235 C.3       4 GLC5        0.0000 
     30 O          19.1145   35.6280   16.1460 O.2       1 ALC1        0.0000 
     31 O          18.9870   34.5550   17.3200 O.2       9 ALL1        0.0000 
     32 O          19.2420   36.7010   14.9720 O.2       5 ALP1        0.0000 
     33 CA         16.0105   34.8595   20.1615 C.3       4 GLC5        0.0000 
     34 CA         17.7390   33.9690   19.2480 C.3      12 GLL5        0.0000 
     35 CA         14.2820   35.7500   21.0750 C.3       8 GLP5        0.0000 
     36 N          13.4720   31.7300   19.3595 N.am      2 SEC2        0.0000 
     37 N          14.9350   32.0570   19.0050 N.am     10 SEL2        0.0000 
     38 N          12.0090   31.4030   19.7140 N.am      6 SEP2        0.0000 
     39 CA         16.0220   33.7918   15.6227 C.3       4 GLC5        0.0000 
     40 CA         15.0310   35.5870   15.6580 C.3       8 GLP5        0.0000 
     41 CA         16.0385   34.7007   17.9180 C.3       4 GLC5        0.0000 
     42 CA         17.0630   32.9880   18.5080 C.3      12 GLL5        0.0000 
     43 CA         14.6760   35.9230   16.9580 C.3       8 GLP5        0.0000 
     44 CA         18.2530   31.9878   19.0080 C.3       4 GLC5        0.0000 
     45 CA         18.4730   33.9822   20.1480 C.3       4 GLC5        0.0000 
     46 CA         19.5450   34.4860   21.4180 C.3       8 GLP5        0.0000 
@<TRIPOS>BOND
@<TRIPOS>SUBSTRUCTURE
     1 ALC1       30 GROUP        1 X    ALC  0     ROOT ALC X 1
     2 SEC2        1 GROUP        1 X    SEC  0     **** SEC X 2
     3 LYC4        9 GROUP        1 X    LYC  0     **** LYC X 4
     4 GLC5       15 GROUP        1 X    GLC  0     **** GLC X 6
     5 ALP1       32 GROUP        1 Y    ALP  0     ROOT ALP Y 8
     6 SEP2        3 GROUP        1 Y    SEP  0     **** SEP Y 9
     7 LYP4       11 GROUP        1 Y    LYP  0     **** LYP Y 11
     8 GLP5       17 GROUP        1 Y    GLP  0     **** GLP Y 13
     9 ALL1       31 GROUP        1 Z    ALL  0     ROOT ALL Z 15
    10 SEL2        2 GROUP        1 Z    SEL  0     **** SEL Z 16
    11 LYL4       10 GROUP        1 Z    LYL  0     **** LYL Z 18
    12 GLL5       16 GROUP        1 Z    GLL  0     **** GLL Z 20
@<TRIPOS>SET

