#    Name: 1sto_OMP_1_ligand
#    Modification time : Tue Mar 25 02:44:20 2014

@<TRIPOS>MOLECULE
1sto_OMP_1_ligand
   34    35     1     0     0
SMALL
NO_CHARGES


@<TRIPOS>ATOM
      1 P          19.7160   26.7240   15.9000 P.3       1 OMP216      0.0000 
      2 O1P        18.4600   26.1670   16.5100 O.co2     1 OMP216      0.0000 
      3 O2P        20.9870   26.5280   16.6710 O.co2     1 OMP216      0.0000 
      4 O3P        19.6760   26.2560   14.4800 O.co2     1 OMP216      0.0000 
      5 O5'        19.7060   28.3290   15.3720 O.3       1 OMP216      0.0000 
      6 C5'        19.1190   29.2420   14.4210 C.3       1 OMP216      0.0000 
      7 C4'        17.8630   29.9920   14.9310 C.3       1 OMP216      0.0000 
      8 O4'        18.0930   30.6780   16.1600 O.3       1 OMP216      0.0000 
      9 C3'        16.8630   30.7600   14.3900 C.3       1 OMP216      0.0000 
     10 O3'        15.6830   30.3710   13.6720 O.3       1 OMP216      0.0000 
     11 C2'        16.9150   32.2460   14.8660 C.3       1 OMP216      0.0000 
     12 O2'        15.8900   32.9980   14.5970 O.3       1 OMP216      0.0000 
     13 C1'        17.1110   31.7470   16.3090 C.3       1 OMP216      0.0000 
     14 N1         17.5570   32.8340   17.1670 N.am      1 OMP216      0.0000 
     15 C2         18.4020   33.5580   16.6310 C.2       1 OMP216      0.0000 
     16 O2         18.9530   33.4790   15.4220 O.2       1 OMP216      0.0000 
     17 N3         18.9870   34.5550   17.3200 N.am      1 OMP216      0.0000 
     18 C4         18.6640   34.7550   18.5960 C.2       1 OMP216      0.0000 
     19 O4         19.2440   35.6080   19.3470 O.2       1 OMP216      0.0000 
     20 C5         17.7390   33.9690   19.2480 C.2       1 OMP216      0.0000 
     21 C6         17.0630   32.9880   18.5080 C.2       1 OMP216      0.0000 
     22 C7         16.1270   32.3010   19.3160 C.2       1 OMP216      0.0000 
     23 O71        14.9350   32.0570   19.0050 O.co2     1 OMP216      0.0000 
     24 O72        16.5630   31.4640   20.1300 O.co2     1 OMP216      0.0000 
     25 H          18.8238   28.7130   13.4865 H         1 OMP216      0.0000 
     26 H          19.8529   30.0170   14.1032 H         1 OMP216      0.0000 
     27 H          17.2121   29.0327   15.4300 H         1 OMP216      0.0000 
     28 H          17.5770   31.1010   13.2529 H         1 OMP216      0.0000 
     29 H          17.9168   32.5516   14.5696 H         1 OMP216      0.0000 
     30 H          16.1716   31.3399   16.6238 H         1 OMP216      0.0000 
     31 H          19.6910   35.1660   16.8496 H         1 OMP216      0.0000 
     32 H          17.5437   34.0879   20.2380 H         1 OMP216      0.0000 
     33 H          15.9602   30.3489   12.7114 H         1 OMP216      0.0000 
     34 H          15.2700   32.4129   14.0744 H         1 OMP216      0.0000 
@<TRIPOS>BOND
     1    2    1 ar   
     2    3    1 ar   
     3    4    1 ar   
     4    5    1 1    
     5    6    5 1    
     6    7    6 1    
     7   25    6 1    
     8   26    6 1    
     9    8    7 1    
    10    9    7 1    
    11   27    7 1    
    12   13    8 1    
    13   10    9 1    
    14   11    9 1    
    15   28    9 1    
    16   33   10 1    
    17   12   11 1    
    18   13   11 1    
    19   29   11 1    
    20   34   12 1    
    21   14   13 1    
    22   30   13 1    
    23   15   14 1    
    24   21   14 1    
    25   16   15 2    
    26   17   15 1    
    27   18   17 1    
    28   31   17 1    
    29   19   18 2    
    30   20   18 1    
    31   21   20 2    
    32   32   20 1    
    33   22   21 1    
    34   23   22 ar   
    35   24   22 ar   
@<TRIPOS>SUBSTRUCTURE
     1 OMP216      1 GROUP   
@<TRIPOS>SET

