#    Name: 3sqy_Q11_1_INTS_M
#    Modification time : Mon Mar 24 18:04:53 2014

@<TRIPOS>MOLECULE
3sqy_Q11_1_INTS_M
   51     0     9     0     0
SMALL
NO_CHARGES


@<TRIPOS>ATOM
      1 CA         -4.8395   28.0170   -2.0705 C.3       3 GLC5        0.0000 
      2 CA         -4.1280   28.6690   -3.8790 C.3       9 GLL5        0.0000 
      3 CA         -5.5510   27.3650   -0.2620 C.3       6 GLP5        0.0000 
      4 CA         -3.8440   26.6810   -3.9535 C.3       3 GLC5        0.0000 
      5 CA         -3.5600   24.6930   -4.0280 C.3       6 GLP5        0.0000 
      6 CA         -5.8745   27.5530   -2.4170 C.3       3 GLC5        0.0000 
      7 CA         -6.1980   27.7410   -4.5720 C.3       9 GLL5        0.0000 
      8 CA         -4.8790   26.2170   -4.3000 C.3       3 GLC5        0.0000 
      9 CA         -6.3525   26.5305   -6.1635 C.3       3 GLC5        0.0000 
     10 CA         -6.5070   25.3200   -7.7550 C.3       6 GLP5        0.0000 
     11 CA         -7.2465   28.7470   -3.6155 C.3       3 GLC5        0.0000 
     12 CA         -8.2950   29.7530   -2.6590 C.3       6 GLP5        0.0000 
     13 N          -7.7125   28.5030   -6.0850 N.am      2 SEC2        0.0000 
     14 N          -6.4730   28.7590   -5.4150 N.am      8 SEL2        0.0000 
     15 N          -8.9520   28.2470   -6.7550 N.am      5 SEP2        0.0000 
     16 CA         -7.6435   32.0680   -6.0865 C.3       3 GLC5        0.0000 
     17 CA         -5.9090   30.8680   -6.4170 C.3       9 GLL5        0.0000 
     18 CA         -9.3780   33.2680   -5.7560 C.3       6 GLP5        0.0000 
     19 O          -2.7115   27.4285   -2.6035 O.2       1 ALC1        0.0000 
     20 O          -3.0050   28.5910   -3.1360 O.2       7 ALL1        0.0000 
     21 O          -2.4180   26.2660   -2.0710 O.2       4 ALP1        0.0000 
     22 O          -1.7960   29.2330   -3.2020 O.2       1 ALC1        0.0000 
     23 O          -0.5870   29.8750   -3.2680 O.2       4 ALP1        0.0000 
     24 O          -8.4145   26.6475   -5.0450 O.2       1 ALC1        0.0000 
     25 O          -7.1070   26.7390   -4.4820 O.2       7 ALL1        0.0000 
     26 O          -9.7220   26.5560   -5.6080 O.2       4 ALP1        0.0000 
     27 O          -8.0295   27.4930   -5.6185 O.2       1 ALC1        0.0000 
     28 O          -8.9520   28.2470   -6.7550 O.2       4 ALP1        0.0000 
     29 O          -7.5450   25.5310   -3.4885 O.2       1 ALC1        0.0000 
     30 O          -7.9830   24.3230   -2.4950 O.2       4 ALP1        0.0000 
     31 CA         -3.0100   31.6830   -9.7855 C.3       3 GLC5        0.0000 
     32 CA         -1.9900   33.4930   -9.2380 C.3       9 GLL5        0.0000 
     33 CA         -4.0300   29.8730  -10.3330 C.3       6 GLP5        0.0000 
     34 CA         -0.7455   35.0315   -9.5245 C.3       3 GLC5        0.0000 
     35 CA          0.4990   36.5700   -9.8110 C.3       6 GLP5        0.0000 
     36 CA         -2.3200   35.0660   -7.6990 C.3       3 GLC5        0.0000 
     37 CA         -2.6500   36.6390   -6.1600 C.3       6 GLP5        0.0000 
     38 CA         -0.4305   32.4125   -9.8200 C.3       3 GLC5        0.0000 
     39 CA          1.1290   31.3320  -10.4020 C.3       6 GLP5        0.0000 
     40 CA         -6.6182   29.6395   -3.8021 C.3       3 GLC5        0.0000 
     41 CA         -5.6300   29.8070   -5.5600 C.3       9 GLL5        0.0000 
     42 CA         -5.9090   31.0433   -8.3855 C.3       3 GLC5        0.0000 
     43 CA         -6.3640   30.6880  -10.3000 C.3       6 GLP5        0.0000 
     44 CA         -6.1392   32.0332   -8.8673 C.3       3 GLC5        0.0000 
     45 CA         -5.2950   33.0610   -7.4500 C.3       9 GLL5        0.0000 
     46 CA         -7.8679   33.6676   -6.8084 C.3       3 GLC5        0.0000 
     47 CA         -6.8010   34.7560   -8.2870 C.3       9 GLL5        0.0000 
     48 CA         -4.7118   32.4652   -9.8812 C.3       3 GLC5        0.0000 
     49 CA         -4.2730   33.5240   -8.4260 C.3       9 GLL5        0.0000 
     50 CA         -4.9940   30.8760  -10.9100 C.3       6 GLP5        0.0000 
     51 CA         -3.5398   35.3468   -7.5062 C.3       3 GLC5        0.0000 
@<TRIPOS>BOND
@<TRIPOS>SUBSTRUCTURE
     1 ALC1       19 GROUP        1 X    ALC  0     ROOT ALC X 1
     2 SEC2       13 GROUP        1 X    SEC  0     **** SEC X 2
     3 GLC5        1 GROUP        1 X    GLC  0     **** GLC X 6
     4 ALP1       21 GROUP        1 Y    ALP  0     ROOT ALP Y 8
     5 SEP2       15 GROUP        1 Y    SEP  0     **** SEP Y 9
     6 GLP5        3 GROUP        1 Y    GLP  0     **** GLP Y 13
     7 ALL1       20 GROUP        1 Z    ALL  0     ROOT ALL Z 15
     8 SEL2       14 GROUP        1 Z    SEL  0     **** SEL Z 16
     9 GLL5        2 GROUP        1 Z    GLL  0     **** GLL Z 20
@<TRIPOS>SET

