#    Name: 3sqy_Q11_1_ligand
#    Modification time : Mon Mar 24 18:04:53 2014

@<TRIPOS>MOLECULE
3sqy_Q11_1_ligand
   34    36     1     0     0
SMALL
NO_CHARGES


@<TRIPOS>ATOM
      1 C1         -4.1280   28.6690   -3.8790 C.ar      1 Q11169      0.0000 
      2 N2         -5.0660   27.6910   -3.8270 N.ar      1 Q11169      0.0000 
      3 C3         -6.1980   27.7410   -4.5720 C.ar      1 Q11169      0.0000 
      4 N4         -6.4730   28.7590   -5.4150 N.ar      1 Q11169      0.0000 
      5 C5         -5.6300   29.8070   -5.5600 C.ar      1 Q11169      0.0000 
      6 C6         -4.3780   29.8210   -4.7820 C.ar      1 Q11169      0.0000 
      7 C7         -5.9090   30.8680   -6.4170 C.ar      1 Q11169      0.0000 
      8 C8         -4.9990   31.9290   -6.5250 C.ar      1 Q11169      0.0000 
      9 C9         -3.8100   31.9360   -5.7830 C.ar      1 Q11169      0.0000 
     10 C10        -3.4910   30.8880   -4.9130 C.ar      1 Q11169      0.0000 
     11 N11        -3.0050   28.5910   -3.1360 N.pl3     1 Q11169      0.0000 
     12 N12        -7.1070   26.7390   -4.4820 N.pl3     1 Q11169      0.0000 
     13 C13        -5.2950   33.0610   -7.4500 C.ar      1 Q11169      0.0000 
     14 C14        -6.5340   33.6960   -7.4190 C.ar      1 Q11169      0.0000 
     15 C15        -6.8010   34.7560   -8.2870 C.ar      1 Q11169      0.0000 
     16 C16        -5.8400   35.1890   -9.2030 C.ar      1 Q11169      0.0000 
     17 C17        -4.5860   34.5850   -9.2790 C.ar      1 Q11169      0.0000 
     18 C18        -4.2730   33.5240   -8.4260 C.ar      1 Q11169      0.0000 
     19 O19        -3.0490   32.9110   -8.4800 O.3       1 Q11169      0.0000 
     20 C20        -1.9900   33.4930   -9.2380 C.3       1 Q11169      0.0000 
     21 H          -6.7721   30.8776   -6.9668 H         1 Q11169      0.0000 
     22 H          -3.1568   32.7315   -5.8813 H         1 Q11169      0.0000 
     23 H          -2.6198   30.9068   -4.3824 H         1 Q11169      0.0000 
     24 H          -2.3410   29.3278   -3.2635 H         1 Q11169      0.0000 
     25 H          -2.9363   27.8034   -2.5237 H         1 Q11169      0.0000 
     26 H          -6.8836   25.9977   -3.8491 H         1 Q11169      0.0000 
     27 H          -7.9204   26.8299   -5.0565 H         1 Q11169      0.0000 
     28 H          -7.2550   33.3843   -6.7555 H         1 Q11169      0.0000 
     29 H          -7.7193   35.2254   -8.2516 H         1 Q11169      0.0000 
     30 H          -6.0648   35.9758   -9.8390 H         1 Q11169      0.0000 
     31 H          -3.8942   34.9177   -9.9589 H         1 Q11169      0.0000 
     32 H          -1.1540   32.9466   -9.1884 H         1 Q11169      0.0000 
     33 H          -2.2284   33.5769  -10.2055 H         1 Q11169      0.0000 
     34 H          -1.7605   34.4101   -8.9121 H         1 Q11169      0.0000 
@<TRIPOS>BOND
     1    2    1 ar   
     2    6    1 ar   
     3   11    1 1    
     4    3    2 ar   
     5    4    3 ar   
     6   12    3 1    
     7    5    4 ar   
     8    6    5 ar   
     9    7    5 ar   
    10   10    6 ar   
    11    8    7 ar   
    12   21    7 1    
    13    9    8 ar   
    14   13    8 1    
    15   10    9 ar   
    16   22    9 1    
    17   23   10 1    
    18   24   11 1    
    19   25   11 1    
    20   26   12 1    
    21   27   12 1    
    22   14   13 ar   
    23   18   13 ar   
    24   15   14 ar   
    25   28   14 1    
    26   16   15 ar   
    27   29   15 1    
    28   17   16 ar   
    29   30   16 1    
    30   18   17 ar   
    31   31   17 1    
    32   19   18 1    
    33   20   19 1    
    34   32   20 1    
    35   33   20 1    
    36   34   20 1    
@<TRIPOS>SUBSTRUCTURE
     1 Q11169      1 GROUP   
@<TRIPOS>SET

