#    Name: 4a9n_A9N_2_INTS_M
#    Modification time : Tue Mar 25 05:19:40 2014

@<TRIPOS>MOLECULE
4a9n_A9N_2_INTS_M
   56     0     6     0     0
SMALL
NO_CHARGES


@<TRIPOS>ATOM
      1 CA         44.1055    0.0970    3.3005 C.3       2 GLC5        0.0000 
      2 CA         42.8690    0.5330    1.8240 C.3       6 GLL5        0.0000 
      3 CA         45.3420   -0.3390    4.7770 C.3       4 GLP5        0.0000 
      4 CA         41.2185    1.4810    2.4600 C.3       2 GLC5        0.0000 
      5 CA         39.5680    2.4290    3.0960 C.3       4 GLP5        0.0000 
      6 CA         40.7170   -1.8325    0.2535 C.3       2 GLC5        0.0000 
      7 CA         42.0100   -0.5230    1.2280 C.3       6 GLL5        0.0000 
      8 CA         39.4240   -3.1420   -0.7210 C.3       4 GLP5        0.0000 
      9 CA         40.4810    0.8055    0.9245 C.3       2 GLC5        0.0000 
     10 CA         38.9520    2.1340    0.6210 C.3       4 GLP5        0.0000 
     11 CA         43.6660   -1.1310    3.7140 C.3       2 GLC5        0.0000 
     12 CA         42.7870   -0.9000    2.2020 C.3       6 GLL5        0.0000 
     13 CA         44.5450   -1.3620    5.2260 C.3       4 GLP5        0.0000 
     14 CA         45.7380    1.9480    4.1785 C.3       2 GLC5        0.0000 
     15 CA         45.7510    3.1810    2.7380 C.3       6 GLL5        0.0000 
     16 CA         45.7250    0.7150    5.6190 C.3       4 GLP5        0.0000 
     17 CA         46.8160    4.3640    1.9715 C.3       2 GLC5        0.0000 
     18 CA         47.8810    5.5470    1.2050 C.3       4 GLP5        0.0000 
     19 CA         42.5250    7.9315    3.3575 C.3       2 GLC5        0.0000 
     20 CA         43.1180    5.8400    3.1670 C.3       6 GLL5        0.0000 
     21 CA         41.9320   10.0230    3.5480 C.3       4 GLP5        0.0000 
     22 CA         40.8765    4.6565    4.8870 C.3       2 GLC5        0.0000 
     23 CA         39.8860    6.2690    4.1070 C.3       6 GLL5        0.0000 
     24 CA         41.8670    3.0440    5.6670 C.3       4 GLP5        0.0000 
     25 CA         38.4470    5.7090    4.8360 C.3       2 GLC5        0.0000 
     26 CA         37.0080    5.1490    5.5650 C.3       4 GLP5        0.0000 
     27 CA         40.9090    8.1460    3.8275 C.3       2 GLC5        0.0000 
     28 CA         39.7270    4.3490    3.6015 C.3       2 GLC5        0.0000 
     29 CA         42.9495    7.9160   -1.3700 C.3       2 GLC5        0.0000 
     30 CA         41.3420    7.1820   -0.5710 C.3       6 GLL5        0.0000 
     31 CA         44.5570    8.6500   -2.1690 C.3       4 GLP5        0.0000 
     32 CA         40.9310    9.3145   -0.4650 C.3       2 GLC5        0.0000 
     33 CA         40.5200   11.4470   -0.3590 C.3       4 GLP5        0.0000 
     34 CA         40.5665    8.1370   -2.0435 C.3       2 GLC5        0.0000 
     35 CA         39.7910    9.0920   -3.5160 C.3       4 GLP5        0.0000 
     36 N          38.7285    6.9745   -0.2025 N.am      1 SEC2        0.0000 
     37 N          39.5010    7.6690    0.9150 N.am      5 SEL2        0.0000 
     38 N          37.9560    6.2800   -1.3200 N.am      3 SEP2        0.0000 
     39 CA         42.3120    0.6743    3.9210 C.3       2 GLC5        0.0000 
     40 CA         41.7960    1.5320    5.8290 C.3       4 GLP5        0.0000 
     41 CA         40.9093   -1.2597    2.6795 C.3       2 GLC5        0.0000 
     42 CA         39.4200   -1.8080    3.6440 C.3       4 GLP5        0.0000 
     43 CA         45.0505    5.5470    1.6172 C.3       2 GLC5        0.0000 
     44 CA         43.6390    3.7730    1.4270 C.3       6 GLL5        0.0000 
     45 CA         46.0160    7.2100    1.2770 C.3       4 GLP5        0.0000 
     46 CA         43.1247    3.7815    4.2895 C.3       2 GLC5        0.0000 
     47 CA         44.5310    3.9950    2.4880 C.3       6 GLL5        0.0000 
     48 CA         44.8460    6.3258    2.2642 C.3       2 GLC5        0.0000 
     49 CA         44.2340    5.0430    3.3360 C.3       6 GLL5        0.0000 
     50 CA         42.2772    4.3833    4.1552 C.3       2 GLC5        0.0000 
     51 CA         44.2030    6.1475    1.4803 C.3       2 GLC5        0.0000 
     52 CA         42.2570    5.6050    2.1200 C.3       6 GLL5        0.0000 
     53 CA         41.4035    8.3822    2.4392 C.3       2 GLC5        0.0000 
     54 CA         41.0490    6.4300    1.9140 C.3       6 GLL5        0.0000 
     55 CA         40.3208    4.3987    1.8279 C.3       2 GLC5        0.0000 
     56 CA         38.9220    3.0400    1.8570 C.3       4 GLP5        0.0000 
@<TRIPOS>BOND
@<TRIPOS>SUBSTRUCTURE
     1 SEC2       36 GROUP        1 X    SEC  0     ROOT SEC X 2
     2 GLC5        1 GROUP        1 X    GLC  0     **** GLC X 6
     3 SEP2       38 GROUP        1 Y    SEP  0     ROOT SEP Y 9
     4 GLP5        3 GROUP        1 Y    GLP  0     **** GLP Y 13
     5 SEL2       37 GROUP        1 Z    SEL  0     ROOT SEL Z 16
     6 GLL5        2 GROUP        1 Z    GLL  0     **** GLL Z 20
@<TRIPOS>SET

