#    Name: 4a9n_A9N_2_ligand
#    Modification time : Tue Mar 25 05:19:40 2014

@<TRIPOS>MOLECULE
4a9n_A9N_2_ligand
   37    39     1     0     0
SMALL
NO_CHARGES


@<TRIPOS>ATOM
      1 O3         42.7580    2.3710   -0.5420 O.2       1 A9N1189     0.0000 
      2 S          43.9280    2.4540    0.2790 S.o2      1 A9N1189     0.0000 
      3 O2         45.2040    2.6910   -0.3280 O.2       1 A9N1189     0.0000 
      4 N2         44.0200    1.0660    1.0930 N.pl3     1 A9N1189     0.0000 
      5 C13        42.8690    0.5330    1.8240 C.3       1 A9N1189     0.0000 
      6 C15        42.0100   -0.5230    1.2280 C.2       1 A9N1189     0.0000 
      7 C14        42.7870   -0.9000    2.2020 C.2       1 A9N1189     0.0000 
      8 C11        43.6390    3.7730    1.4270 C.ar      1 A9N1189     0.0000 
      9 C9         44.5310    3.9950    2.4880 C.ar      1 A9N1189     0.0000 
     10 C10        45.7510    3.1810    2.7380 C.3       1 A9N1189     0.0000 
     11 C8         44.2340    5.0430    3.3360 C.ar      1 A9N1189     0.0000 
     12 C7         43.1180    5.8400    3.1670 C.ar      1 A9N1189     0.0000 
     13 C12        42.5230    4.5650    1.2470 C.ar      1 A9N1189     0.0000 
     14 C6         42.2570    5.6050    2.1200 C.ar      1 A9N1189     0.0000 
     15 C5         41.0490    6.4300    1.9140 C.2       1 A9N1189     0.0000 
     16 C2         40.0060    6.6690    2.8380 C.2       1 A9N1189     0.0000 
     17 C1         39.8860    6.2690    4.1070 C.3       1 A9N1189     0.0000 
     18 C3         40.7010    7.0530    0.7470 C.2       1 A9N1189     0.0000 
     19 C4         41.3420    7.1820   -0.5710 C.3       1 A9N1189     0.0000 
     20 O1         39.5010    7.6690    0.9150 O.3       1 A9N1189     0.0000 
     21 N1         39.0860    7.4120    2.2180 N.2       1 A9N1189     0.0000 
     22 H          44.9006    0.6103    1.0603 H         1 A9N1189     0.0000 
     23 H          42.2829    0.9970    2.4677 H         1 A9N1189     0.0000 
     24 H          41.5230   -0.5658    0.7086 H         1 A9N1189     0.0000 
     25 H          43.0952   -1.3315    2.6804 H         1 A9N1189     0.0000 
     26 H          44.8790    5.2421    4.1384 H         1 A9N1189     0.0000 
     27 H          42.9326    6.6111    3.8277 H         1 A9N1189     0.0000 
     28 H          41.8824    4.3817    0.4573 H         1 A9N1189     0.0000 
     29 H          46.3855    3.2161    1.9659 H         1 A9N1189     0.0000 
     30 H          46.2513    3.4993    3.5432 H         1 A9N1189     0.0000 
     31 H          45.5298    2.2180    2.8921 H         1 A9N1189     0.0000 
     32 H          39.8896    5.2720    4.1841 H         1 A9N1189     0.0000 
     33 H          40.6343    6.6097    4.6761 H         1 A9N1189     0.0000 
     34 H          39.0340    6.5917    4.5191 H         1 A9N1189     0.0000 
     35 H          42.2329    7.6319   -0.5083 H         1 A9N1189     0.0000 
     36 H          41.4931    6.2911   -0.9993 H         1 A9N1189     0.0000 
     37 H          40.7855    7.7207   -1.2035 H         1 A9N1189     0.0000 
@<TRIPOS>BOND
     1    2    1 2    
     2    3    2 2    
     3    4    2 1    
     4    8    2 1    
     5    5    4 1    
     6   22    4 1    
     7    6    5 1    
     8    7    5 1    
     9   23    5 1    
    10    7    6 2    
    11   24    6 1    
    12   25    7 1    
    13    9    8 ar   
    14   13    8 ar   
    15   10    9 1    
    16   11    9 ar   
    17   29   10 1    
    18   30   10 1    
    19   31   10 1    
    20   12   11 ar   
    21   26   11 1    
    22   14   12 ar   
    23   27   12 1    
    24   14   13 ar   
    25   28   13 1    
    26   15   14 1    
    27   16   15 1    
    28   18   15 2    
    29   17   16 1    
    30   21   16 2    
    31   32   17 1    
    32   33   17 1    
    33   34   17 1    
    34   19   18 1    
    35   20   18 1    
    36   35   19 1    
    37   36   19 1    
    38   37   19 1    
    39   21   20 1    
@<TRIPOS>SUBSTRUCTURE
     1 A9N1189     1 GROUP   
@<TRIPOS>SET

