#    Name: 3uh2_P34_3_INTS_M
#    Modification time : Mon Mar 24 22:20:52 2014

@<TRIPOS>MOLECULE
3uh2_P34_3_INTS_M
   45     0     9     0     0
SMALL
NO_CHARGES


@<TRIPOS>ATOM
      1 CA        -53.4430    2.0795   19.8530 C.3       3 GLC5        0.0000 
      2 CA        -51.9340    1.7030   18.8490 C.3       9 GLL5        0.0000 
      3 CA        -54.9520    2.4560   20.8570 C.3       6 GLP5        0.0000 
      4 CA        -48.5390    2.3345   17.7345 C.3       3 GLC5        0.0000 
      5 CA        -49.7990    1.0640   18.0140 C.3       9 GLL5        0.0000 
      6 CA        -47.2790    3.6050   17.4550 C.3       6 GLP5        0.0000 
      7 CA        -48.6230    2.6495   18.8845 C.3       3 GLC5        0.0000 
      8 CA        -49.9670    1.6940   20.3140 C.3       9 GLL5        0.0000 
      9 CA        -51.3905    1.3765   21.5590 C.3       3 GLC5        0.0000 
     10 CA        -52.8140    1.0590   22.8040 C.3       6 GLP5        0.0000 
     11 CA        -50.6630   10.3505   23.6995 C.3       3 GLC5        0.0000 
     12 CA        -49.0390    9.1340   23.8960 C.3       9 GLL5        0.0000 
     13 CA        -52.2870   11.5670   23.5030 C.3       6 GLP5        0.0000 
     14 CA        -47.0195    9.1390   27.0455 C.3       3 GLC5        0.0000 
     15 CA        -49.0270    9.0170   26.3390 C.3       9 GLL5        0.0000 
     16 CA        -45.0120    9.2610   27.7520 C.3       6 GLP5        0.0000 
     17 CA        -50.4835    9.1910   28.0300 C.3       3 GLC5        0.0000 
     18 CA        -51.9400    9.3650   29.7210 C.3       6 GLP5        0.0000 
     19 N         -49.6535    6.6660   29.8110 N.am      2 SEC2        0.0000 
     20 N         -49.4070    7.3440   28.6450 N.am      8 SEL2        0.0000 
     21 N         -49.9000    5.9880   30.9770 N.am      5 SEP2        0.0000 
     22 N         -49.5250    8.5450   29.4065 N.am      2 SEC2        0.0000 
     23 N         -49.6430    9.7460   30.1680 N.am      5 SEP2        0.0000 
     24 O         -50.1210    4.6795   28.4060 O.2       1 ALC1        0.0000 
     25 O         -49.6530    5.4910   27.4240 O.2       7 ALL1        0.0000 
     26 O         -50.5890    3.8680   29.3880 O.2       4 ALP1        0.0000 
     27 CA        -51.3335    2.0178   23.5945 C.3       3 GLC5        0.0000 
     28 CA        -49.9310    2.6440   25.0020 C.3       9 GLL5        0.0000 
     29 CA        -47.8465    5.8700   24.2267 C.3       3 GLC5        0.0000 
     30 CA        -49.5630    4.7230   23.7640 C.3       9 GLL5        0.0000 
     31 CA        -46.1210    6.6370   24.0890 C.3       6 GLP5        0.0000 
     32 CA        -47.7148    6.9882   24.2425 C.3       3 GLC5        0.0000 
     33 CA        -49.3430    6.9460   24.9930 C.3       9 GLL5        0.0000 
     34 CA        -47.5260    8.0403   24.3062 C.3       3 GLC5        0.0000 
     35 CA        -48.1730   10.6483   23.0123 C.3       3 GLC5        0.0000 
     36 CA        -47.4150   11.8530   21.5010 C.3       6 GLP5        0.0000 
     37 CA        -48.6000   10.9705   26.8270 C.3       3 GLC5        0.0000 
     38 CA        -48.8230    9.7530   25.1510 C.3       9 GLL5        0.0000 
     39 CA        -48.2750   12.5560   27.9090 C.3       6 GLP5        0.0000 
     40 CA        -50.1565   10.8335   25.7590 C.3       3 GLC5        0.0000 
     41 CA        -51.3880   12.2820   25.7730 C.3       6 GLP5        0.0000 
     42 CA        -47.6247    7.4740   25.1962 C.3       3 GLC5        0.0000 
     43 CA        -51.4237    4.6469   26.6509 C.3       3 GLC5        0.0000 
     44 CA        -49.5810    5.4830   24.9650 C.3       9 GLL5        0.0000 
     45 CA        -53.0700    5.0360   27.4000 C.3       6 GLP5        0.0000 
@<TRIPOS>BOND
@<TRIPOS>SUBSTRUCTURE
     1 ALC1       24 GROUP        1 X    ALC  0     ROOT ALC X 1
     2 SEC2       19 GROUP        1 X    SEC  0     **** SEC X 2
     3 GLC5        1 GROUP        1 X    GLC  0     **** GLC X 6
     4 ALP1       26 GROUP        1 Y    ALP  0     ROOT ALP Y 8
     5 SEP2       21 GROUP        1 Y    SEP  0     **** SEP Y 9
     6 GLP5        3 GROUP        1 Y    GLP  0     **** GLP Y 13
     7 ALL1       25 GROUP        1 Z    ALL  0     ROOT ALL Z 15
     8 SEL2       20 GROUP        1 Z    SEL  0     **** SEL Z 16
     9 GLL5        2 GROUP        1 Z    GLL  0     **** GLL Z 20
@<TRIPOS>SET

