#    Name: 3uh2_P34_3_ligand
#    Modification time : Mon Mar 24 22:20:52 2014

@<TRIPOS>MOLECULE
3uh2_P34_3_ligand
   40    42     1     0     0
SMALL
NO_CHARGES


@<TRIPOS>ATOM
      1 CAA       -51.9340    1.7030   18.8490 C.3       1 P341        0.0000 
      2 N         -50.4910    1.9610   18.9440 N.4       1 P341        0.0000 
      3 CAB       -49.7990    1.0640   18.0140 C.3       1 P341        0.0000 
      4 CA        -49.9670    1.6940   20.3140 C.3       1 P341        0.0000 
      5 C         -50.1050    2.8480   21.3180 C.2       1 P341        0.0000 
      6 O         -50.5270    3.9470   20.9260 O.2       1 P341        0.0000 
      7 NAM       -49.7720    2.5130   22.5860 N.am      1 P341        0.0000 
      8 CAP       -49.7750    3.3090   23.7680 C.ar      1 P341        0.0000 
      9 CAK       -49.5630    4.7230   23.7640 C.ar      1 P341        0.0000 
     10 CAU       -49.5810    5.4830   24.9650 C.ar      1 P341        0.0000 
     11 CAT       -49.3430    6.9460   24.9930 C.ar      1 P341        0.0000 
     12 CAI       -49.2740    7.7330   23.7990 C.ar      1 P341        0.0000 
     13 CAF       -49.0390    9.1340   23.8960 C.ar      1 P341        0.0000 
     14 CAE       -48.8230    9.7530   25.1510 C.ar      1 P341        0.0000 
     15 CAH       -49.0270    9.0170   26.3390 C.ar      1 P341        0.0000 
     16 CAS       -49.2300    7.6050   26.2680 C.ar      1 P341        0.0000 
     17 CAQ       -49.4180    6.8110   27.5460 C.2       1 P341        0.0000 
     18 OAD       -49.4070    7.3440   28.6450 O.2       1 P341        0.0000 
     19 NAN       -49.6530    5.4910   27.4240 N.am      1 P341        0.0000 
     20 CAR       -49.7190    4.7820   26.1960 C.ar      1 P341        0.0000 
     21 CAJ       -49.9050    3.3830   26.2230 C.ar      1 P341        0.0000 
     22 CAG       -49.9310    2.6440   25.0020 C.ar      1 P341        0.0000 
     23 H         -50.2784    2.9814   18.6746 H         1 P341        0.0000 
     24 H         -48.8897    1.4176   20.2560 H         1 P341        0.0000 
     25 H         -50.4786    0.8031   20.7439 H         1 P341        0.0000 
     26 H         -49.4472    1.4774   22.7558 H         1 P341        0.0000 
     27 H         -49.3936    5.1987   22.8681 H         1 P341        0.0000 
     28 H         -49.3918    7.2937   22.8948 H         1 P341        0.0000 
     29 H         -49.0267    9.7010   23.0410 H         1 P341        0.0000 
     30 H         -48.5218   10.7249   25.1951 H         1 P341        0.0000 
     31 H         -49.0306    9.4822   27.2417 H         1 P341        0.0000 
     32 H         -49.8056    4.9055   28.3039 H         1 P341        0.0000 
     33 H         -50.0212    2.8949   27.1090 H         1 P341        0.0000 
     34 H         -50.0631    1.6331   25.0300 H         1 P341        0.0000 
     35 H         -52.2798    1.8627   17.9244 H         1 P341        0.0000 
     36 H         -52.1588    0.7581   19.0868 H         1 P341        0.0000 
     37 H         -52.4580    2.2926   19.4637 H         1 P341        0.0000 
     38 H         -48.8085    1.2004   18.0341 H         1 P341        0.0000 
     39 H         -49.9669    0.1024   18.2312 H         1 P341        0.0000 
     40 H         -50.0955    1.2074   17.0698 H         1 P341        0.0000 
@<TRIPOS>BOND
     1    2    1 1    
     2   35    1 1    
     3   36    1 1    
     4   37    1 1    
     5    3    2 1    
     6    4    2 1    
     7   23    2 1    
     8   38    3 1    
     9   39    3 1    
    10   40    3 1    
    11    5    4 1    
    12   24    4 1    
    13   25    4 1    
    14    6    5 2    
    15    7    5 am   
    16    8    7 1    
    17   26    7 1    
    18    9    8 ar   
    19   22    8 ar   
    20   10    9 ar   
    21   27    9 1    
    22   11   10 1    
    23   20   10 ar   
    24   12   11 ar   
    25   16   11 ar   
    26   13   12 ar   
    27   28   12 1    
    28   14   13 ar   
    29   29   13 1    
    30   15   14 ar   
    31   30   14 1    
    32   16   15 ar   
    33   31   15 1    
    34   17   16 1    
    35   18   17 2    
    36   19   17 am   
    37   20   19 1    
    38   32   19 1    
    39   21   20 ar   
    40   22   21 ar   
    41   33   21 1    
    42   34   22 1    
@<TRIPOS>SUBSTRUCTURE
     1 P341        1 GROUP   
@<TRIPOS>SET

