#    Name: 3bv7_NAP_1_INTS_M
#    Modification time : Mon Mar 24 20:07:34 2014

@<TRIPOS>MOLECULE
3bv7_NAP_1_INTS_M
  113     0    12     0     0
SMALL
NO_CHARGES


@<TRIPOS>ATOM
      1 N           4.9200   33.2265  -30.9780 N.am      2 SEC2        0.0000 
      2 N           5.4820   31.9350  -30.8600 N.am     10 SEL2        0.0000 
      3 N           4.3580   34.5180  -31.0960 N.am      6 SEP2        0.0000 
      4 N           5.9595   31.6305  -32.3525 N.am      2 SEC2        0.0000 
      5 N           6.4370   31.3260  -33.8450 N.am      6 SEP2        0.0000 
      6 N           6.0575   31.2230  -27.0920 N.am      2 SEC2        0.0000 
      7 N           5.8250   31.3010  -28.4610 N.am     10 SEL2        0.0000 
      8 N           6.2900   31.1450  -25.7230 N.am      6 SEP2        0.0000 
      9 CA          7.9550   30.4585  -31.7735 C.3       4 GLC5        0.0000 
     10 CA          8.8300   30.8700  -29.9180 C.3      12 GLL5        0.0000 
     11 CA          7.0800   30.0470  -33.6290 C.3       8 GLP5        0.0000 
     12 CA         11.2085   29.1310  -30.7015 C.3       4 GLC5        0.0000 
     13 CA         11.3940   30.5340  -29.3490 C.3      12 GLL5        0.0000 
     14 CA         11.0230   27.7280  -32.0540 C.3       8 GLP5        0.0000 
     15 CA         10.6155   29.3390  -27.6830 C.3       4 GLC5        0.0000 
     16 CA          9.8370   28.1440  -26.0170 C.3       8 GLP5        0.0000 
     17 N           9.5190   35.5800  -25.5435 N.am      2 SEC2        0.0000 
     18 N          10.5710   35.3000  -26.5730 N.am     10 SEL2        0.0000 
     19 N           8.4670   35.8600  -24.5140 N.am      6 SEP2        0.0000 
     20 CA         10.0390   38.6340  -28.0625 C.3       4 GLC5        0.0000 
     21 CA         11.4840   37.4220  -27.4560 C.3      12 GLL5        0.0000 
     22 CA          8.5940   39.8460  -28.6690 C.3       8 GLP5        0.0000 
     23 O           9.8515   38.1510  -25.7840 O.2       1 ALC1        0.0000 
     24 O          11.0450   38.2810  -26.5670 O.2       9 ALL1        0.0000 
     25 O           8.6580   38.0210  -25.0010 O.2       5 ALP1        0.0000 
     26 CA         11.5485   37.3305  -30.6580 C.3       4 GLC5        0.0000 
     27 CA         12.7950   37.1550  -29.5060 C.3      12 GLL5        0.0000 
     28 CA         10.3020   37.5060  -31.8100 C.3       8 GLP5        0.0000 
     29 CA         13.5725   36.7075  -27.8525 C.3       4 GLC5        0.0000 
     30 CA         14.3500   36.2600  -26.1990 C.3       8 GLP5        0.0000 
     31 CA         11.0160   36.3715  -30.1545 C.3       4 GLC5        0.0000 
     32 CA         11.7300   35.2370  -28.4990 C.3      12 GLL5        0.0000 
     33 N           4.2445   27.9880  -31.8875 N.am      2 SEC2        0.0000 
     34 N           5.3280   27.5540  -31.0930 N.am     10 SEL2        0.0000 
     35 N           3.1610   28.4220  -32.6820 N.am      6 SEP2        0.0000 
     36 N           3.0920   29.3210  -30.0135 N.am      2 SEC2        0.0000 
     37 N           4.3420   28.7580  -29.2790 N.am     10 SEL2        0.0000 
     38 N           1.8420   29.8840  -30.7480 N.am      6 SEP2        0.0000 
     39 CA          3.4125   29.7675  -29.7310 C.3       4 GLC5        0.0000 
     40 CA          3.9400   28.9920  -27.9350 C.3      12 GLL5        0.0000 
     41 CA          2.8850   30.5430  -31.5270 C.3       8 GLP5        0.0000 
     42 CA          3.1680   30.6790  -28.5620 C.3       4 GLC5        0.0000 
     43 CA          2.3960   32.3660  -29.1890 C.3       8 GLP5        0.0000 
     44 CA          1.5640   28.1095  -26.4220 C.3       4 GLC5        0.0000 
     45 CA          3.3600   27.8840  -27.1240 C.3      12 GLL5        0.0000 
     46 CA         -0.2320   28.3350  -25.7200 C.3       8 GLP5        0.0000 
     47 CA          5.8040   27.7350  -26.4910 C.3       4 GLC5        0.0000 
     48 CA          4.1400   26.4970  -27.2100 C.3      12 GLL5        0.0000 
     49 CA          7.4680   28.9730  -25.7720 C.3       8 GLP5        0.0000 
     50 N           5.9275   25.3840  -25.8265 N.am      2 SEC2        0.0000 
     51 N           5.3990   26.5590  -26.4500 N.am     10 SEL2        0.0000 
     52 N           6.4560   24.2090  -25.2030 N.am      6 SEP2        0.0000 
     53 CA          3.2070   23.7305  -26.0330 C.3       4 GLC5        0.0000 
     54 CA          3.0340   25.5420  -26.7320 C.3      12 GLL5        0.0000 
     55 CA          3.3800   21.9190  -25.3340 C.3       8 GLP5        0.0000 
     56 N           4.1330   25.8280  -24.2835 N.am      2 SEC2        0.0000 
     57 N           2.8820   25.6860  -25.2890 N.am     10 SEL2        0.0000 
     58 N           5.3840   25.9700  -23.2780 N.am      6 SEP2        0.0000 
     59 O           1.6785   25.4580  -24.8195 O.2       1 ALC1        0.0000 
     60 O           2.8820   25.6860  -25.2890 O.2       9 ALL1        0.0000 
     61 O           0.4750   25.2300  -24.3500 O.2       5 ALP1        0.0000 
     62 CA          0.6500   27.0620  -28.7705 C.3       4 GLC5        0.0000 
     63 CA          1.8530   26.0780  -27.5120 C.3      12 GLL5        0.0000 
     64 CA         -0.5530   28.0460  -30.0290 C.3       8 GLP5        0.0000 
     65 CA         -0.7035   23.7525  -27.3685 C.3       4 GLC5        0.0000 
     66 CA          0.3550   24.7620  -28.9750 C.3      12 GLL5        0.0000 
     67 CA         -1.7620   22.7430  -25.7620 C.3       8 GLP5        0.0000 
     68 N          -2.5570   22.4610  -32.1210 N.am      2 SEC2        0.0000 
     69 N          -1.3540   22.6460  -31.4050 N.am     10 SEL2        0.0000 
     70 N          -3.7600   22.2760  -32.8370 N.am      6 SEP2        0.0000 
     71 O          -3.4355   23.3570  -29.6425 O.2       1 ALC1        0.0000 
     72 O          -1.9920   23.2840  -29.3330 O.2       9 ALL1        0.0000 
     73 O          -4.8790   23.4300  -29.9520 O.2       5 ALP1        0.0000 
     74 O          -2.0050   24.4135  -28.2995 O.2       1 ALC1        0.0000 
     75 O          -2.0180   25.5430  -27.2660 O.2       5 ALP1        0.0000 
     76 NZ         12.6845   28.9215  -25.9855 N.4       3 LYC4        0.0000 
     77 NZ         13.1210   30.2410  -25.7630 N.4      11 LYL4        0.0000 
     78 NZ         12.2480   27.6020  -26.2080 N.4       7 LYP4        0.0000 
     79 N          12.6845   28.9215  -25.9855 N.am      2 SEC2        0.0000 
     80 N          13.1210   30.2410  -25.7630 N.am     10 SEL2        0.0000 
     81 N          12.2480   27.6020  -26.2080 N.am      6 SEP2        0.0000 
     82 N          12.8145   30.1395  -24.3460 N.am      2 SEC2        0.0000 
     83 N          12.5080   30.0380  -22.9290 N.am      6 SEP2        0.0000 
     84 NZ         16.0960   32.3360  -26.3955 N.4       3 LYC4        0.0000 
     85 NZ         15.3220   31.1180  -26.6180 N.4      11 LYL4        0.0000 
     86 NZ         16.4130   34.8110  -26.1030 N.4       7 LYP4        0.0000 
     87 N          16.0960   32.3360  -26.3955 N.am      2 SEC2        0.0000 
     88 N          15.3220   31.1180  -26.6180 N.am     10 SEL2        0.0000 
     89 N          16.8700   33.5540  -26.1730 N.am      6 SEP2        0.0000 
     90 NZ         14.3070   33.8890  -26.0445 N.4       3 LYC4        0.0000 
     91 NZ         13.4970   32.7470  -25.8650 N.4      11 LYL4        0.0000 
     92 N          12.9680   32.8730  -24.6225 N.am      2 SEC2        0.0000 
     93 N          13.4970   32.7470  -25.8650 N.am     10 SEL2        0.0000 
     94 N          12.4390   32.9990  -23.3800 N.am      6 SEP2        0.0000 
     95 N          14.3070   33.8890  -26.0445 N.am      2 SEC2        0.0000 
     96 N          15.1170   35.0310  -26.2240 N.am      6 SEP2        0.0000 
     97 N          15.1835   33.1505  -26.0190 N.am      2 SEC2        0.0000 
     98 CA         10.1028   29.9778  -31.5147 C.3       4 GLC5        0.0000 
     99 CA         10.2770   31.2970  -30.1370 C.3      12 GLL5        0.0000 
    100 CA         10.6520   28.8720  -33.0020 C.3       8 GLP5        0.0000 
    101 CA          9.6390   35.6912  -28.1589 C.3       4 GLC5        0.0000 
    102 CA         11.2240   36.0380  -27.5050 C.3      12 GLL5        0.0000 
    103 CA          7.7360   35.3990  -28.3280 C.3       8 GLP5        0.0000 
    104 CA         12.9460   36.1217  -27.0944 C.3       4 GLC5        0.0000 
    105 CA          5.5590   28.7055  -26.6507 C.3       4 GLC5        0.0000 
    106 CA          5.0025   24.7297  -27.2885 C.3       4 GLC5        0.0000 
    107 CA          6.4180   23.4400  -27.6060 C.3       8 GLP5        0.0000 
    108 CA          3.8865   27.2836  -25.1992 C.3       4 GLC5        0.0000 
    109 CA          4.3810   28.2010  -23.4490 C.3       8 GLP5        0.0000 
    110 CA          1.1058   27.0725  -26.4210 C.3       4 GLC5        0.0000 
    111 CA         -0.1573   26.2270  -29.8040 C.3       4 GLC5        0.0000 
    112 CA          0.7809   26.5109  -30.3069 C.3       4 GLC5        0.0000 
    113 CA          2.5310   25.5090  -29.9610 C.3      12 GLL5        0.0000 
@<TRIPOS>BOND
@<TRIPOS>SUBSTRUCTURE
     1 ALC1       23 GROUP        1 X    ALC  0     ROOT ALC X 1
     2 SEC2        1 GROUP        1 X    SEC  0     **** SEC X 2
     3 LYC4       76 GROUP        1 X    LYC  0     **** LYC X 4
     4 GLC5        9 GROUP        1 X    GLC  0     **** GLC X 6
     5 ALP1       25 GROUP        1 Y    ALP  0     ROOT ALP Y 8
     6 SEP2        3 GROUP        1 Y    SEP  0     **** SEP Y 9
     7 LYP4       78 GROUP        1 Y    LYP  0     **** LYP Y 11
     8 GLP5       11 GROUP        1 Y    GLP  0     **** GLP Y 13
     9 ALL1       24 GROUP        1 Z    ALL  0     ROOT ALL Z 15
    10 SEL2        2 GROUP        1 Z    SEL  0     **** SEL Z 16
    11 LYL4       77 GROUP        1 Z    LYL  0     **** LYL Z 18
    12 GLL5       10 GROUP        1 Z    GLL  0     **** GLL Z 20
@<TRIPOS>SET

