#    Name: 3bv7_NAP_1_ligand
#    Modification time : Mon Mar 24 20:07:34 2014

@<TRIPOS>MOLECULE
3bv7_NAP_1_ligand
   72    76     1     0     0
SMALL
NO_CHARGES


@<TRIPOS>ATOM
      1 PA          6.2150   31.1980  -29.9060 P.3       1 NAP3901     0.0000 
      2 O1A         5.4820   31.9350  -30.8600 O.co2     1 NAP3901     0.0000 
      3 O2A         5.8250   31.3010  -28.4610 O.co2     1 NAP3901     0.0000 
      4 O5B         7.8250   31.6080  -30.0160 O.3       1 NAP3901     0.0000 
      5 C5B         8.8300   30.8700  -29.9180 C.3       1 NAP3901     0.0000 
      6 C4B        10.2770   31.2970  -30.1370 C.3       1 NAP3901     0.0000 
      7 O4B        10.3760   32.5930  -29.7300 O.3       1 NAP3901     0.0000 
      8 C3B        11.3940   30.5340  -29.3490 C.3       1 NAP3901     0.0000 
      9 O3B        12.4380   30.2470  -30.2710 O.3       1 NAP3901     0.0000 
     10 C2B        11.8660   31.5430  -28.3080 C.3       1 NAP3901     0.0000 
     11 O2B        13.2870   31.3990  -28.0170 O.3       1 NAP3901     0.0000 
     12 C1B        11.6290   32.8440  -29.0540 C.3       1 NAP3901     0.0000 
     13 N9A        11.3730   34.0120  -28.2340 N.pl3     1 NAP3901     0.0000 
     14 C8A        10.6720   34.0180  -27.0620 C.2       1 NAP3901     0.0000 
     15 N7A        10.5710   35.3000  -26.5730 N.2       1 NAP3901     0.0000 
     16 C5A        11.2240   36.0380  -27.5050 C.ar      1 NAP3901     0.0000 
     17 C6A        11.4840   37.4220  -27.4560 C.ar      1 NAP3901     0.0000 
     18 N6A        11.0450   38.2810  -26.5670 N.pl3     1 NAP3901     0.0000 
     19 N1A        12.2850   37.9630  -28.5200 N.ar      1 NAP3901     0.0000 
     20 C2A        12.7950   37.1550  -29.5060 C.ar      1 NAP3901     0.0000 
     21 N3A        12.5820   35.8270  -29.5030 N.ar      1 NAP3901     0.0000 
     22 C4A        11.7300   35.2370  -28.4990 C.ar      1 NAP3901     0.0000 
     23 O3          5.9970   29.6910  -30.2190 O.3       1 NAP3901     0.0000 
     24 PN          5.5460   28.2810  -29.9290 P.3       1 NAP3901     0.0000 
     25 O1N         5.3280   27.5540  -31.0930 O.co2     1 NAP3901     0.0000 
     26 O2N         6.4240   27.7450  -28.8290 O.co2     1 NAP3901     0.0000 
     27 O5D         4.3420   28.7580  -29.2790 O.3       1 NAP3901     0.0000 
     28 C5D         3.9400   28.9920  -27.9350 C.3       1 NAP3901     0.0000 
     29 C4D         3.3600   27.8840  -27.1240 C.3       1 NAP3901     0.0000 
     30 O4D         2.0790   27.4930  -27.7030 O.3       1 NAP3901     0.0000 
     31 C3D         4.1400   26.4970  -27.2100 C.3       1 NAP3901     0.0000 
     32 O3D         5.3990   26.5590  -26.4500 O.3       1 NAP3901     0.0000 
     33 C2D         3.0340   25.5420  -26.7320 C.3       1 NAP3901     0.0000 
     34 O2D         2.8820   25.6860  -25.2890 O.3       1 NAP3901     0.0000 
     35 C1D         1.8530   26.0780  -27.5120 C.3       1 NAP3901     0.0000 
     36 N1N         1.5560   25.4910  -28.8520 N.pl3     1 NAP3901     0.0000 
     37 C2N         0.3550   24.7620  -28.9750 C.ar      1 NAP3901     0.0000 
     38 C3N         0.1220   24.0540  -30.1830 C.ar      1 NAP3901     0.0000 
     39 C7N        -1.1530   23.2580  -30.3620 C.2       1 NAP3901     0.0000 
     40 O7N        -1.3540   22.6460  -31.4050 O.2       1 NAP3901     0.0000 
     41 N7N        -1.9920   23.2840  -29.3330 N.am      1 NAP3901     0.0000 
     42 C4N         1.0830   24.0720  -31.2630 C.ar      1 NAP3901     0.0000 
     43 C5N         2.3140   24.8130  -31.1540 C.ar      1 NAP3901     0.0000 
     44 C6N         2.5310   25.5090  -29.9610 C.ar      1 NAP3901     0.0000 
     45 P2B        13.8230   31.3780  -26.4830 P.3       1 NAP3901     0.0000 
     46 O1X        13.1210   30.2410  -25.7630 O.co2     1 NAP3901     0.0000 
     47 O2X        15.3220   31.1180  -26.6180 O.co2     1 NAP3901     0.0000 
     48 O3X        13.4970   32.7470  -25.8650 O.co2     1 NAP3901     0.0000 
     49 H           8.7455   29.8875  -30.5880 H         1 NAP3901     0.0000 
     50 H           8.8829   30.3027  -28.8708 H         1 NAP3901     0.0000 
     51 H          10.5143   31.2102  -31.1949 H         1 NAP3901     0.0000 
     52 H          10.9670   29.7116  -28.8918 H         1 NAP3901     0.0000 
     53 H          11.2447   31.5060  -27.4788 H         1 NAP3901     0.0000 
     54 H          12.3867   32.9960  -29.7661 H         1 NAP3901     0.0000 
     55 H          10.2970   33.2343  -26.6316 H         1 NAP3901     0.0000 
     56 H          13.3606   37.5940  -30.2717 H         1 NAP3901     0.0000 
     57 H           3.1951   29.8622  -27.8994 H         1 NAP3901     0.0000 
     58 H           4.8176   29.4239  -27.3378 H         1 NAP3901     0.0000 
     59 H           3.2417   28.1190  -26.1106 H         1 NAP3901     0.0000 
     60 H           4.2825   26.3368  -28.2654 H         1 NAP3901     0.0000 
     61 H           3.2710   24.5829  -27.0527 H         1 NAP3901     0.0000 
     62 H           0.9538   25.9779  -26.8767 H         1 NAP3901     0.0000 
     63 H          -0.3212   24.7416  -28.2290 H         1 NAP3901     0.0000 
     64 H          -1.7284   23.8677  -28.5650 H         1 NAP3901     0.0000 
     65 H          -2.8116   22.7176  -29.4191 H         1 NAP3901     0.0000 
     66 H           0.8843   23.5505  -32.1160 H         1 NAP3901     0.0000 
     67 H           2.9682   24.8164  -31.9065 H         1 NAP3901     0.0000 
     68 H           3.3875   26.0613  -29.8190 H         1 NAP3901     0.0000 
     69 H          13.2792   30.5126  -29.8001 H         1 NAP3901     0.0000 
     70 H          10.2008   37.8783  -26.2131 H         1 NAP3901     0.0000 
     71 H           6.0522   26.9980  -27.0669 H         1 NAP3901     0.0000 
     72 H           1.9112   25.5225  -25.1135 H         1 NAP3901     0.0000 
@<TRIPOS>BOND
     1    2    1 ar   
     2    3    1 ar   
     3    4    1 1    
     4   23    1 1    
     5    5    4 1    
     6    6    5 1    
     7   49    5 1    
     8   50    5 1    
     9    7    6 1    
    10    8    6 1    
    11   51    6 1    
    12   12    7 1    
    13    9    8 1    
    14   10    8 1    
    15   52    8 1    
    16   69    9 1    
    17   11   10 1    
    18   12   10 1    
    19   53   10 1    
    20   45   11 1    
    21   13   12 1    
    22   54   12 1    
    23   14   13 1    
    24   22   13 1    
    25   15   14 2    
    26   55   14 1    
    27   16   15 1    
    28   17   16 ar   
    29   22   16 ar   
    30   18   17 1    
    31   19   17 ar   
    32   70   18 1    
    33   20   19 ar   
    34   21   20 ar   
    35   56   20 1    
    36   22   21 ar   
    37   24   23 1    
    38   25   24 ar   
    39   26   24 ar   
    40   27   24 1    
    41   28   27 1    
    42   29   28 1    
    43   57   28 1    
    44   58   28 1    
    45   30   29 1    
    46   31   29 1    
    47   59   29 1    
    48   35   30 1    
    49   32   31 1    
    50   33   31 1    
    51   60   31 1    
    52   71   32 1    
    53   34   33 1    
    54   35   33 1    
    55   61   33 1    
    56   72   34 1    
    57   36   35 1    
    58   62   35 1    
    59   37   36 ar   
    60   44   36 ar   
    61   38   37 ar   
    62   63   37 1    
    63   39   38 1    
    64   42   38 ar   
    65   40   39 2    
    66   41   39 am   
    67   64   41 1    
    68   65   41 1    
    69   43   42 ar   
    70   66   42 1    
    71   44   43 ar   
    72   67   43 1    
    73   68   44 1    
    74   46   45 ar   
    75   47   45 ar   
    76   48   45 ar   
@<TRIPOS>SUBSTRUCTURE
     1 NAP3901     1 GROUP   
@<TRIPOS>SET

