#    Name: 4aou_NAP_1_INTS_M
#    Modification time : Tue Mar 25 05:57:20 2014

@<TRIPOS>MOLECULE
4aou_NAP_1_INTS_M
   68     0     9     0     0
SMALL
NO_CHARGES


@<TRIPOS>ATOM
      1 N         -55.6325   15.7425  -18.1335 N.am      2 SEC2        0.0000 
      2 N         -56.3720   15.3140  -19.1470 N.am      8 SEL2        0.0000 
      3 N         -54.8930   16.1710  -17.1200 N.am      5 SEP2        0.0000 
      4 N         -55.7965   18.8510  -19.8980 N.am      2 SEC2        0.0000 
      5 N         -55.5210   17.5230  -19.8850 N.am      8 SEL2        0.0000 
      6 N         -56.0720   20.1790  -19.9110 N.am      5 SEP2        0.0000 
      7 CA        -61.5065   18.6880  -22.8470 C.3       3 GLC5        0.0000 
      8 CA        -61.0750   16.6390  -22.2270 C.3       9 GLL5        0.0000 
      9 CA        -61.9380   20.7370  -23.4670 C.3       6 GLP5        0.0000 
     10 CA        -62.0530   20.3715  -17.5220 C.3       3 GLC5        0.0000 
     11 CA        -62.0170   18.4150  -17.2360 C.3       9 GLL5        0.0000 
     12 CA        -62.0890   22.3280  -17.8080 C.3       6 GLP5        0.0000 
     13 CA        -63.7580   18.6220  -16.2615 C.3       3 GLC5        0.0000 
     14 CA        -65.4990   18.8290  -15.2870 C.3       6 GLP5        0.0000 
     15 O         -62.2525   19.4665  -15.1515 O.2       1 ALC1        0.0000 
     16 O         -61.4690   18.8680  -16.0770 O.2       7 ALL1        0.0000 
     17 O         -63.0360   20.0650  -14.2260 O.2       4 ALP1        0.0000 
     18 N         -63.9730   19.8385  -17.0310 N.am      2 SEC2        0.0000 
     19 N         -63.2880   18.8270  -17.6420 N.am      8 SEL2        0.0000 
     20 N         -64.6580   20.8500  -16.4200 N.am      5 SEP2        0.0000 
     21 CA        -64.1865   20.4310  -18.5160 C.3       3 GLC5        0.0000 
     22 CA        -63.8380   18.3770  -18.8170 C.3       9 GLL5        0.0000 
     23 CA        -64.5350   22.4850  -18.2150 C.3       6 GLP5        0.0000 
     24 CA        -64.6685   18.6030  -17.0520 C.3       3 GLC5        0.0000 
     25 CA        -65.5005   17.2345  -19.0250 C.3       3 GLC5        0.0000 
     26 CA        -67.1630   16.0920  -19.2330 C.3       6 GLP5        0.0000 
     27 CA        -60.7855   18.6850  -19.9835 C.3       3 GLC5        0.0000 
     28 CA        -61.8960   17.0960  -19.2550 C.3       9 GLL5        0.0000 
     29 CA        -59.6750   20.2740  -20.7120 C.3       6 GLP5        0.0000 
     30 CA        -53.3715   19.6120  -23.2575 C.3       3 GLC5        0.0000 
     31 CA        -52.6610   17.9350  -22.0060 C.3       9 GLL5        0.0000 
     32 CA        -54.0820   21.2890  -24.5090 C.3       6 GLP5        0.0000 
     33 CA        -52.2320   20.0290  -20.0540 C.3       3 GLC5        0.0000 
     34 CA        -51.4160   18.4350  -21.2850 C.3       9 GLL5        0.0000 
     35 CA        -53.0480   21.6230  -18.8230 C.3       6 GLP5        0.0000 
     36 N         -52.7260   18.7490  -19.1765 N.am      2 SEC2        0.0000 
     37 N         -51.5220   18.1110  -19.8910 N.am      8 SEL2        0.0000 
     38 N         -53.9300   19.3870  -18.4620 N.am      5 SEP2        0.0000 
     39 N         -49.7175   19.7000  -23.1055 N.am      2 SEC2        0.0000 
     40 N         -49.1840   18.6060  -22.3040 N.am      8 SEL2        0.0000 
     41 N         -50.2510   20.7940  -23.9070 N.am      5 SEP2        0.0000 
     42 N         -47.2495   17.9825  -20.0520 N.am      2 SEC2        0.0000 
     43 N         -48.2560   16.8920  -20.5320 N.am      8 SEL2        0.0000 
     44 N         -46.2430   19.0730  -19.5720 N.am      5 SEP2        0.0000 
     45 CA        -48.9880   19.2600  -19.3205 C.3       3 GLC5        0.0000 
     46 CA        -50.3040   17.5110  -19.4400 C.3       9 GLL5        0.0000 
     47 CA        -47.6720   21.0090  -19.2010 C.3       6 GLP5        0.0000 
     48 CA        -52.0840   17.3425  -18.4190 C.3       3 GLC5        0.0000 
     49 CA        -53.8640   17.1740  -17.3980 C.3       6 GLP5        0.0000 
     50 CA        -51.0930   19.3860  -18.6750 C.3       3 GLC5        0.0000 
     51 CA        -51.8820   21.2610  -17.9100 C.3       6 GLP5        0.0000 
     52 N         -63.3020   18.7500  -23.5720 N.am      2 SEC2        0.0000 
     53 N         -63.6350   17.5610  -24.1310 N.am      8 SEL2        0.0000 
     54 N         -62.9690   19.9390  -23.0130 N.am      5 SEP2        0.0000 
     55 CA        -58.5900   13.7722  -20.6642 C.3       3 GLC5        0.0000 
     56 CA        -59.1690   15.3230  -22.3390 C.3       9 GLL5        0.0000 
     57 CA        -58.7380   12.3110  -19.2090 C.3       6 GLP5        0.0000 
     58 CA        -60.0027   18.4955  -21.5322 C.3       3 GLC5        0.0000 
     59 CA        -59.5860   16.7950  -22.4780 C.3       9 GLL5        0.0000 
     60 CA        -62.4252   17.2332  -16.0640 C.3       3 GLC5        0.0000 
     61 CA        -61.3160   17.5340  -18.0680 C.3       9 GLL5        0.0000 
     62 CA        -63.1840   16.4920  -14.4760 C.3       6 GLP5        0.0000 
     63 CA        -60.0153   19.1732  -18.1440 C.3       3 GLC5        0.0000 
     64 CA        -58.3640   20.3720  -18.6360 C.3       6 GLP5        0.0000 
     65 CA        -52.2805   16.8592  -17.0407 C.3       3 GLC5        0.0000 
     66 CA        -50.9560   16.1620  -16.1790 C.3       9 GLL5        0.0000 
     67 CA        -52.7105   16.1334  -17.6902 C.3       3 GLC5        0.0000 
     68 CA        -51.6920   15.0050  -16.4800 C.3       9 GLL5        0.0000 
@<TRIPOS>BOND
@<TRIPOS>SUBSTRUCTURE
     1 ALC1       15 GROUP        1 X    ALC  0     ROOT ALC X 1
     2 SEC2        1 GROUP        1 X    SEC  0     **** SEC X 2
     3 GLC5        7 GROUP        1 X    GLC  0     **** GLC X 6
     4 ALP1       17 GROUP        1 Y    ALP  0     ROOT ALP Y 8
     5 SEP2        3 GROUP        1 Y    SEP  0     **** SEP Y 9
     6 GLP5        9 GROUP        1 Y    GLP  0     **** GLP Y 13
     7 ALL1       16 GROUP        1 Z    ALL  0     ROOT ALL Z 15
     8 SEL2        2 GROUP        1 Z    SEL  0     **** SEL Z 16
     9 GLL5        8 GROUP        1 Z    GLL  0     **** GLL Z 20
@<TRIPOS>SET

