#    Name: 4aou_NAP_1_ligand
#    Modification time : Tue Mar 25 05:57:20 2014

@<TRIPOS>MOLECULE
4aou_NAP_1_ligand
   73    77     1     0     0
SMALL
NO_CHARGES


@<TRIPOS>ATOM
      1 PA        -55.9870   16.1850  -20.3010 P.3       1 NAP1520     0.0000 
      2 O1A       -56.3720   15.3140  -19.1470 O.co2     1 NAP1520     0.0000 
      3 O2A       -55.5210   17.5230  -19.8850 O.co2     1 NAP1520     0.0000 
      4 O5B       -57.2670   16.3290  -21.2680 O.3       1 NAP1520     0.0000 
      5 C5B       -57.7150   15.1440  -21.9000 C.3       1 NAP1520     0.0000 
      6 C4B       -59.1690   15.3230  -22.3390 C.3       1 NAP1520     0.0000 
      7 O4B       -60.0930   14.6880  -21.4320 O.3       1 NAP1520     0.0000 
      8 C3B       -59.5860   16.7950  -22.4780 C.3       1 NAP1520     0.0000 
      9 O3B       -59.2600   17.3480  -23.7510 O.3       1 NAP1520     0.0000 
     10 C2B       -61.0750   16.6390  -22.2270 C.3       1 NAP1520     0.0000 
     11 O2B       -61.6170   16.0460  -23.3770 O.3       1 NAP1520     0.0000 
     12 C1B       -61.1850   15.5550  -21.1570 C.3       1 NAP1520     0.0000 
     13 N9A       -61.0070   16.2200  -19.8520 N.pl3     1 NAP1520     0.0000 
     14 C8A       -59.8910   16.1830  -19.0470 C.2       1 NAP1520     0.0000 
     15 N7A       -60.0960   16.9650  -17.9630 N.2       1 NAP1520     0.0000 
     16 C5A       -61.3160   17.5340  -18.0680 C.ar      1 NAP1520     0.0000 
     17 C6A       -62.0170   18.4150  -17.2360 C.ar      1 NAP1520     0.0000 
     18 N6A       -61.4690   18.8680  -16.0770 N.pl3     1 NAP1520     0.0000 
     19 N1A       -63.2880   18.8270  -17.6420 N.ar      1 NAP1520     0.0000 
     20 C2A       -63.8380   18.3770  -18.8170 C.ar      1 NAP1520     0.0000 
     21 N3A       -63.1270   17.5230  -19.6210 N.ar      1 NAP1520     0.0000 
     22 C4A       -61.8960   17.0960  -19.2550 C.ar      1 NAP1520     0.0000 
     23 O3        -54.9330   15.3420  -21.1830 O.3       1 NAP1520     0.0000 
     24 PN        -54.0090   15.7070  -22.4470 P.3       1 NAP1520     0.0000 
     25 O1N       -53.5290   14.3830  -22.8940 O.co2     1 NAP1520     0.0000 
     26 O2N       -54.7440   16.6020  -23.4080 O.co2     1 NAP1520     0.0000 
     27 O5D       -52.7380   16.5270  -21.8480 O.3       1 NAP1520     0.0000 
     28 C5D       -52.6610   17.9350  -22.0060 C.3       1 NAP1520     0.0000 
     29 C4D       -51.4160   18.4350  -21.2850 C.3       1 NAP1520     0.0000 
     30 O4D       -51.5220   18.1110  -19.8910 O.3       1 NAP1520     0.0000 
     31 C3D       -50.1700   17.7070  -21.8290 C.3       1 NAP1520     0.0000 
     32 O3D       -49.1840   18.6060  -22.3040 O.3       1 NAP1520     0.0000 
     33 C2D       -49.6570   16.8620  -20.6580 C.3       1 NAP1520     0.0000 
     34 O2D       -48.2560   16.8920  -20.5320 O.3       1 NAP1520     0.0000 
     35 C1D       -50.3040   17.5110  -19.4400 C.3       1 NAP1520     0.0000 
     36 N1N       -50.5060   16.5150  -18.3910 N.pl3     1 NAP1520     0.0000 
     37 C2N       -50.4380   16.9270  -17.1880 C.ar      1 NAP1520     0.0000 
     38 C3N       -50.9560   16.1620  -16.1790 C.ar      1 NAP1520     0.0000 
     39 C7N       -50.6540   16.5000  -14.7640 C.2       1 NAP1520     0.0000 
     40 O7N       -51.1300   15.5780  -13.8010 O.2       1 NAP1520     0.0000 
     41 N7N       -49.9870   17.6080  -14.5010 N.am      1 NAP1520     0.0000 
     42 C4N       -51.6920   15.0050  -16.4800 C.ar      1 NAP1520     0.0000 
     43 C5N       -51.8640   14.6120  -17.8120 C.ar      1 NAP1520     0.0000 
     44 C6N       -51.3360   15.3770  -18.8190 C.ar      1 NAP1520     0.0000 
     45 P2B       -62.4070   16.7740  -24.5730 P.3       1 NAP1520     0.0000 
     46 O1X       -62.8260   15.5290  -25.2970 O.co2     1 NAP1520     0.0000 
     47 O2X       -63.6350   17.5610  -24.1310 O.co2     1 NAP1520     0.0000 
     48 O3X       -61.4750   17.6740  -25.3930 O.co2     1 NAP1520     0.0000 
     49 H         -57.6764   14.2781  -21.2294 H         1 NAP1520     0.0000 
     50 H         -57.1271   14.9045  -22.7933 H         1 NAP1520     0.0000 
     51 H         -59.2787   14.8704  -23.3381 H         1 NAP1520     0.0000 
     52 H         -59.1713   17.3108  -21.6428 H         1 NAP1520     0.0000 
     53 H         -61.5019   17.4981  -21.9209 H         1 NAP1520     0.0000 
     54 H         -62.1130   15.0930  -21.2428 H         1 NAP1520     0.0000 
     55 H         -59.0933   15.6739  -19.2386 H         1 NAP1520     0.0000 
     56 H         -62.0272   19.5056  -15.5461 H         1 NAP1520     0.0000 
     57 H         -60.5561   18.5236  -15.8578 H         1 NAP1520     0.0000 
     58 H         -64.7858   18.6816  -19.0943 H         1 NAP1520     0.0000 
     59 H         -53.5256   18.4445  -21.5736 H         1 NAP1520     0.0000 
     60 H         -52.5795   18.2264  -23.0560 H         1 NAP1520     0.0000 
     61 H         -51.3004   19.4735  -21.4448 H         1 NAP1520     0.0000 
     62 H         -50.5149   17.0194  -22.5893 H         1 NAP1520     0.0000 
     63 H         -50.0665   15.8822  -20.7547 H         1 NAP1520     0.0000 
     64 H         -49.6122   18.2798  -19.0971 H         1 NAP1520     0.0000 
     65 H         -49.9952   17.8431  -16.9268 H         1 NAP1520     0.0000 
     66 H         -49.7903   17.7848  -13.5366 H         1 NAP1520     0.0000 
     67 H         -49.7389   18.1700  -15.2900 H         1 NAP1520     0.0000 
     68 H         -52.1024   14.4497  -15.7230 H         1 NAP1520     0.0000 
     69 H         -52.3861   13.7513  -18.0206 H         1 NAP1520     0.0000 
     70 H         -51.4743   15.2161  -19.7853 H         1 NAP1520     0.0000 
     71 H         -60.1353   17.4364  -24.2265 H         1 NAP1520     0.0000 
     72 H         -49.1018   19.3008  -21.5895 H         1 NAP1520     0.0000 
     73 H         -47.9349   17.3971  -21.3332 H         1 NAP1520     0.0000 
@<TRIPOS>BOND
     1    2    1 ar   
     2    3    1 ar   
     3    4    1 1    
     4   23    1 1    
     5    5    4 1    
     6    6    5 1    
     7   49    5 1    
     8   50    5 1    
     9    7    6 1    
    10    8    6 1    
    11   51    6 1    
    12   12    7 1    
    13    9    8 1    
    14   10    8 1    
    15   52    8 1    
    16   71    9 1    
    17   11   10 1    
    18   12   10 1    
    19   53   10 1    
    20   45   11 1    
    21   13   12 1    
    22   54   12 1    
    23   14   13 1    
    24   22   13 1    
    25   15   14 2    
    26   55   14 1    
    27   16   15 1    
    28   17   16 ar   
    29   22   16 ar   
    30   18   17 1    
    31   19   17 ar   
    32   56   18 1    
    33   57   18 1    
    34   20   19 ar   
    35   21   20 ar   
    36   58   20 1    
    37   22   21 ar   
    38   24   23 1    
    39   25   24 ar   
    40   26   24 ar   
    41   27   24 1    
    42   28   27 1    
    43   29   28 1    
    44   59   28 1    
    45   60   28 1    
    46   30   29 1    
    47   31   29 1    
    48   61   29 1    
    49   35   30 1    
    50   32   31 1    
    51   33   31 1    
    52   62   31 1    
    53   72   32 1    
    54   34   33 1    
    55   35   33 1    
    56   63   33 1    
    57   73   34 1    
    58   36   35 1    
    59   64   35 1    
    60   37   36 ar   
    61   44   36 ar   
    62   38   37 ar   
    63   65   37 1    
    64   39   38 1    
    65   42   38 ar   
    66   40   39 2    
    67   41   39 am   
    68   66   41 1    
    69   67   41 1    
    70   43   42 ar   
    71   68   42 1    
    72   44   43 ar   
    73   69   43 1    
    74   70   44 1    
    75   46   45 ar   
    76   47   45 ar   
    77   48   45 ar   
@<TRIPOS>SUBSTRUCTURE
     1 NAP1520     1 GROUP   
@<TRIPOS>SET

