#    Name: 2xvq_9DS_1_INTS_M
#    Modification time : Tue Mar 25 06:57:22 2014

@<TRIPOS>MOLECULE
2xvq_9DS_1_INTS_M
   67     0     9     0     0
SMALL
NO_CHARGES


@<TRIPOS>ATOM
      1 CA          7.4565   -0.2445  -18.4430 C.3       3 GLC5        0.0000 
      2 CA          6.4710    1.6900  -18.6130 C.3       9 GLL5        0.0000 
      3 CA          8.4420   -2.1790  -18.2730 C.3       6 GLP5        0.0000 
      4 CA          5.3025   -0.0055  -19.3740 C.3       3 GLC5        0.0000 
      5 CA          4.1340   -1.7010  -20.1350 C.3       6 GLP5        0.0000 
      6 NZ          3.3055    2.8810  -19.9005 N.4       2 LYC4        0.0000 
      7 NZ          4.7220    3.1420  -19.3240 N.4       8 LYL4        0.0000 
      8 NZ          1.8890    2.6200  -20.4770 N.4       5 LYP4        0.0000 
      9 N           3.3055    2.8810  -19.9005 N.am      1 SEC2        0.0000 
     10 N           4.7220    3.1420  -19.3240 N.am      7 SEL2        0.0000 
     11 N           1.8890    2.6200  -20.4770 N.am      4 SEP2        0.0000 
     12 NZ          3.5240    1.9545  -20.5175 N.4       2 LYC4        0.0000 
     13 NZ          5.1590    1.2890  -20.5580 N.4       8 LYL4        0.0000 
     14 N           4.9885   -0.0170  -19.7625 N.am      1 SEC2        0.0000 
     15 N           5.1590    1.2890  -20.5580 N.am      7 SEL2        0.0000 
     16 N           4.8180   -1.3230  -18.9670 N.am      4 SEP2        0.0000 
     17 CA          7.0115    5.4125  -16.7720 C.3       3 GLC5        0.0000 
     18 CA          7.0890    3.8990  -17.5630 C.3       9 GLL5        0.0000 
     19 CA          6.9340    6.9260  -15.9810 C.3       6 GLP5        0.0000 
     20 N           3.5030    2.6755  -15.7445 N.am      1 SEC2        0.0000 
     21 N           4.7770    2.5610  -15.5840 N.am      7 SEL2        0.0000 
     22 N           2.2290    2.7900  -15.9050 N.am      4 SEP2        0.0000 
     23 CA          6.9845    5.2815  -15.0325 C.3       3 GLC5        0.0000 
     24 CA          7.0350    3.6370  -14.0840 C.3       9 GLL5        0.0000 
     25 CA          7.6405    6.0415  -13.4605 C.3       3 GLC5        0.0000 
     26 CA          7.9790    4.1330  -13.1440 C.3       9 GLL5        0.0000 
     27 CA          7.3020    7.9500  -13.7770 C.3       6 GLP5        0.0000 
     28 CA          9.2285    3.4230  -10.8555 C.3       3 GLC5        0.0000 
     29 CA          9.1910    3.5010  -12.9350 C.3       9 GLL5        0.0000 
     30 CA          9.2660    3.3450   -8.7760 C.3       6 GLP5        0.0000 
     31 CA         12.6500    3.0190  -14.8825 C.3       3 GLC5        0.0000 
     32 CA         12.8010    3.0230  -13.1290 C.3       9 GLL5        0.0000 
     33 CA         12.4990    3.0150  -16.6360 C.3       6 GLP5        0.0000 
     34 CA         14.5085    2.4910  -12.7715 C.3       3 GLC5        0.0000 
     35 CA         16.2160    1.9590  -12.4140 C.3       6 GLP5        0.0000 
     36 CA         12.9065    4.2290  -11.3795 C.3       3 GLC5        0.0000 
     37 CA         13.0120    5.4350   -9.6300 C.3       6 GLP5        0.0000 
     38 CA         14.3155    3.2890  -12.1735 C.3       3 GLC5        0.0000 
     39 CA         15.8300    3.5550  -11.2180 C.3       6 GLP5        0.0000 
     40 CA         12.2900   -0.9460  -12.5625 C.3       3 GLC5        0.0000 
     41 CA         12.4850    1.0810  -11.7720 C.3       9 GLL5        0.0000 
     42 CA         12.0950   -2.9730  -13.3530 C.3       6 GLP5        0.0000 
     43 CA         14.3505    1.5200  -12.0930 C.3       3 GLC5        0.0000 
     44 CA         11.1075    1.4915  -10.2885 C.3       3 GLC5        0.0000 
     45 CA          9.7300    1.9020   -8.8050 C.3       6 GLP5        0.0000 
     46 CA         14.1575    2.3180  -11.4950 C.3       3 GLC5        0.0000 
     47 CA         12.1290   -0.4975  -10.9850 C.3       3 GLC5        0.0000 
     48 CA         11.7730   -2.0760  -10.1980 C.3       6 GLP5        0.0000 
     49 CA          6.6673    1.9510  -12.9865 C.3       3 GLC5        0.0000 
     50 CA          7.3040    2.5030  -14.8380 C.3       9 GLL5        0.0000 
     51 CA          6.1650    0.8320  -11.5120 C.3       6 GLP5        0.0000 
     52 CA          6.1235    4.9810  -12.5780 C.3       3 GLC5        0.0000 
     53 CA          4.7400    6.0770  -11.5420 C.3       6 GLP5        0.0000 
     54 CA          7.3750    2.3245  -12.2758 C.3       3 GLC5        0.0000 
     55 CA         11.3350    2.4858  -15.1163 C.3       3 GLC5        0.0000 
     56 CA          9.5360    2.3080  -13.6920 C.3       9 GLL5        0.0000 
     57 CA          8.2788    0.4400  -13.2223 C.3       3 GLC5        0.0000 
     58 CA          7.5110   -1.1550  -12.2550 C.3       6 GLP5        0.0000 
     59 CA          9.6610   -0.6825  -16.9522 C.3       3 GLC5        0.0000 
     60 CA          8.9070    0.5840  -15.4330 C.3       9 GLL5        0.0000 
     61 CA          9.8120   -1.6300  -18.5710 C.3       6 GLP5        0.0000 
     62 CA          8.5105   -0.4450  -13.7943 C.3       3 GLC5        0.0000 
     63 CA         10.1130   -0.0540  -15.2340 C.3       9 GLL5        0.0000 
     64 CA         11.3435   -1.3875  -14.0535 C.3       3 GLC5        0.0000 
     65 CA         11.5455    1.6065  -15.6950 C.3       3 GLC5        0.0000 
     66 CA         11.0710    0.4500  -14.2740 C.3       9 GLL5        0.0000 
     67 CA          9.2248   -0.0638  -13.0712 C.3       3 GLC5        0.0000 
@<TRIPOS>BOND
@<TRIPOS>SUBSTRUCTURE
     1 SEC2        9 GROUP        1 X    SEC  0     ROOT SEC X 2
     2 LYC4        6 GROUP        1 X    LYC  0     **** LYC X 4
     3 GLC5        1 GROUP        1 X    GLC  0     **** GLC X 6
     4 SEP2       11 GROUP        1 Y    SEP  0     ROOT SEP Y 9
     5 LYP4        8 GROUP        1 Y    LYP  0     **** LYP Y 11
     6 GLP5        3 GROUP        1 Y    GLP  0     **** GLP Y 13
     7 SEL2       10 GROUP        1 Z    SEL  0     ROOT SEL Z 16
     8 LYL4        7 GROUP        1 Z    LYL  0     **** LYL Z 18
     9 GLL5        2 GROUP        1 Z    GLL  0     **** GLL Z 20
@<TRIPOS>SET

