#    Name: 2xvq_9DS_1_ligand
#    Modification time : Tue Mar 25 06:57:22 2014

@<TRIPOS>MOLECULE
2xvq_9DS_1_ligand
   39    40     1     0     0
SMALL
NO_CHARGES


@<TRIPOS>ATOM
      1 N           6.4210    2.5740  -17.4710 N.pl3     1 9DS2001     0.0000 
      2 CA          6.4710    1.6900  -18.6130 C.3       1 9DS2001     0.0000 
      3 C           5.3660    2.1200  -19.5520 C.2       1 9DS2001     0.0000 
      4 O           4.7220    3.1420  -19.3240 O.co2     1 9DS2001     0.0000 
      5 OXT         5.1590    1.2890  -20.5580 O.co2     1 9DS2001     0.0000 
      6 C6          7.0890    3.8990  -17.5630 C.3       1 9DS2001     0.0000 
      7 S8          6.0320    1.9890  -15.9980 S.o2      1 9DS2001     0.0000 
      8 O9          4.7770    2.5610  -15.5840 O.2       1 9DS2001     0.0000 
      9 O10         6.1240    0.5650  -16.0580 O.2       1 9DS2001     0.0000 
     10 C11         7.3040    2.5030  -14.8380 C.ar      1 9DS2001     0.0000 
     11 C12         7.0350    3.6370  -14.0840 C.ar      1 9DS2001     0.0000 
     12 C13         7.9790    4.1330  -13.1440 C.ar      1 9DS2001     0.0000 
     13 C14         9.1910    3.5010  -12.9350 C.ar      1 9DS2001     0.0000 
     14 C15         9.5360    2.3080  -13.6920 C.ar      1 9DS2001     0.0000 
     15 C16         8.5570    1.7620  -14.6870 C.ar      1 9DS2001     0.0000 
     16 C17         8.9070    0.5840  -15.4330 C.ar      1 9DS2001     0.0000 
     17 C18        10.1130   -0.0540  -15.2340 C.ar      1 9DS2001     0.0000 
     18 C19        11.0710    0.4500  -14.2740 C.ar      1 9DS2001     0.0000 
     19 C20        10.8060    1.6050  -13.5010 C.ar      1 9DS2001     0.0000 
     20 N21        11.7650    2.1430  -12.5190 N.3       1 9DS2001     0.0000 
     21 C23        12.8010    3.0230  -13.1290 C.3       1 9DS2001     0.0000 
     22 C22        12.4850    1.0810  -11.7720 C.3       1 9DS2001     0.0000 
     23 H           6.2991    0.6594  -18.3237 H         1 9DS2001     0.0000 
     24 H           7.4188    1.7687  -19.1334 H         1 9DS2001     0.0000 
     25 H           6.1408    4.1376  -14.1968 H         1 9DS2001     0.0000 
     26 H           7.7380    4.9878  -12.6121 H         1 9DS2001     0.0000 
     27 H           9.8680    3.8485  -12.2537 H         1 9DS2001     0.0000 
     28 H           8.2274    0.2302  -16.1227 H         1 9DS2001     0.0000 
     29 H          10.3626   -0.9010  -15.7600 H         1 9DS2001     0.0000 
     30 H          11.9590   -0.0514  -14.1612 H         1 9DS2001     0.0000 
     31 H           8.0689    3.8093  -17.7410 H         1 9DS2001     0.0000 
     32 H           6.7072    4.4571  -18.2997 H         1 9DS2001     0.0000 
     33 H           6.9915    4.4236  -16.7173 H         1 9DS2001     0.0000 
     34 H          13.4415    3.3719  -12.4449 H         1 9DS2001     0.0000 
     35 H          13.3418    2.5385  -13.8166 H         1 9DS2001     0.0000 
     36 H          12.3945    3.8166  -13.5816 H         1 9DS2001     0.0000 
     37 H          13.0110    0.4889  -12.3826 H         1 9DS2001     0.0000 
     38 H          13.1284    1.4642  -11.1093 H         1 9DS2001     0.0000 
     39 H          11.8560    0.4929  -11.2636 H         1 9DS2001     0.0000 
@<TRIPOS>BOND
     1    2    1 1    
     2    6    1 1    
     3    7    1 1    
     4    3    2 1    
     5   23    2 1    
     6   24    2 1    
     7    4    3 ar   
     8    5    3 ar   
     9   31    6 1    
    10   32    6 1    
    11   33    6 1    
    12    8    7 2    
    13    9    7 2    
    14   10    7 1    
    15   11   10 ar   
    16   15   10 ar   
    17   12   11 ar   
    18   25   11 1    
    19   13   12 ar   
    20   26   12 1    
    21   14   13 ar   
    22   27   13 1    
    23   15   14 ar   
    24   19   14 ar   
    25   16   15 ar   
    26   17   16 ar   
    27   28   16 1    
    28   18   17 ar   
    29   29   17 1    
    30   19   18 ar   
    31   30   18 1    
    32   20   19 1    
    33   21   20 1    
    34   22   20 1    
    35   34   21 1    
    36   35   21 1    
    37   36   21 1    
    38   37   22 1    
    39   38   22 1    
    40   39   22 1    
@<TRIPOS>SUBSTRUCTURE
     1 9DS2001     1 GROUP   
@<TRIPOS>SET

