#    Name: 2ptm_CMP_1_INTS_M
#    Modification time : Mon Mar 24 19:21:30 2014

@<TRIPOS>MOLECULE
2ptm_CMP_1_INTS_M
   64     0    12     0     0
SMALL
NO_CHARGES


@<TRIPOS>ATOM
      1 N          25.3055   36.9825   23.3935 N.am      2 SEC2        0.0000 
      2 N          24.4160   35.9980   23.0230 N.am     10 SEL2        0.0000 
      3 N          26.1950   37.9670   23.7640 N.am      6 SEP2        0.0000 
      4 NZ         21.4640   36.3700   20.6095 N.4       3 LYC4        0.0000 
      5 NZ         22.2360   35.7130   21.6720 N.4      11 LYL4        0.0000 
      6 NZ         20.7930   38.1700   18.8820 N.4       7 LYP4        0.0000 
      7 N          21.4975   35.6100   22.9745 N.am      2 SEC2        0.0000 
      8 N          22.2360   35.7130   21.6720 N.am     10 SEL2        0.0000 
      9 N          20.7590   35.5070   24.2770 N.am      6 SEP2        0.0000 
     10 N          21.4640   36.3700   20.6095 N.am      2 SEC2        0.0000 
     11 N          20.6920   37.0270   19.5470 N.am      6 SEP2        0.0000 
     12 CA         25.4695   37.0565   18.9830 C.3       4 GLC5        0.0000 
     13 CA         25.8020   35.4320   20.1380 C.3      12 GLL5        0.0000 
     14 CA         25.1370   38.6810   17.8280 C.3       8 GLP5        0.0000 
     15 CA         27.8120   35.6080   20.7045 C.3       4 GLC5        0.0000 
     16 CA         29.8220   35.7840   21.2710 C.3       8 GLP5        0.0000 
     17 CA         25.0390   32.5295   18.4485 C.3       4 GLC5        0.0000 
     18 CA         25.7170   33.9170   20.0120 C.3      12 GLL5        0.0000 
     19 CA         24.3610   31.1420   16.8850 C.3       8 GLP5        0.0000 
     20 CA         26.1775   34.2835   23.0330 C.3       4 GLC5        0.0000 
     21 CA         25.1620   33.3920   21.3140 C.3      12 GLL5        0.0000 
     22 CA         27.1930   35.1750   24.7520 C.3       8 GLP5        0.0000 
     23 N          22.4865   33.3690   22.5560 N.am      2 SEC2        0.0000 
     24 N          23.9530   33.8600   21.8060 N.am     10 SEL2        0.0000 
     25 N          21.0200   32.8780   23.3060 N.am      6 SEP2        0.0000 
     26 CA         25.6130   29.8320   21.9540 C.3       4 GLC5        0.0000 
     27 CA         25.3190   31.8720   21.2520 C.3      12 GLL5        0.0000 
     28 CA         25.9070   27.7920   22.6560 C.3       8 GLP5        0.0000 
     29 N          23.4045   32.0335   19.5130 N.am      2 SEC2        0.0000 
     30 N          24.3720   31.3500   20.3310 N.am     10 SEL2        0.0000 
     31 N          22.4370   32.7170   18.6950 N.am      6 SEP2        0.0000 
     32 O          23.1530   30.7390   20.4985 O.2       1 ALC1        0.0000 
     33 O          24.3720   31.3500   20.3310 O.2       9 ALL1        0.0000 
     34 O          21.9340   30.1280   20.6660 O.2       5 ALP1        0.0000 
     35 O          23.5180   30.2860   21.4180 O.2       1 ALC1        0.0000 
     36 O          22.6640   29.2220   22.5050 O.2       5 ALP1        0.0000 
     37 CA         27.8875   31.8045   18.7595 C.3       4 GLC5        0.0000 
     38 CA         26.6760   31.8770   20.4680 C.3      12 GLL5        0.0000 
     39 CA         29.0990   31.7320   17.0510 C.3       8 GLP5        0.0000 
     40 CA         25.5185   31.5095   18.6765 C.3       4 GLC5        0.0000 
     41 CA         31.2115   28.5955   20.4935 C.3       4 GLC5        0.0000 
     42 CA         30.3120   29.1840   22.3050 C.3      12 GLL5        0.0000 
     43 CA         32.1110   28.0070   18.6820 C.3       8 GLP5        0.0000 
     44 CA         29.6605   29.6170   19.1190 C.3       4 GLC5        0.0000 
     45 CA         29.0280   28.2090   20.6050 C.3      12 GLL5        0.0000 
     46 CA         30.2930   31.0250   17.6330 C.3       8 GLP5        0.0000 
     47 CA         30.5695   28.1080   19.6435 C.3       4 GLC5        0.0000 
     48 CA         28.8315   27.2980   18.6870 C.3       4 GLC5        0.0000 
     49 CA         28.6350   26.3870   16.7690 C.3       8 GLP5        0.0000 
     50 CA         28.0290   27.7750   22.1130 C.3       4 GLC5        0.0000 
     51 CA         27.0300   27.3410   23.6210 C.3       8 GLP5        0.0000 
     52 CA         27.1780   29.0385   21.9285 C.3       4 GLC5        0.0000 
     53 CA         28.4490   30.2850   21.2010 C.3      12 GLL5        0.0000 
     54 CA         26.4573   34.8063   18.2635 C.3       4 GLC5        0.0000 
     55 CA         27.1550   34.9380   16.4520 C.3       8 GLP5        0.0000 
     56 CA         23.5583   33.7888   19.8205 C.3       4 GLC5        0.0000 
     57 CA         21.6770   33.9230   18.9780 C.3       8 GLP5        0.0000 
     58 CA         24.4587   32.4160   22.9250 C.3       4 GLC5        0.0000 
     59 CA         23.6770   32.2000   24.5670 C.3       8 GLP5        0.0000 
     60 CA         28.6472   29.0375   23.5215 C.3       4 GLC5        0.0000 
     61 CA         29.4930   30.3460   22.2090 C.3      12 GLL5        0.0000 
     62 CA         27.3920   28.3100   24.7860 C.3       8 GLP5        0.0000 
     63 CA         29.9999   31.3230   20.6335 C.3       4 GLC5        0.0000 
     64 CA         30.8240   32.6210   19.5380 C.3       8 GLP5        0.0000 
@<TRIPOS>BOND
@<TRIPOS>SUBSTRUCTURE
     1 ALC1       32 GROUP        1 X    ALC  0     ROOT ALC X 1
     2 SEC2        1 GROUP        1 X    SEC  0     **** SEC X 2
     3 LYC4        4 GROUP        1 X    LYC  0     **** LYC X 4
     4 GLC5       12 GROUP        1 X    GLC  0     **** GLC X 6
     5 ALP1       34 GROUP        1 Y    ALP  0     ROOT ALP Y 8
     6 SEP2        3 GROUP        1 Y    SEP  0     **** SEP Y 9
     7 LYP4        6 GROUP        1 Y    LYP  0     **** LYP Y 11
     8 GLP5       14 GROUP        1 Y    GLP  0     **** GLP Y 13
     9 ALL1       33 GROUP        1 Z    ALL  0     ROOT ALL Z 15
    10 SEL2        2 GROUP        1 Z    SEL  0     **** SEL Z 16
    11 LYL4        5 GROUP        1 Z    LYL  0     **** LYL Z 18
    12 GLL5       13 GROUP        1 Z    GLL  0     **** GLL Z 20
@<TRIPOS>SET

