#    Name: 2ptm_CMP_1_ligand
#    Modification time : Mon Mar 24 19:21:30 2014

@<TRIPOS>MOLECULE
2ptm_CMP_1_ligand
   33    36     1     0     0
SMALL
NO_CHARGES


@<TRIPOS>ATOM
      1 P          23.6640   35.4540   21.7680 P.3       1 CMP401      0.0000 
      2 O1P        24.4160   35.9980   23.0230 O.co2     1 CMP401      0.0000 
      3 O2P        22.2360   35.7130   21.6720 O.co2     1 CMP401      0.0000 
      4 O5'        24.5990   36.0120   20.5840 O.3       1 CMP401      0.0000 
      5 C5'        25.8020   35.4320   20.1380 C.3       1 CMP401      0.0000 
      6 C4'        25.7170   33.9170   20.0120 C.3       1 CMP401      0.0000 
      7 O4'        26.9570   33.2220   19.9410 O.3       1 CMP401      0.0000 
      8 C3'        25.1620   33.3920   21.3140 C.3       1 CMP401      0.0000 
      9 O3'        23.9530   33.8600   21.8060 O.3       1 CMP401      0.0000 
     10 C2'        25.3190   31.8720   21.2520 C.3       1 CMP401      0.0000 
     11 O2'        24.3720   31.3500   20.3310 O.3       1 CMP401      0.0000 
     12 C1'        26.6760   31.8770   20.4680 C.3       1 CMP401      0.0000 
     13 N9         27.7770   31.4990   21.3060 N.pl3     1 CMP401      0.0000 
     14 C8         28.4220   32.2400   22.3280 C.2       1 CMP401      0.0000 
     15 N7         29.4570   31.5780   22.8720 N.2       1 CMP401      0.0000 
     16 C5         29.4930   30.3460   22.2090 C.ar      1 CMP401      0.0000 
     17 C6         30.3120   29.1840   22.3050 C.ar      1 CMP401      0.0000 
     18 N6         31.3530   29.1340   23.1970 N.pl3     1 CMP401      0.0000 
     19 N1         30.0470   28.1190   21.4890 N.ar      1 CMP401      0.0000 
     20 C2         29.0280   28.2090   20.6050 C.ar      1 CMP401      0.0000 
     21 N3         28.1750   29.2340   20.3910 N.ar      1 CMP401      0.0000 
     22 C4         28.4490   30.2850   21.2010 C.ar      1 CMP401      0.0000 
     23 H          26.6481   35.6582   20.8236 H         1 CMP401      0.0000 
     24 H          26.1076   35.8282   19.1446 H         1 CMP401      0.0000 
     25 H          25.0466   33.6371   19.2456 H         1 CMP401      0.0000 
     26 H          26.0099   33.6750   22.0834 H         1 CMP401      0.0000 
     27 H          25.4359   31.4664   22.1290 H         1 CMP401      0.0000 
     28 H          26.5702   31.1870   19.6401 H         1 CMP401      0.0000 
     29 H          28.1156   33.1376   22.5824 H         1 CMP401      0.0000 
     30 H          31.4818   29.9442   23.7688 H         1 CMP401      0.0000 
     31 H          31.8921   28.2917   23.1974 H         1 CMP401      0.0000 
     32 H          28.8717   27.3196   19.9691 H         1 CMP401      0.0000 
     33 H          23.6104   31.0317   20.8955 H         1 CMP401      0.0000 
@<TRIPOS>BOND
     1    2    1 ar   
     2    3    1 ar   
     3    4    1 1    
     4    9    1 1    
     5    5    4 1    
     6    6    5 1    
     7   23    5 1    
     8   24    5 1    
     9    7    6 1    
    10    8    6 1    
    11   25    6 1    
    12   12    7 1    
    13    9    8 1    
    14   10    8 1    
    15   26    8 1    
    16   11   10 1    
    17   12   10 1    
    18   27   10 1    
    19   33   11 1    
    20   13   12 1    
    21   28   12 1    
    22   14   13 1    
    23   22   13 1    
    24   15   14 2    
    25   29   14 1    
    26   16   15 1    
    27   17   16 ar   
    28   22   16 ar   
    29   18   17 1    
    30   19   17 ar   
    31   30   18 1    
    32   31   18 1    
    33   20   19 ar   
    34   21   20 ar   
    35   32   20 1    
    36   22   21 ar   
@<TRIPOS>SUBSTRUCTURE
     1 CMP401      1 GROUP   
@<TRIPOS>SET

