#    Name: 1JE1_2_CAVITY_N1_ALL.mol2
#    Modification time : Tue Mar 11 10:24:16 2014

@<TRIPOS>MOLECULE
1JE1_2_CAVITY_N1_ALL.mol2
  111     0     7     0     0
SMALL
NO_CHARGES


@<TRIPOS>ATOM
      1 CZ         83.6671   40.0693  174.6812 C.ar      5 PHE5        0.0000 
      2 CZ         82.7459   39.5953  175.7660 C.ar      5 PHE5        0.0000 
      3 CZ         79.0608   37.6993  180.1048 C.ar      5 PHE5        0.0000 
      4 DU         78.1395   37.2253  181.1895 H         7 CUB7        0.0000 
      5 OG         77.2183   36.7513  182.2742 O.2       1 SER1        0.0000 
      6 OG         76.2970   36.2773  183.3589 O.2       1 SER1        0.0000 
      7 N          82.0778   38.6688  174.7937 N.2       2 ALA2        0.0000 
      8 CZ         81.1565   38.1948  175.8784 C.ar      5 PHE5        0.0000 
      9 CZ         78.3927   36.7728  179.1326 C.ar      5 PHE5        0.0000 
     10 CZ         77.4715   36.2988  180.2173 C.ar      5 PHE5        0.0000 
     11 OG         76.5502   35.8248  181.3020 O.2       1 SER1        0.0000 
     12 NZ         79.5672   36.7943  175.9909 N.2       4 LYS4        0.0000 
     13 CZ         78.6460   36.3203  177.0756 C.ar      5 PHE5        0.0000 
     14 CZ         77.7247   35.8463  178.1603 C.ar      5 PHE5        0.0000 
     15 DU         76.8034   35.3723  179.2450 H         7 CUB7        0.0000 
     16 OG         75.8822   34.8983  180.3297 O.2       1 SER1        0.0000 
     17 NZ         77.9779   35.3937  176.1033 N.2       4 LYS4        0.0000 
     18 N          77.0567   34.9198  177.1880 N.2       2 ALA2        0.0000 
     19 O          76.1354   34.4458  178.2728 O.2       2 ALA2        0.0000 
     20 CA         75.2141   33.9718  179.3575 C.3       6 GLY6        0.0000 
     21 CZ         80.6564   32.6056  179.2341 C.ar      5 PHE5        0.0000 
     22 CZ         79.7351   32.1316  180.3188 C.ar      5 PHE5        0.0000 
     23 O          78.8139   31.6576  181.4036 O.2       2 ALA2        0.0000 
     24 O          77.8926   31.1836  182.4883 O.2       2 ALA2        0.0000 
     25 CA         79.0671   31.2051  179.3466 C.3       6 GLY6        0.0000 
     26 DU         78.1458   30.7311  180.4313 H         7 CUB7        0.0000 
     27 OG         77.2246   30.2571  181.5160 O.2       1 SER1        0.0000 
     28 OG         76.3033   29.7831  182.6007 O.2       1 SER1        0.0000 
     29 CA         78.3990   30.2786  178.3743 C.3       6 GLY6        0.0000 
     30 O          77.4778   29.8046  179.4591 O.2       2 ALA2        0.0000 
     31 O          76.5565   29.3306  180.5438 O.2       2 ALA2        0.0000 
     32 OD1        80.4591   31.5039  182.7338 O.3       3 ASP3        0.0000 
     33 CA         80.7124   31.0514  180.6768 C.3       6 GLY6        0.0000 
     34 O          79.7911   30.5774  181.7615 O.2       2 ALA2        0.0000 
     35 O          78.8698   30.1034  182.8462 O.2       2 ALA2        0.0000 
     36 O          77.9486   29.6294  183.9309 O.2       2 ALA2        0.0000 
     37 CA         80.0443   30.1248  179.7045 C.3       6 GLY6        0.0000 
     38 NZ         79.1230   29.6508  180.7893 N.2       4 LYS4        0.0000 
     39 NZ         78.2018   29.1769  181.8740 N.2       4 LYS4        0.0000 
     40 NZ         77.2805   28.7029  182.9587 N.2       4 LYS4        0.0000 
     41 NZ         78.4550   28.7243  179.8170 N.2       4 LYS4        0.0000 
     42 O          79.8471   29.0231  183.2042 O.2       2 ALA2        0.0000 
     43 NZ         80.1003   28.5706  181.1472 N.2       4 LYS4        0.0000 
     44 NZ         79.1790   28.0966  182.2319 N.2       4 LYS4        0.0000 
     45 NZ         79.5113   38.3485  174.5482 N.2       4 LYS4        0.0000 
     46 NZ         78.5900   37.8745  175.6329 N.2       4 LYS4        0.0000 
     47 CA         77.6687   37.4005  176.7176 C.3       6 GLY6        0.0000 
     48 CA         76.7475   36.9265  177.8024 C.3       6 GLY6        0.0000 
     49 O          75.8262   36.4525  178.8871 O.2       2 ALA2        0.0000 
     50 CA         77.0007   36.4740  175.7454 C.3       6 GLY6        0.0000 
     51 CA         76.0794   36.0000  176.8301 C.3       6 GLY6        0.0000 
     52 CA         79.4756   39.0783  183.1340 C.3       6 GLY6        0.0000 
     53 CA         79.7288   38.6258  181.0771 C.3       6 GLY6        0.0000 
     54 CA         78.8076   38.1518  182.1618 C.3       6 GLY6        0.0000 
     55 DU         77.8863   37.6778  183.2465 H         7 CUB7        0.0000 
     56 DU         80.8474   40.2015  176.4927 H         7 CUB7        0.0000 
     57 CZ         79.9261   39.7275  177.5774 C.ar      5 PHE5        0.0000 
     58 CZ         79.0048   39.2535  178.6621 C.ar      5 PHE5        0.0000 
     59 NZ         78.0836   38.7795  179.7469 N.2       4 LYS4        0.0000 
     60 CA         77.1623   38.3055  180.8316 C.3       6 GLY6        0.0000 
     61 OG         76.2410   37.8315  181.9163 O.2       1 SER1        0.0000 
     62 N          82.0218   40.2230  173.3510 N.2       2 ALA2        0.0000 
     63 N          81.1006   39.7490  174.4358 N.2       2 ALA2        0.0000 
     64 DU         80.1793   39.2750  175.5205 H         7 CUB7        0.0000 
     65 CZ         79.2580   38.8010  176.6052 C.ar      5 PHE5        0.0000 
     66 NZ         78.3368   38.3270  177.6899 N.2       4 LYS4        0.0000 
     67 NZ         77.4155   37.8530  178.7746 N.2       4 LYS4        0.0000 
     68 CA         76.4943   37.3790  179.8593 C.3       6 GLY6        0.0000 
     69 N          80.4325   38.8225  173.4635 N.2       2 ALA2        0.0000 
     70 CA         80.7620   35.9914  182.8777 C.3       6 GLY6        0.0000 
     71 N          79.8408   35.5174  183.9624 N.2       2 ALA2        0.0000 
     72 O          78.9195   35.0434  185.0471 O.2       2 ALA2        0.0000 
     73 N          80.0940   35.0649  181.9054 N.2       2 ALA2        0.0000 
     74 O          79.1727   34.5909  182.9901 O.2       2 ALA2        0.0000 
     75 CZ         79.4259   34.1383  180.9332 C.ar      5 PHE5        0.0000 
     76 O          78.5047   33.6643  182.0179 O.2       2 ALA2        0.0000 
     77 CZ         78.7579   33.2118  179.9609 C.ar      5 PHE5        0.0000 
     78 OG         77.8366   32.7378  181.0456 O.2       1 SER1        0.0000 
     79 CZ         79.0111   32.7593  177.9039 C.ar      5 PHE5        0.0000 
     80 DU         78.0898   32.2853  178.9887 H         7 CUB7        0.0000 
     81 N          77.1686   31.8113  180.0734 N.2       2 ALA2        0.0000 
     82 CA         78.3431   31.8328  176.9317 C.3       6 GLY6        0.0000 
     83 CA         77.4218   31.3588  178.0164 C.3       6 GLY6        0.0000 
     84 N          76.5005   30.8848  179.1011 N.2       2 ALA2        0.0000 
     85 O          80.1500   33.5106  183.3481 O.2       2 ALA2        0.0000 
     86 N          80.4032   33.0581  181.2911 N.2       2 ALA2        0.0000 
     87 O          79.4819   32.5841  182.3758 O.2       2 ALA2        0.0000 
     88 CA         78.2248   41.4355  174.8046 C.3       6 GLY6        0.0000 
     89 N          80.1233   40.8292  174.0778 N.2       2 ALA2        0.0000 
     90 CA         79.2021   40.3552  175.1625 C.3       6 GLY6        0.0000 
     91 CA         78.2808   39.8812  176.2472 C.3       6 GLY6        0.0000 
     92 CA         78.5340   39.4287  174.1903 C.3       6 GLY6        0.0000 
     93 CA         79.5316   37.5241  184.5767 C.3       6 GLY6        0.0000 
     94 CA         79.7848   37.0716  182.5197 C.3       6 GLY6        0.0000 
     95 CA         78.8635   36.5976  183.6044 C.3       6 GLY6        0.0000 
     96 DU         77.9423   36.1236  184.6891 H         7 CUB7        0.0000 
     97 CZ         79.1168   36.1451  181.5475 C.ar      5 PHE5        0.0000 
     98 DU         78.1955   35.6711  182.6322 H         7 CUB7        0.0000 
     99 OG         77.2742   35.1971  183.7169 O.2       1 SER1        0.0000 
    100 CZ         78.4487   35.2186  180.5752 C.ar      5 PHE5        0.0000 
    101 OG         77.5275   34.7446  181.6599 O.2       1 SER1        0.0000 
    102 CZ         77.7807   34.2920  179.6030 C.ar      5 PHE5        0.0000 
    103 OG         76.8594   33.8181  180.6877 O.2       1 SER1        0.0000 
    104 CZ         78.9551   34.3135  176.4613 C.ar      5 PHE5        0.0000 
    105 CZ         78.0339   33.8395  177.5460 C.ar      5 PHE5        0.0000 
    106 N          77.1126   33.3655  178.6307 N.2       2 ALA2        0.0000 
    107 N          76.1914   32.8915  179.7154 N.2       2 ALA2        0.0000 
    108 NZ         78.2871   33.3870  175.4890 N.2       4 LYS4        0.0000 
    109 N          77.3658   32.9130  176.5737 N.2       2 ALA2        0.0000 
    110 N          76.4446   32.4390  177.6585 N.2       2 ALA2        0.0000 
    111 N          75.5233   31.9650  178.7432 N.2       2 ALA2        0.0000 
@<TRIPOS>BOND
@<TRIPOS>SUBSTRUCTURE
     1 SER1        5 GROUP   
     2 ALA2        7 GROUP   
     3 ASP3       32 GROUP   
     4 LYS4       12 GROUP   
     5 PHE5        1 GROUP   
     6 GLY6       20 GROUP   
     7 CUB7        4 GROUP   
@<TRIPOS>SET

