#    Name: 1je1_GMP_2_INTS_M
#    Modification time : Tue Mar 25 08:48:42 2014

@<TRIPOS>MOLECULE
1je1_GMP_2_INTS_M
   48     0     9     0     0
SMALL
NO_CHARGES


@<TRIPOS>ATOM
      1 N          81.5115   33.3780  181.9225 N.am      2 SEC2        0.0000 
      2 N          80.2580   33.1670  181.4490 N.am      8 SEL2        0.0000 
      3 N          82.7650   33.5890  182.3960 N.am      5 SEP2        0.0000 
      4 CA         81.9310   30.8235  181.9330 C.3       3 GLC5        0.0000 
      5 CA         80.4540   31.9510  180.7680 C.3       9 GLL5        0.0000 
      6 CA         83.4080   29.6960  183.0980 C.3       6 GLP5        0.0000 
      7 CA         80.9750   33.1970  179.2220 C.3       3 GLC5        0.0000 
      8 CA         81.4960   34.4430  177.6760 C.3       6 GLP5        0.0000 
      9 CA         80.9485   30.9815  179.0485 C.3       3 GLC5        0.0000 
     10 CA         81.4430   30.0120  177.3290 C.3       6 GLP5        0.0000 
     11 CA         81.9180   32.6410  182.1815 C.3       3 GLC5        0.0000 
     12 CA         83.3820   33.3310  183.5950 C.3       6 GLP5        0.0000 
     13 CA         82.5450   31.6995  180.0345 C.3       3 GLC5        0.0000 
     14 CA         84.6360   31.4480  179.3010 C.3       6 GLP5        0.0000 
     15 CA         81.0825   29.6360  182.1235 C.3       3 GLC5        0.0000 
     16 CA         79.4540   30.9190  181.2930 C.3       9 GLL5        0.0000 
     17 CA         82.7110   28.3530  182.9540 C.3       6 GLP5        0.0000 
     18 CA         81.1610   28.9795  180.4160 C.3       3 GLC5        0.0000 
     19 CA         79.3140   29.7030  180.3700 C.3       9 GLL5        0.0000 
     20 CA         83.0080   28.2560  180.4620 C.3       6 GLP5        0.0000 
     21 CA         80.3785   29.8575  178.8495 C.3       3 GLC5        0.0000 
     22 O          78.2535   27.3960  180.5335 O.2       1 ALC1        0.0000 
     23 O          79.1560   28.5500  181.1970 O.2       7 ALL1        0.0000 
     24 O          77.3510   26.2420  179.8700 O.2       4 ALP1        0.0000 
     25 O          79.3495   27.4070  180.4945 O.2       1 ALC1        0.0000 
     26 O          79.5430   26.2640  179.7920 O.2       4 ALP1        0.0000 
     27 CA         76.8540   30.0675  177.8120 C.3       3 GLC5        0.0000 
     28 CA         78.0300   30.0060  179.5590 C.3       9 GLL5        0.0000 
     29 CA         75.6780   30.1290  176.0650 C.3       6 GLP5        0.0000 
     30 CA         79.0045   29.7005  177.9910 C.3       3 GLC5        0.0000 
     31 CA         79.9790   29.3950  176.4230 C.3       6 GLP5        0.0000 
     32 N          77.2085   28.5780  177.9445 N.am      2 SEC2        0.0000 
     33 N          77.1630   28.8850  179.4320 N.am      8 SEL2        0.0000 
     34 N          77.2540   28.2710  176.4570 N.am      5 SEP2        0.0000 
     35 O          77.2570   27.5635  179.6510 O.2       1 ALC1        0.0000 
     36 O          77.1630   28.8850  179.4320 O.2       7 ALL1        0.0000 
     37 CA         74.8225   33.7900  178.5635 C.3       3 GLC5        0.0000 
     38 CA         76.9130   34.1470  178.1620 C.3       9 GLL5        0.0000 
     39 CA         72.7320   33.4330  178.9650 C.3       6 GLP5        0.0000 
     40 O          78.8425   34.8275  174.8800 O.2       1 ALC1        0.0000 
     41 O          78.1520   34.2000  176.0290 O.2       7 ALL1        0.0000 
     42 O          79.5330   35.4550  173.7310 O.2       4 ALP1        0.0000 
     43 O          79.5320   33.9230  174.5335 O.2       1 ALC1        0.0000 
     44 O          79.5310   32.3910  175.3360 O.2       7 ALL1        0.0000 
     45 O          79.7785   32.9500  174.0890 O.2       1 ALC1        0.0000 
     46 O          80.0260   33.5090  172.8420 O.2       4 ALP1        0.0000 
     47 CA         76.5900   31.4975  177.1970 C.3       3 GLC5        0.0000 
     48 CA         77.5020   32.8660  178.3290 C.3       9 GLL5        0.0000 
@<TRIPOS>BOND
@<TRIPOS>SUBSTRUCTURE
     1 ALC1       22 GROUP        1 X    ALC  0     ROOT ALC X 1
     2 SEC2        1 GROUP        1 X    SEC  0     **** SEC X 2
     3 GLC5        4 GROUP        1 X    GLC  0     **** GLC X 6
     4 ALP1       24 GROUP        1 Y    ALP  0     ROOT ALP Y 8
     5 SEP2        3 GROUP        1 Y    SEP  0     **** SEP Y 9
     6 GLP5        6 GROUP        1 Y    GLP  0     **** GLP Y 13
     7 ALL1       23 GROUP        1 Z    ALL  0     ROOT ALL Z 15
     8 SEL2        2 GROUP        1 Z    SEL  0     **** SEL Z 16
     9 GLL5        5 GROUP        1 Z    GLL  0     **** GLL Z 20
@<TRIPOS>SET

