#    Name: 1je1_GMP_2_ligand
#    Modification time : Tue Mar 25 08:48:42 2014

@<TRIPOS>MOLECULE
1je1_GMP_2_ligand
   33    35     1     0     0
SMALL
NO_CHARGES


@<TRIPOS>ATOM
      1 O5'        80.2580   33.1670  181.4490 O.3       1 GMP2260     0.0000 
      2 C5'        80.4540   31.9510  180.7680 C.3       1 GMP2260     0.0000 
      3 C4'        79.4540   30.9190  181.2930 C.3       1 GMP2260     0.0000 
      4 O4'        78.1350   31.5100  181.4110 O.3       1 GMP2260     0.0000 
      5 C3'        79.3140   29.7030  180.3700 C.3       1 GMP2260     0.0000 
      6 O3'        79.1560   28.5500  181.1970 O.3       1 GMP2260     0.0000 
      7 C2'        78.0300   30.0060  179.5590 C.3       1 GMP2260     0.0000 
      8 O2'        77.1630   28.8850  179.4320 O.3       1 GMP2260     0.0000 
      9 C1'        77.2750   31.1180  180.3060 C.3       1 GMP2260     0.0000 
     10 N9         77.0370   32.3670  179.5650 N.pl3     1 GMP2260     0.0000 
     11 C8         76.2040   33.3910  180.0360 C.2       1 GMP2260     0.0000 
     12 N7         76.1020   34.4570  179.2420 N.2       1 GMP2260     0.0000 
     13 C5         76.9130   34.1470  178.1620 C.2       1 GMP2260     0.0000 
     14 C6         77.2740   34.8470  176.9240 C.2       1 GMP2260     0.0000 
     15 O6         76.8260   36.0590  176.5890 O.2       1 GMP2260     0.0000 
     16 N1         78.1520   34.2000  176.0290 N.am      1 GMP2260     0.0000 
     17 C2         78.6450   32.9560  176.3220 C.2       1 GMP2260     0.0000 
     18 N2         79.5310   32.3910  175.3360 N.pl3     1 GMP2260     0.0000 
     19 N3         78.3720   32.2160  177.4540 N.2       1 GMP2260     0.0000 
     20 C4         77.5020   32.8660  178.3290 C.2       1 GMP2260     0.0000 
     21 H          81.4589   31.5429  180.9231 H         1 GMP2260     0.0000 
     22 H          80.2915   32.0461  179.6887 H         1 GMP2260     0.0000 
     23 H          79.7862   30.5672  182.2592 H         1 GMP2260     0.0000 
     24 H          80.1312   29.6739  179.7263 H         1 GMP2260     0.0000 
     25 H          78.3250   30.4097  178.6068 H         1 GMP2260     0.0000 
     26 H          76.3648   30.7240  180.7017 H         1 GMP2260     0.0000 
     27 H          75.7303   33.2954  180.9177 H         1 GMP2260     0.0000 
     28 H          78.4127   34.6808  175.1554 H         1 GMP2260     0.0000 
     29 H          79.9015   31.4859  175.5445 H         1 GMP2260     0.0000 
     30 H          79.7016   32.9511  174.5253 H         1 GMP2260     0.0000 
     31 H          79.2958   33.1588  181.7213 H         1 GMP2260     0.0000 
     32 H          79.3181   27.7721  180.5899 H         1 GMP2260     0.0000 
     33 H          77.7018   28.1041  179.7481 H         1 GMP2260     0.0000 
@<TRIPOS>BOND
     1    2    1 1    
     2   31    1 1    
     3    3    2 1    
     4   21    2 1    
     5   22    2 1    
     6    4    3 1    
     7    5    3 1    
     8   23    3 1    
     9    9    4 1    
    10    6    5 1    
    11    7    5 1    
    12   24    5 1    
    13   32    6 1    
    14    8    7 1    
    15    9    7 1    
    16   25    7 1    
    17   33    8 1    
    18   10    9 1    
    19   26    9 1    
    20   11   10 1    
    21   20   10 1    
    22   12   11 2    
    23   27   11 1    
    24   13   12 1    
    25   14   13 1    
    26   20   13 2    
    27   15   14 2    
    28   16   14 am   
    29   17   16 1    
    30   28   16 1    
    31   18   17 1    
    32   19   17 2    
    33   29   18 1    
    34   30   18 1    
    35   20   19 1    
@<TRIPOS>SUBSTRUCTURE
     1 GMP2260     1 GROUP   
@<TRIPOS>SET

