#    Name: 3uic_09T_1_INTS_M
#    Modification time : Mon Mar 24 22:22:55 2014

@<TRIPOS>MOLECULE
3uic_09T_1_INTS_M
   56     0     6     0     0
SMALL
NO_CHARGES


@<TRIPOS>ATOM
      1 N          36.6175    8.4275   14.5990 N.am      1 SEC2        0.0000 
      2 N          37.8590    8.2570   15.2540 N.am      5 SEL2        0.0000 
      3 N          35.3760    8.5980   13.9440 N.am      3 SEP2        0.0000 
      4 CA         39.3145    7.8885   14.5980 C.3       2 GLC5        0.0000 
      5 CA         38.3610    9.3220   15.8970 C.3       6 GLL5        0.0000 
      6 CA         40.2680    6.4550   13.2990 C.3       4 GLP5        0.0000 
      7 CA         34.6395   12.0935   19.4190 C.3       2 GLC5        0.0000 
      8 CA         33.8530   10.5560   20.5830 C.3       6 GLL5        0.0000 
      9 CA         35.4260   13.6310   18.2550 C.3       4 GLP5        0.0000 
     10 CA         32.4535   11.4300   21.3745 C.3       2 GLC5        0.0000 
     11 CA         31.0540   12.3040   22.1660 C.3       4 GLP5        0.0000 
     12 CA         33.7275   10.1960   18.7245 C.3       2 GLC5        0.0000 
     13 CA         33.6020    9.8360   16.8660 C.3       4 GLP5        0.0000 
     14 CA         35.3345   11.2075   21.1635 C.3       2 GLC5        0.0000 
     15 CA         36.8160   11.8590   21.7440 C.3       4 GLP5        0.0000 
     16 CA         31.3630   10.3045   21.3035 C.3       2 GLC5        0.0000 
     17 CA         31.6720    8.3050   20.4410 C.3       6 GLL5        0.0000 
     18 CA         32.2345    7.6465   22.0120 C.3       2 GLC5        0.0000 
     19 CA         32.7970    6.9880   23.5830 C.3       4 GLP5        0.0000 
     20 CA         30.4275    7.1900   21.3515 C.3       2 GLC5        0.0000 
     21 CA         29.1830    6.0750   22.2620 C.3       4 GLP5        0.0000 
     22 CA         36.0125    8.2530   17.4040 C.3       2 GLC5        0.0000 
     23 CA         37.3750    7.1500   18.7230 C.3       6 GLL5        0.0000 
     24 CA         34.6500    9.3560   16.0850 C.3       4 GLP5        0.0000 
     25 CA         37.1575    6.2900   20.4915 C.3       2 GLC5        0.0000 
     26 CA         36.9400    5.4300   22.2600 C.3       4 GLP5        0.0000 
     27 CA         38.0150    5.5245   17.4940 C.3       2 GLC5        0.0000 
     28 CA         38.6550    3.8990   16.2650 C.3       4 GLP5        0.0000 
     29 CA         37.7340   10.9720   19.9500 C.3       2 GLC5        0.0000 
     30 CA         38.6520   10.0850   18.1560 C.3       6 GLL5        0.0000 
     31 CA         38.2235   12.0845   20.2105 C.3       2 GLC5        0.0000 
     32 CA         39.6310   12.3100   18.6770 C.3       6 GLL5        0.0000 
     33 CA         40.7895   13.6215   14.4155 C.3       2 GLC5        0.0000 
     34 CA         39.9080   12.7410   15.8300 C.3       6 GLL5        0.0000 
     35 CA         41.6710   14.5020   13.0010 C.3       4 GLP5        0.0000 
     36 CA         38.6730   13.8925   17.0205 C.3       2 GLC5        0.0000 
     37 CA         37.4380   15.0440   18.2110 C.3       4 GLP5        0.0000 
     38 CA         39.7465   10.4135   13.6490 C.3       2 GLC5        0.0000 
     39 CA         38.9140   10.5040   15.4430 C.3       6 GLL5        0.0000 
     40 CA         40.5790   10.3230   11.8550 C.3       4 GLP5        0.0000 
     41 CA         36.0285    9.6590   21.0685 C.3       2 GLC5        0.0000 
     42 CA         35.6610    8.7030   19.6290 C.3       6 GLL5        0.0000 
     43 CA         37.0500   10.5020   22.3240 C.3       4 GLP5        0.0000 
     44 CA         40.4900    9.2942   17.8023 C.3       2 GLC5        0.0000 
     45 CA         42.5400    9.0030   17.8910 C.3       4 GLP5        0.0000 
     46 CA         31.8383    9.3178   18.6790 C.3       2 GLC5        0.0000 
     47 CA         33.3810    7.9220   19.9250 C.3       6 GLL5        0.0000 
     48 CA         31.1500   10.5220   17.1750 C.3       4 GLP5        0.0000 
     49 CA         33.2920    7.2636   21.6497 C.3       2 GLC5        0.0000 
     50 CA         34.3530    8.9290   19.9970 C.3       6 GLL5        0.0000 
     51 CA         38.4366   13.4419   18.0318 C.3       2 GLC5        0.0000 
     52 CA         39.1770   11.2660   17.7090 C.3       6 GLL5        0.0000 
     53 CA         40.9876   10.4214   17.8717 C.3       2 GLC5        0.0000 
     54 CA         37.7548   12.1802   15.0204 C.3       2 GLC5        0.0000 
     55 CA         39.3020   11.4730   16.3470 C.3       6 GLL5        0.0000 
     56 CA         36.2500   13.0550   14.2750 C.3       4 GLP5        0.0000 
@<TRIPOS>BOND
@<TRIPOS>SUBSTRUCTURE
     1 SEC2        1 GROUP        1 X    SEC  0     ROOT SEC X 2
     2 GLC5        4 GROUP        1 X    GLC  0     **** GLC X 6
     3 SEP2        3 GROUP        1 Y    SEP  0     ROOT SEP Y 9
     4 GLP5        6 GROUP        1 Y    GLP  0     **** GLP Y 13
     5 SEL2        2 GROUP        1 Z    SEL  0     ROOT SEL Z 16
     6 GLL5        5 GROUP        1 Z    GLL  0     **** GLL Z 20
@<TRIPOS>SET

