#    Name: 3uic_09T_1_ligand
#    Modification time : Mon Mar 24 22:22:55 2014

@<TRIPOS>MOLECULE
3uic_09T_1_ligand
   34    36     1     0     0
SMALL
NO_CHARGES


@<TRIPOS>ATOM
      1 C4         35.0100    6.4340   19.0940 C.ar      1 09T262      0.0000 
      2 C5         35.9690    7.4450   19.1620 C.ar      1 09T262      0.0000 
      3 C6         35.6610    8.7030   19.6290 C.ar      1 09T262      0.0000 
      4 C7         34.3530    8.9290   19.9970 C.ar      1 09T262      0.0000 
      5 N12        37.8590    8.2570   15.2540 N.2       1 09T262      0.0000 
      6 C13        38.3610    9.3220   15.8970 C.ar      1 09T262      0.0000 
      7 C15        39.3020   11.4730   16.3470 C.ar      1 09T262      0.0000 
      8 C17        39.1770   11.2660   17.7090 C.ar      1 09T262      0.0000 
      9 C20        38.2280    9.0860   17.2710 C.ar      1 09T262      0.0000 
     10 CL8        33.8530   10.5560   20.5830 Cl        1 09T262      0.0000 
     11 C2         33.3810    7.9220   19.9250 C.ar      1 09T262      0.0000 
     12 CL1        31.6720    8.3050   20.4410 Cl        1 09T262      0.0000 
     13 C3         33.7070    6.6530   19.4720 C.ar      1 09T262      0.0000 
     14 C9         37.3750    7.1500   18.7230 C.3       1 09T262      0.0000 
     15 N10        37.6790    7.8350   17.4500 N.pl3     1 09T262      0.0000 
     16 C11        37.4570    7.3490   16.2120 C.2       1 09T262      0.0000 
     17 C19        38.6520   10.0850   18.1560 C.ar      1 09T262      0.0000 
     18 C18        39.6310   12.3100   18.6770 C.3       1 09T262      0.0000 
     19 C16        39.9080   12.7410   15.8300 C.3       1 09T262      0.0000 
     20 C14        38.9140   10.5040   15.4430 C.ar      1 09T262      0.0000 
     21 H          35.2970    5.4952   18.7477 H         1 09T262      0.0000 
     22 H          36.3628    9.4283   19.6988 H         1 09T262      0.0000 
     23 H          33.0087    5.9206   19.4237 H         1 09T262      0.0000 
     24 H          37.4937    6.0662   18.6050 H         1 09T262      0.0000 
     25 H          38.0709    7.4801   19.5037 H         1 09T262      0.0000 
     26 H          37.0679    6.4801   16.0045 H         1 09T262      0.0000 
     27 H          38.5591    9.9103   19.1797 H         1 09T262      0.0000 
     28 H          39.0364   10.6617   14.4322 H         1 09T262      0.0000 
     29 H          40.6073   12.5048   18.5823 H         1 09T262      0.0000 
     30 H          39.1455   13.1744   18.5458 H         1 09T262      0.0000 
     31 H          39.4787   12.0292   19.6246 H         1 09T262      0.0000 
     32 H          40.8465   12.8628   16.1530 H         1 09T262      0.0000 
     33 H          39.9375   12.7580   14.8306 H         1 09T262      0.0000 
     34 H          39.3909   13.5457   16.1217 H         1 09T262      0.0000 
@<TRIPOS>BOND
     1    2    1 ar   
     2   13    1 ar   
     3   21    1 1    
     4    3    2 ar   
     5   14    2 1    
     6    4    3 ar   
     7   22    3 1    
     8   10    4 1    
     9   11    4 ar   
    10    6    5 1    
    11   16    5 2    
    12    9    6 ar   
    13   20    6 ar   
    14    8    7 ar   
    15   19    7 1    
    16   20    7 ar   
    17   17    8 ar   
    18   18    8 1    
    19   15    9 1    
    20   17    9 ar   
    21   12   11 1    
    22   13   11 ar   
    23   23   13 1    
    24   15   14 1    
    25   24   14 1    
    26   25   14 1    
    27   16   15 1    
    28   26   16 1    
    29   27   17 1    
    30   29   18 1    
    31   30   18 1    
    32   31   18 1    
    33   32   19 1    
    34   33   19 1    
    35   34   19 1    
    36   28   20 1    
@<TRIPOS>SUBSTRUCTURE
     1 09T262      1 GROUP   
@<TRIPOS>SET

