#    Name: 3hbf_MYC_1_INTS_M
#    Modification time : Tue Mar 25 13:53:48 2014

@<TRIPOS>MOLECULE
3hbf_MYC_1_INTS_M
   42     0     6     0     0
SMALL
NO_CHARGES


@<TRIPOS>ATOM
      1 CA         22.9150   -9.7745    8.4180 C.3       2 GLC5        0.0000 
      2 CA         21.7130   -9.6770    7.2020 C.3       6 GLL5        0.0000 
      3 CA         24.1170   -9.8720    9.6340 C.3       4 GLP5        0.0000 
      4 CA         21.2875   -9.6890    5.3280 C.3       2 GLC5        0.0000 
      5 CA         20.8620   -9.7010    3.4540 C.3       4 GLP5        0.0000 
      6 CA         21.9885  -10.4205    9.2525 C.3       2 GLC5        0.0000 
      7 CA         20.8470  -10.3940    8.0610 C.3       6 GLL5        0.0000 
      8 CA         23.1300  -10.4470   10.4440 C.3       4 GLP5        0.0000 
      9 CA         18.2750  -12.1895    8.4410 C.3       2 GLC5        0.0000 
     10 CA         18.9310  -10.6090    9.6570 C.3       6 GLL5        0.0000 
     11 CA         17.6190  -13.7700    7.2250 C.3       4 GLP5        0.0000 
     12 CA         17.0855   -8.6880   12.7230 C.3       2 GLC5        0.0000 
     13 CA         17.7680   -8.6750   10.6050 C.3       6 GLL5        0.0000 
     14 CA         16.4030   -8.7010   14.8410 C.3       4 GLP5        0.0000 
     15 O          16.6930   -8.8070   12.5590 O.2       1 ALC1        0.0000 
     16 O          16.8090   -8.1600   11.4130 O.2       5 ALL1        0.0000 
     17 O          16.5770   -9.4540   13.7050 O.2       3 ALP1        0.0000 
     18 O          17.4500  -12.4210   10.9380 O.2       1 ALC1        0.0000 
     19 O          17.1550  -10.9550   11.1670 O.2       5 ALL1        0.0000 
     20 O          17.7450  -13.8870   10.7090 O.2       3 ALP1        0.0000 
     21 CA         23.7592  -14.2220    8.5460 C.3       2 GLC5        0.0000 
     22 CA         23.7730  -14.0680    6.1440 C.3       6 GLL5        0.0000 
     23 CA         24.2080  -14.0670   10.5040 C.3       4 GLP5        0.0000 
     24 CA         19.7458  -13.4917    7.4195 C.3       2 GLC5        0.0000 
     25 CA         21.8930  -13.9120    7.7110 C.3       6 GLL5        0.0000 
     26 CA         23.0403  -13.6402    9.0590 C.3       2 GLC5        0.0000 
     27 CA         23.8476  -14.9976    5.0326 C.3       2 GLC5        0.0000 
     28 CA         22.8480  -14.6860    7.0320 C.3       6 GLL5        0.0000 
     29 CA         24.3920  -15.9670    3.5300 C.3       4 GLP5        0.0000 
     30 CA         19.8223  -10.7645   11.1170 C.3       2 GLC5        0.0000 
     31 CA         19.7880   -9.7470    8.9130 C.3       6 GLL5        0.0000 
     32 CA         20.2850  -11.3510   12.9490 C.3       4 GLP5        0.0000 
     33 CA         17.8710  -10.4343    8.2903 C.3       2 GLC5        0.0000 
     34 CA         17.3080  -10.5190    6.5080 C.3       4 GLP5        0.0000 
     35 CA         16.0237  -10.1542   10.7867 C.3       2 GLC5        0.0000 
     36 CA         17.9370  -10.0900   10.4880 C.3       6 GLL5        0.0000 
     37 CA         14.1950  -10.9260   11.0270 C.3       4 GLP5        0.0000 
     38 CA         19.0688  -10.3668   11.7477 C.3       2 GLC5        0.0000 
     39 CA         16.5760   -7.5695    9.4198 C.3       2 GLC5        0.0000 
     40 CA         14.9620   -6.9030    8.6030 C.3       4 GLP5        0.0000 
     41 CA         18.6374   -9.8586    7.6333 C.3       2 GLC5        0.0000 
     42 CA         19.6160   -8.3260    9.0300 C.3       6 GLL5        0.0000 
@<TRIPOS>BOND
@<TRIPOS>SUBSTRUCTURE
     1 ALC1       15 GROUP        1 X    ALC  0     ROOT ALC X 1
     2 GLC5        1 GROUP        1 X    GLC  0     **** GLC X 6
     3 ALP1       17 GROUP        1 Y    ALP  0     ROOT ALP Y 8
     4 GLP5        3 GROUP        1 Y    GLP  0     **** GLP Y 13
     5 ALL1       16 GROUP        1 Z    ALL  0     ROOT ALL Z 15
     6 GLL5        2 GROUP        1 Z    GLL  0     **** GLL Z 20
@<TRIPOS>SET

