#    Name: 3hbf_MYC_1_ligand
#    Modification time : Tue Mar 25 13:53:48 2014

@<TRIPOS>MOLECULE
3hbf_MYC_1_ligand
   33    35     1     0     0
SMALL
NO_CHARGES


@<TRIPOS>ATOM
      1 C1         23.7730  -14.0680    6.1440 C.ar      1 MYC901      0.0000 
      2 C2         23.7440  -12.6730    5.9330 C.ar      1 MYC901      0.0000 
      3 C3         22.7830  -11.8840    6.6210 C.ar      1 MYC901      0.0000 
      4 C4         21.8520  -12.5150    7.5170 C.ar      1 MYC901      0.0000 
      5 C5         21.8930  -13.9120    7.7110 C.ar      1 MYC901      0.0000 
      6 C6         22.8480  -14.6860    7.0320 C.ar      1 MYC901      0.0000 
      7 C9         22.7060  -10.4020    6.4530 C.2       1 MYC901      0.0000 
      8 C10        21.7130   -9.6770    7.2020 C.2       1 MYC901      0.0000 
      9 C11        20.8470  -10.3940    8.0610 C.2       1 MYC901      0.0000 
     10 C14        19.7880   -9.7470    8.9130 C.ar      1 MYC901      0.0000 
     11 C15        18.9310  -10.6090    9.6570 C.ar      1 MYC901      0.0000 
     12 C16        17.9370  -10.0900   10.4880 C.ar      1 MYC901      0.0000 
     13 C17        17.7680   -8.6750   10.6050 C.ar      1 MYC901      0.0000 
     14 C18        18.6120   -7.7970    9.8680 C.ar      1 MYC901      0.0000 
     15 C19        19.6160   -8.3260    9.0300 C.ar      1 MYC901      0.0000 
     16 O12        20.9450  -11.7600    8.1800 O.3       1 MYC901      0.0000 
     17 O13        23.4720   -9.8110    5.7060 O.2       1 MYC901      0.0000 
     18 O23        18.4570   -6.4410    9.9710 O.3       1 MYC901      0.0000 
     19 O24        16.8090   -8.1600   11.4130 O.3       1 MYC901      0.0000 
     20 O25        17.1550  -10.9550   11.1670 O.3       1 MYC901      0.0000 
     21 O27        21.6540   -8.3330    7.0600 O.3       1 MYC901      0.0000 
     22 O29        22.8870  -16.0290    7.2320 O.3       1 MYC901      0.0000 
     23 O30        24.6300  -12.0890    5.0890 O.3       1 MYC901      0.0000 
     24 H          24.4635  -14.6455    5.6565 H         1 MYC901      0.0000 
     25 H          21.2270  -14.3574    8.3457 H         1 MYC901      0.0000 
     26 H          19.0570  -11.6261    9.5716 H         1 MYC901      0.0000 
     27 H          20.2280   -7.7060    8.5003 H         1 MYC901      0.0000 
     28 H          19.2562   -6.0536    9.5114 H         1 MYC901      0.0000 
     29 H          16.7968   -8.7585   12.2140 H         1 MYC901      0.0000 
     30 H          17.5122  -11.8607   10.9387 H         1 MYC901      0.0000 
     31 H          22.4758   -8.0911    6.5441 H         1 MYC901      0.0000 
     32 H          23.4644  -15.4516    7.8094 H         1 MYC901      0.0000 
     33 H          24.3964  -11.1167    5.1009 H         1 MYC901      0.0000 
@<TRIPOS>BOND
     1    2    1 ar   
     2    6    1 ar   
     3   24    1 1    
     4    3    2 ar   
     5   23    2 1    
     6    4    3 ar   
     7    7    3 1    
     8    5    4 ar   
     9   16    4 1    
    10    6    5 ar   
    11   25    5 1    
    12   22    6 1    
    13    8    7 1    
    14   17    7 2    
    15    9    8 2    
    16   21    8 1    
    17   10    9 1    
    18   16    9 1    
    19   11   10 ar   
    20   15   10 ar   
    21   12   11 ar   
    22   26   11 1    
    23   13   12 ar   
    24   20   12 1    
    25   14   13 ar   
    26   19   13 1    
    27   15   14 ar   
    28   18   14 1    
    29   27   15 1    
    30   28   18 1    
    31   29   19 1    
    32   30   20 1    
    33   31   21 1    
    34   32   22 1    
    35   33   23 1    
@<TRIPOS>SUBSTRUCTURE
     1 MYC901      1 GROUP   
@<TRIPOS>SET

