#    Name: 3viu_ADP_1_INTS_M
#    Modification time : Tue Mar 25 00:55:49 2014

@<TRIPOS>MOLECULE
3viu_ADP_1_INTS_M
   51     0    12     0     0
SMALL
NO_CHARGES


@<TRIPOS>ATOM
      1 NZ         40.8165  -16.0470   13.8635 N.4       3 LYC4        0.0000 
      2 NZ         40.5090  -17.3840   13.8270 N.4      11 LYL4        0.0000 
      3 NZ         41.1240  -14.7100   13.9000 N.4       7 LYP4        0.0000 
      4 N          40.8165  -16.0470   13.8635 N.am      2 SEC2        0.0000 
      5 N          40.5090  -17.3840   13.8270 N.am     10 SEL2        0.0000 
      6 N          41.1240  -14.7100   13.9000 N.am      6 SEP2        0.0000 
      7 N          43.6050  -17.7435   13.7530 N.am      2 SEC2        0.0000 
      8 N          42.7520  -18.3070   12.6210 N.am     10 SEL2        0.0000 
      9 N          44.4580  -17.1800   14.8850 N.am      6 SEP2        0.0000 
     10 N          41.1135  -15.6355   12.6410 N.am      2 SEC2        0.0000 
     11 N          41.1030  -16.5610   11.3820 N.am     10 SEL2        0.0000 
     12 CA         37.5175  -15.6440    8.5285 C.3       4 GLC5        0.0000 
     13 CA         39.5420  -14.8130    8.6460 C.3      12 GLL5        0.0000 
     14 CA         35.4930  -16.4750    8.4110 C.3       8 GLP5        0.0000 
     15 N          42.7810  -11.0535    7.9255 N.am      2 SEC2        0.0000 
     16 N          42.1940  -12.1600    9.0210 N.am     10 SEL2        0.0000 
     17 N          43.3680   -9.9470    6.8300 N.am      6 SEP2        0.0000 
     18 O          43.4030  -12.0590    9.6000 O.2       1 ALC1        0.0000 
     19 O          42.1940  -12.1600    9.0210 O.2       9 ALL1        0.0000 
     20 O          44.6120  -11.9580   10.1790 O.2       5 ALP1        0.0000 
     21 CA         40.2810  -12.6650   12.2160 C.3       4 GLC5        0.0000 
     22 CA         40.0250  -11.9340   10.1760 C.3      12 GLL5        0.0000 
     23 CA         40.5370  -13.3960   14.2560 C.3       8 GLP5        0.0000 
     24 N          39.6790  -10.0070   11.8180 N.am      2 SEC2        0.0000 
     25 N          40.6480  -10.8920   10.9320 N.am     10 SEL2        0.0000 
     26 N          38.7100   -9.1220   12.7040 N.am      6 SEP2        0.0000 
     27 CA         34.5585  -10.1800    8.2010 C.3       4 GLC5        0.0000 
     28 CA         35.8800  -10.1990    9.9160 C.3      12 GLL5        0.0000 
     29 CA         33.2370  -10.1610    6.4860 C.3       8 GLP5        0.0000 
     30 CA         33.6710   -8.5405    8.7495 C.3       4 GLC5        0.0000 
     31 CA         35.0430   -9.0880   10.1980 C.3      12 GLL5        0.0000 
     32 CA         32.2990   -7.9930    7.3010 C.3       8 GLP5        0.0000 
     33 O          33.3040   -8.0365   11.2210 O.2       1 ALC1        0.0000 
     34 O          33.7120   -9.2760   10.5240 O.2       9 ALL1        0.0000 
     35 O          32.8960   -6.7970   11.9180 O.2       5 ALP1        0.0000 
     36 O          33.3990  -10.3500   11.6405 O.2       1 ALC1        0.0000 
     37 O          33.0860  -11.4240   12.7570 O.2       5 ALP1        0.0000 
     38 CA         38.7260   -6.9790    8.8105 C.3       4 GLC5        0.0000 
     39 CA         36.8610   -7.6420    9.8270 C.3      12 GLL5        0.0000 
     40 CA         40.5910   -6.3160    7.7940 C.3       8 GLP5        0.0000 
     41 CA         36.8305   -5.7195   10.4105 C.3       4 GLC5        0.0000 
     42 CA         36.8000   -3.7970   10.9940 C.3       8 GLP5        0.0000 
     43 CA         38.6730   -7.6275   10.9480 C.3       4 GLC5        0.0000 
     44 CA         40.4850   -7.6130   12.0690 C.3       8 GLP5        0.0000 
     45 CA         37.1275   -8.5370   11.5230 C.3       4 GLC5        0.0000 
     46 CA         37.3940   -9.4320   13.2190 C.3       8 GLP5        0.0000 
     47 CA         35.3328  -11.0742   11.5450 C.3       4 GLC5        0.0000 
     48 CA         35.2040  -12.5050   13.0330 C.3       8 GLP5        0.0000 
     49 CA         33.7922  -10.8242    9.9305 C.3       4 GLC5        0.0000 
     50 CA         32.1230  -12.0050    9.8040 C.3       8 GLP5        0.0000 
     51 CA         36.8719   -9.6109   11.5205 C.3       4 GLC5        0.0000 
@<TRIPOS>BOND
@<TRIPOS>SUBSTRUCTURE
     1 ALC1       18 GROUP        1 X    ALC  0     ROOT ALC X 1
     2 SEC2        4 GROUP        1 X    SEC  0     **** SEC X 2
     3 LYC4        1 GROUP        1 X    LYC  0     **** LYC X 4
     4 GLC5       12 GROUP        1 X    GLC  0     **** GLC X 6
     5 ALP1       20 GROUP        1 Y    ALP  0     ROOT ALP Y 8
     6 SEP2        6 GROUP        1 Y    SEP  0     **** SEP Y 9
     7 LYP4        3 GROUP        1 Y    LYP  0     **** LYP Y 11
     8 GLP5       14 GROUP        1 Y    GLP  0     **** GLP Y 13
     9 ALL1       19 GROUP        1 Z    ALL  0     ROOT ALL Z 15
    10 SEL2        5 GROUP        1 Z    SEL  0     **** SEL Z 16
    11 LYL4        2 GROUP        1 Z    LYL  0     **** LYL Z 18
    12 GLL5       13 GROUP        1 Z    GLL  0     **** GLL Z 20
@<TRIPOS>SET

