#    Name: 3viu_ADP_1_ligand
#    Modification time : Tue Mar 25 00:55:49 2014

@<TRIPOS>MOLECULE
3viu_ADP_1_ligand
   39    41     1     0     0
SMALL
NO_CHARGES


@<TRIPOS>ATOM
      1 PB         41.1470  -17.8310   12.4180 P.3       1 ADP800      0.0000 
      2 O1B        40.3760  -18.9830   11.8730 O.co2     1 ADP800      0.0000 
      3 O2B        40.5090  -17.3840   13.8270 O.co2     1 ADP800      0.0000 
      4 O3B        42.7520  -18.3070   12.6210 O.co2     1 ADP800      0.0000 
      5 PA         39.7740  -16.5830   10.4170 P.3       1 ADP800      0.0000 
      6 O1A        40.0610  -17.3820    9.1940 O.co2     1 ADP800      0.0000 
      7 O2A        38.5120  -17.2450   11.1890 O.co2     1 ADP800      0.0000 
      8 O3A        41.1030  -16.5610   11.3820 O.3       1 ADP800      0.0000 
      9 O5'        39.3730  -15.0400   10.0590 O.3       1 ADP800      0.0000 
     10 C5'        39.5420  -14.8130    8.6460 C.3       1 ADP800      0.0000 
     11 C4'        40.2560  -13.4670    8.3260 C.3       1 ADP800      0.0000 
     12 O4'        39.2880  -12.4410    7.9340 O.3       1 ADP800      0.0000 
     13 C3'        41.0450  -12.8610    9.5150 C.3       1 ADP800      0.0000 
     14 O3'        42.1940  -12.1600    9.0210 O.3       1 ADP800      0.0000 
     15 C2'        40.0250  -11.9340   10.1760 C.3       1 ADP800      0.0000 
     16 O2'        40.6480  -10.8920   10.9320 O.3       1 ADP800      0.0000 
     17 C1'        39.2070  -11.4190    8.9890 C.3       1 ADP800      0.0000 
     18 N9         37.8090  -11.1650    9.3640 N.pl3     1 ADP800      0.0000 
     19 C8         36.8350  -12.1050    9.5540 C.2       1 ADP800      0.0000 
     20 N7         35.7090  -11.5370    9.8760 N.2       1 ADP800      0.0000 
     21 C5         35.8800  -10.1990    9.9160 C.ar      1 ADP800      0.0000 
     22 C6         35.0430   -9.0880   10.1980 C.ar      1 ADP800      0.0000 
     23 N6         33.7120   -9.2760   10.5240 N.pl3     1 ADP800      0.0000 
     24 N1         35.5720   -7.8460   10.1410 N.ar      1 ADP800      0.0000 
     25 C2         36.8610   -7.6420    9.8270 C.ar      1 ADP800      0.0000 
     26 N3         37.6800   -8.6600    9.5550 N.ar      1 ADP800      0.0000 
     27 C4         37.2380   -9.9360    9.5870 C.ar      1 ADP800      0.0000 
     28 H          38.5702  -14.7952    8.1189 H         1 ADP800      0.0000 
     29 H          40.1403  -15.6147    8.1750 H         1 ADP800      0.0000 
     30 H          40.9558  -13.6259    7.5158 H         1 ADP800      0.0000 
     31 H          41.2721  -13.6506   10.1794 H         1 ADP800      0.0000 
     32 H          39.3718  -12.5554   10.7671 H         1 ADP800      0.0000 
     33 H          39.6768  -10.5102    8.6396 H         1 ADP800      0.0000 
     34 H          36.9994  -13.0713    9.4523 H         1 ADP800      0.0000 
     35 H          33.4057  -10.2254   10.5929 H         1 ADP800      0.0000 
     36 H          33.1715   -8.4462   10.6625 H         1 ADP800      0.0000 
     37 H          37.2314   -6.6545    9.7954 H         1 ADP800      0.0000 
     38 H          42.6663  -11.8292    9.8380 H         1 ADP800      0.0000 
     39 H          41.0464  -11.3512   11.7260 H         1 ADP800      0.0000 
@<TRIPOS>BOND
     1    2    1 ar   
     2    3    1 ar   
     3    4    1 ar   
     4    8    1 1    
     5    6    5 ar   
     6    7    5 ar   
     7    8    5 1    
     8    9    5 1    
     9   10    9 1    
    10   11   10 1    
    11   28   10 1    
    12   29   10 1    
    13   12   11 1    
    14   13   11 1    
    15   30   11 1    
    16   17   12 1    
    17   14   13 1    
    18   15   13 1    
    19   31   13 1    
    20   38   14 1    
    21   16   15 1    
    22   17   15 1    
    23   32   15 1    
    24   39   16 1    
    25   18   17 1    
    26   33   17 1    
    27   19   18 1    
    28   27   18 1    
    29   20   19 2    
    30   34   19 1    
    31   21   20 1    
    32   22   21 ar   
    33   27   21 ar   
    34   23   22 1    
    35   24   22 ar   
    36   35   23 1    
    37   36   23 1    
    38   25   24 ar   
    39   26   25 ar   
    40   37   25 1    
    41   27   26 ar   
@<TRIPOS>SUBSTRUCTURE
     1 ADP800      1 GROUP   
@<TRIPOS>SET

