#    Name: 2c0o_L2G_2_INTS_M
#    Modification time : Mon Mar 24 22:05:36 2014

@<TRIPOS>MOLECULE
2c0o_L2G_2_INTS_M
   92     0     9     0     0
SMALL
NO_CHARGES


@<TRIPOS>ATOM
      1 CA         14.7465   71.6510   74.7290 C.3       3 GLC5        0.0000 
      2 CA         15.1800   71.5340   76.6040 C.3       9 GLL5        0.0000 
      3 CA         14.3130   71.7680   72.8540 C.3       6 GLP5        0.0000 
      4 CA         13.1250   71.2500   78.3540 C.3       3 GLC5        0.0000 
      5 CA         11.8250   72.2720   77.1330 C.3       9 GLL5        0.0000 
      6 CA         14.4250   70.2280   79.5750 C.3       6 GLP5        0.0000 
      7 N          17.4655   70.0995   76.4045 N.am      2 SEC2        0.0000 
      8 N          16.4570   71.1410   76.8330 N.am      8 SEL2        0.0000 
      9 N          18.4740   69.0580   75.9760 N.am      5 SEP2        0.0000 
     10 O          14.6135   69.1425   76.5560 O.2       1 ALC1        0.0000 
     11 O          14.2050   70.6110   76.4690 O.2       7 ALL1        0.0000 
     12 O          15.0220   67.6740   76.6430 O.2       4 ALP1        0.0000 
     13 CA          9.2605   72.5265   78.4745 C.3       3 GLC5        0.0000 
     14 CA         10.5400   71.7800   77.0360 C.3       9 GLL5        0.0000 
     15 CA          7.9810   73.2730   79.9130 C.3       6 GLP5        0.0000 
     16 CA         15.9350   71.1455   78.2740 C.3       3 GLC5        0.0000 
     17 CA         17.4450   72.0630   76.9730 C.3       9 GLL5        0.0000 
     18 CA         17.4925   69.8885   77.3480 C.3       3 GLC5        0.0000 
     19 CA         17.5400   67.7140   77.7230 C.3       6 GLP5        0.0000 
     20 CA         18.3180   70.6740   75.8580 C.3       3 GLC5        0.0000 
     21 CA         19.1910   69.2850   74.7430 C.3       6 GLP5        0.0000 
     22 CA         14.2085   75.9905   78.7450 C.3       3 GLC5        0.0000 
     23 CA         15.3740   77.2280   77.6610 C.3       9 GLL5        0.0000 
     24 CA         13.0430   74.7530   79.8290 C.3       6 GLP5        0.0000 
     25 CA         12.6900   70.2655   79.2375 C.3       3 GLC5        0.0000 
     26 CA         10.9550   70.3030   78.9000 C.3       9 GLL5        0.0000 
     27 CA         11.0230   70.5015   80.7780 C.3       3 GLC5        0.0000 
     28 CA         11.0910   70.7000   82.6560 C.3       6 GLP5        0.0000 
     29 CA          9.4680   71.7880   79.4065 C.3       3 GLC5        0.0000 
     30 CA         10.3980   69.1780   77.7240 C.3       3 GLC5        0.0000 
     31 CA          9.8410   68.0530   76.5480 C.3       6 GLP5        0.0000 
     32 CA         15.0805   79.7035   79.2555 C.3       3 GLC5        0.0000 
     33 CA         15.9750   78.6340   77.6110 C.3       9 GLL5        0.0000 
     34 CA         14.1860   80.7730   80.9000 C.3       6 GLP5        0.0000 
     35 CA          6.1485   68.8350   75.1580 C.3       3 GLC5        0.0000 
     36 CA          6.4140   70.9870   74.7140 C.3       9 GLL5        0.0000 
     37 CA          5.8830   66.6830   75.6020 C.3       6 GLP5        0.0000 
     38 CA          6.6355   72.2040   72.9505 C.3       3 GLC5        0.0000 
     39 CA          6.8570   73.4210   71.1870 C.3       6 GLP5        0.0000 
     40 N           8.2740   72.0060   72.3565 N.am      2 SEC2        0.0000 
     41 N           8.4740   71.4220   73.6700 N.am      8 SEL2        0.0000 
     42 N           8.0740   72.5900   71.0430 N.am      5 SEP2        0.0000 
     43 CA          5.9025   70.1270   77.0945 C.3       3 GLC5        0.0000 
     44 CA          5.4180   71.4950   75.5520 C.3       9 GLL5        0.0000 
     45 CA          6.3870   68.7590   78.6370 C.3       6 GLP5        0.0000 
     46 CA          4.4920   73.0995   75.4725 C.3       3 GLC5        0.0000 
     47 CA          3.5660   74.7040   75.3930 C.3       6 GLP5        0.0000 
     48 CA          8.5720   69.0125   72.3055 C.3       3 GLC5        0.0000 
     49 CA          6.5290   69.2520   72.8000 C.3       9 GLL5        0.0000 
     50 CA         10.6150   68.7730   71.8110 C.3       6 GLP5        0.0000 
     51 CA          6.2060   67.9675   74.2010 C.3       3 GLC5        0.0000 
     52 CA          6.6930   71.3365   71.9935 C.3       3 GLC5        0.0000 
     53 CA          2.6270   67.5265   72.6410 C.3       3 GLC5        0.0000 
     54 CA          3.4280   69.1770   73.6570 C.3       9 GLL5        0.0000 
     55 CA          1.8260   65.8760   71.6250 C.3       6 GLP5        0.0000 
     56 CA          3.2850   72.8430   75.5510 C.3       3 GLC5        0.0000 
     57 CA          3.0040   70.9820   75.7090 C.3       9 GLL5        0.0000 
     58 CA          1.5150   68.1415   72.6770 C.3       3 GLC5        0.0000 
     59 CA          2.1530   69.3160   74.1880 C.3       9 GLL5        0.0000 
     60 CA          0.8770   66.9670   71.1660 C.3       6 GLP5        0.0000 
     61 CA          1.8805   71.8725   73.9070 C.3       3 GLC5        0.0000 
     62 CA          1.9360   70.2210   75.2160 C.3       9 GLL5        0.0000 
     63 CA          1.8250   73.5240   72.5980 C.3       6 GLP5        0.0000 
     64 CA         14.2210   74.0487   78.2053 C.3       3 GLC5        0.0000 
     65 CA         14.8890   72.8870   76.5210 C.3       9 GLL5        0.0000 
     66 CA         14.7297   71.2193   78.0687 C.3       3 GLC5        0.0000 
     67 CA         15.3945   73.6898   74.7688 C.3       3 GLC5        0.0000 
     68 CA         15.3900   74.0350   72.9560 C.3       6 GLP5        0.0000 
     69 CA         12.5627   73.7090   78.2310 C.3       3 GLC5        0.0000 
     70 CA         12.3400   73.0580   76.1330 C.3       9 GLL5        0.0000 
     71 CA         13.1265   72.5088   74.2277 C.3       3 GLC5        0.0000 
     72 CA         11.0213   73.0097   73.0537 C.3       3 GLC5        0.0000 
     73 CA         11.5400   73.4410   75.0700 C.3       9 GLL5        0.0000 
     74 CA         11.1490   72.8150   71.0820 C.3       6 GLP5        0.0000 
     75 CA          9.9945   69.9980   76.5213 C.3       3 GLC5        0.0000 
     76 CA          9.7560   72.1060   75.9530 C.3       9 GLL5        0.0000 
     77 CA          8.7852   73.6550   76.7055 C.3       3 GLC5        0.0000 
     78 CA          7.5690   74.7730   77.9440 C.3       6 GLP5        0.0000 
     79 CA         15.5693   75.3680   74.4145 C.3       3 GLC5        0.0000 
     80 CA         15.9220   76.3780   76.5410 C.3       9 GLL5        0.0000 
     81 CA         16.4303   77.9258   73.4300 C.3       3 GLC5        0.0000 
     82 CA         15.5750   77.0240   75.2050 C.3       9 GLL5        0.0000 
     83 CA         16.9810   78.1340   71.7030 C.3       6 GLP5        0.0000 
     84 CA         16.2228   77.5115   79.4570 C.3       3 GLC5        0.0000 
     85 CA         16.7710   77.0920   81.2780 C.3       6 GLP5        0.0000 
     86 CA          3.7935   72.1037   73.9127 C.3       3 GLC5        0.0000 
     87 CA          4.4840   69.9530   74.1620 C.3       9 GLL5        0.0000 
     88 CA          3.2030   73.8190   73.1630 C.3       6 GLP5        0.0000 
     89 CA          4.8945   68.2329   74.8809 C.3       3 GLC5        0.0000 
     90 CA          4.2840   70.8240   75.1630 C.3       9 GLL5        0.0000 
     91 CA          3.1215   70.4640   77.2895 C.3       3 GLC5        0.0000 
     92 CA          3.4530   70.3660   79.2530 C.3       6 GLP5        0.0000 
@<TRIPOS>BOND
@<TRIPOS>SUBSTRUCTURE
     1 ALC1       10 GROUP        1 X    ALC  0     ROOT ALC X 1
     2 SEC2        7 GROUP        1 X    SEC  0     **** SEC X 2
     3 GLC5        1 GROUP        1 X    GLC  0     **** GLC X 6
     4 ALP1       12 GROUP        1 Y    ALP  0     ROOT ALP Y 8
     5 SEP2        9 GROUP        1 Y    SEP  0     **** SEP Y 9
     6 GLP5        3 GROUP        1 Y    GLP  0     **** GLP Y 13
     7 ALL1       11 GROUP        1 Z    ALL  0     ROOT ALL Z 15
     8 SEL2        8 GROUP        1 Z    SEL  0     **** SEL Z 16
     9 GLL5        2 GROUP        1 Z    GLL  0     **** GLL Z 20
@<TRIPOS>SET

