#    Name: 2c0o_L2G_2_ligand
#    Modification time : Mon Mar 24 22:05:36 2014

@<TRIPOS>MOLECULE
2c0o_L2G_2_ligand
   86    92     1     0     0
SMALL
NO_CHARGES


@<TRIPOS>ATOM
      1 C1         13.6950   73.6120   76.2760 C.2       1 L2G1506     0.0000 
      2 C2         14.8890   72.8870   76.5210 C.ar      1 L2G1506     0.0000 
      3 C3         12.3400   73.0580   76.1330 C.ar      1 L2G1506     0.0000 
      4 N1         14.0060   74.9350   76.2950 N.2       1 L2G1506     0.0000 
      5 C4         15.9090   73.8020   76.6420 C.ar      1 L2G1506     0.0000 
      6 C5         15.1800   71.5340   76.6040 C.ar      1 L2G1506     0.0000 
      7 C6         11.8250   72.2720   77.1330 C.ar      1 L2G1506     0.0000 
      8 C7         11.5400   73.4410   75.0700 C.ar      1 L2G1506     0.0000 
      9 N2         15.3470   75.0060   76.6080 N.pl3     1 L2G1506     0.0000 
     10 N3         17.1690   73.3830   76.9060 N.ar      1 L2G1506     0.0000 
     11 N4         16.4570   71.1410   76.8330 N.ar      1 L2G1506     0.0000 
     12 N5         14.2050   70.6110   76.4690 N.pl3     1 L2G1506     0.0000 
     13 C8         10.5400   71.7800   77.0360 C.ar      1 L2G1506     0.0000 
     14 C9         10.2470   72.9680   74.9810 C.ar      1 L2G1506     0.0000 
     15 C10        15.9220   76.3780   76.5410 C.3       1 L2G1506     0.0000 
     16 C11        17.4450   72.0630   76.9730 C.ar      1 L2G1506     0.0000 
     17 C12         9.7560   72.1060   75.9530 C.ar      1 L2G1506     0.0000 
     18 O1         10.0560   70.9560   78.0060 O.3       1 L2G1506     0.0000 
     19 C13        15.5750   77.0240   75.2050 C.3       1 L2G1506     0.0000 
     20 C14        15.3740   77.2280   77.6610 C.3       1 L2G1506     0.0000 
     21 N6          8.4310   71.6660   75.8940 N.am      1 L2G1506     0.0000 
     22 C15        10.9550   70.3030   78.9000 C.3       1 L2G1506     0.0000 
     23 C16        16.1840   78.4110   75.1090 C.3       1 L2G1506     0.0000 
     24 C17        15.9750   78.6340   77.6110 C.3       1 L2G1506     0.0000 
     25 C18         7.8540   71.3870   74.7250 C.2       1 L2G1506     0.0000 
     26 C19        15.7010   79.3100   76.2560 C.3       1 L2G1506     0.0000 
     27 C20         6.4140   70.9870   74.7140 C.2       1 L2G1506     0.0000 
     28 O2          8.4740   71.4220   73.6700 O.2       1 L2G1506     0.0000 
     29 N7         16.4040   80.6080   76.1850 N.4       1 L2G1506     0.0000 
     30 N8          5.8210   70.0400   73.8520 N.pl3     1 L2G1506     0.0000 
     31 C21         5.4180   71.4950   75.5520 C.2       1 L2G1506     0.0000 
     32 C22        17.5690   80.6130   77.0890 C.3       1 L2G1506     0.0000 
     33 C23        15.4920   81.6960   76.5530 C.3       1 L2G1506     0.0000 
     34 C24         4.4840   69.9530   74.1620 C.ar      1 L2G1506     0.0000 
     35 C25         6.5290   69.2520   72.8000 C.3       1 L2G1506     0.0000 
     36 C26         4.2840   70.8240   75.1630 C.ar      1 L2G1506     0.0000 
     37 C27        18.3380   81.9110   76.9060 C.3       1 L2G1506     0.0000 
     38 C28        16.2000   83.0200   76.3050 C.3       1 L2G1506     0.0000 
     39 C29         3.4280   69.1770   73.6570 C.ar      1 L2G1506     0.0000 
     40 C30         3.0040   70.9820   75.7090 C.ar      1 L2G1506     0.0000 
     41 N9         17.3690   82.9820   77.1830 N.am      1 L2G1506     0.0000 
     42 C31         2.1530   69.3160   74.1880 C.ar      1 L2G1506     0.0000 
     43 C32         1.9360   70.2210   75.2160 C.ar      1 L2G1506     0.0000 
     44 C33        17.5480   83.8640   78.1760 C.2       1 L2G1506     0.0000 
     45 C34        16.4720   84.9140   78.3300 C.3       1 L2G1506     0.0000 
     46 O3         18.5270   83.8210   78.9150 O.2       1 L2G1506     0.0000 
     47 H          12.3994   72.0460   77.9631 H         1 L2G1506     0.0000 
     48 H          11.9105   74.0764   74.3498 H         1 L2G1506     0.0000 
     49 H          13.2918   70.9625   76.2630 H         1 L2G1506     0.0000 
     50 H          14.4823   69.6575   76.5870 H         1 L2G1506     0.0000 
     51 H           9.6433   73.2514   74.1962 H         1 L2G1506     0.0000 
     52 H          16.9933   76.3304   76.6290 H         1 L2G1506     0.0000 
     53 H          18.4266   71.7437   77.1339 H         1 L2G1506     0.0000 
     54 H          14.4922   77.0958   75.1119 H         1 L2G1506     0.0000 
     55 H          15.9576   76.4028   74.3962 H         1 L2G1506     0.0000 
     56 H          15.6165   76.7738   78.6210 H         1 L2G1506     0.0000 
     57 H          14.2910   77.3030   77.5708 H         1 L2G1506     0.0000 
     58 H           7.9105   71.5636   76.7922 H         1 L2G1506     0.0000 
     59 H          15.9033   78.8686   74.1596 H         1 L2G1506     0.0000 
     60 H          17.2712   78.3367   75.1526 H         1 L2G1506     0.0000 
     61 H          17.0514   78.5720   77.7648 H         1 L2G1506     0.0000 
     62 H          15.5401   79.2407   78.4041 H         1 L2G1506     0.0000 
     63 H          14.6420   79.4539   76.1528 H         1 L2G1506     0.0000 
     64 H          16.7501   80.7656   75.1650 H         1 L2G1506     0.0000 
     65 H           5.5146   72.1341   76.2107 H         1 L2G1506     0.0000 
     66 H          18.2316   79.7787   76.8641 H         1 L2G1506     0.0000 
     67 H          17.2484   80.5392   78.1270 H         1 L2G1506     0.0000 
     68 H          15.2229   81.6373   77.6038 H         1 L2G1506     0.0000 
     69 H          14.5896   81.6660   75.9491 H         1 L2G1506     0.0000 
     70 H          18.6952   81.9666   75.8945 H         1 L2G1506     0.0000 
     71 H          19.1521   81.9373   77.6063 H         1 L2G1506     0.0000 
     72 H          15.5397   83.8216   76.5695 H         1 L2G1506     0.0000 
     73 H          16.4883   83.0718   75.2741 H         1 L2G1506     0.0000 
     74 H           3.6058   68.5113   72.8977 H         1 L2G1506     0.0000 
     75 H           2.8488   71.6525   76.4673 H         1 L2G1506     0.0000 
     76 H           1.3773   68.7530   73.8221 H         1 L2G1506     0.0000 
     77 H           0.9999   70.3375   75.6180 H         1 L2G1506     0.0000 
     78 H          11.5961   69.7091   78.4140 H         1 L2G1506     0.0000 
     79 H          11.5008   70.9583   79.4222 H         1 L2G1506     0.0000 
     80 H          10.4705   69.7315   79.5623 H         1 L2G1506     0.0000 
     81 H           6.9545   69.8442   72.1157 H         1 L2G1506     0.0000 
     82 H           7.2546   68.6832   73.1873 H         1 L2G1506     0.0000 
     83 H           5.9063   68.6405   72.3119 H         1 L2G1506     0.0000 
     84 H          16.6661   85.5362   79.0884 H         1 L2G1506     0.0000 
     85 H          16.3797   85.4747   77.5071 H         1 L2G1506     0.0000 
     86 H          15.5769   84.5052   78.5080 H         1 L2G1506     0.0000 
@<TRIPOS>BOND
     1    2    1 1    
     2    3    1 1    
     3    4    1 2    
     4    5    2 ar   
     5    6    2 ar   
     6    7    3 ar   
     7    8    3 ar   
     8    9    4 1    
     9    9    5 1    
    10   10    5 ar   
    11   11    6 ar   
    12   12    6 1    
    13   13    7 ar   
    14   47    7 1    
    15   14    8 ar   
    16   48    8 1    
    17   15    9 1    
    18   16   10 ar   
    19   16   11 ar   
    20   49   12 1    
    21   50   12 1    
    22   17   13 ar   
    23   18   13 1    
    24   17   14 ar   
    25   51   14 1    
    26   19   15 1    
    27   20   15 1    
    28   52   15 1    
    29   53   16 1    
    30   21   17 1    
    31   22   18 1    
    32   23   19 1    
    33   54   19 1    
    34   55   19 1    
    35   24   20 1    
    36   56   20 1    
    37   57   20 1    
    38   25   21 am   
    39   58   21 1    
    40   78   22 1    
    41   79   22 1    
    42   80   22 1    
    43   26   23 1    
    44   59   23 1    
    45   60   23 1    
    46   26   24 1    
    47   61   24 1    
    48   62   24 1    
    49   27   25 1    
    50   28   25 2    
    51   29   26 1    
    52   63   26 1    
    53   30   27 1    
    54   31   27 2    
    55   32   29 1    
    56   33   29 1    
    57   64   29 1    
    58   34   30 1    
    59   35   30 1    
    60   36   31 1    
    61   65   31 1    
    62   37   32 1    
    63   66   32 1    
    64   67   32 1    
    65   38   33 1    
    66   68   33 1    
    67   69   33 1    
    68   36   34 ar   
    69   39   34 ar   
    70   81   35 1    
    71   82   35 1    
    72   83   35 1    
    73   40   36 ar   
    74   41   37 1    
    75   70   37 1    
    76   71   37 1    
    77   41   38 1    
    78   72   38 1    
    79   73   38 1    
    80   42   39 ar   
    81   74   39 1    
    82   43   40 ar   
    83   75   40 1    
    84   44   41 am   
    85   43   42 ar   
    86   76   42 1    
    87   77   43 1    
    88   45   44 1    
    89   46   44 2    
    90   84   45 1    
    91   85   45 1    
    92   86   45 1    
@<TRIPOS>SUBSTRUCTURE
     1 L2G1506     1 GROUP   
@<TRIPOS>SET

