#    Name: 2ekl_NAD_1_INTS_M
#    Modification time : Tue Mar 25 11:12:11 2014

@<TRIPOS>MOLECULE
2ekl_NAD_1_INTS_M
   90     0     9     0     0
SMALL
NO_CHARGES


@<TRIPOS>ATOM
      1 N          14.6765   35.4620   10.2020 N.am      2 SEC2        0.0000 
      2 N          15.8030   35.9850   11.0090 N.am      8 SEL2        0.0000 
      3 N          13.5500   34.9390    9.3950 N.am      5 SEP2        0.0000 
      4 CA         18.8085   38.9150    9.6905 C.3       3 GLC5        0.0000 
      5 CA         18.2390   37.6560    8.6200 C.3       9 GLL5        0.0000 
      6 CA         19.3780   40.1740   10.7610 C.3       6 GLP5        0.0000 
      7 CA         18.4790   37.0510    5.4315 C.3       3 GLC5        0.0000 
      8 CA         18.8580   36.7430    7.3980 C.3       9 GLL5        0.0000 
      9 CA         18.1000   37.3590    3.4650 C.3       6 GLP5        0.0000 
     10 CA         17.5025   35.0185    7.8890 C.3       3 GLC5        0.0000 
     11 CA         19.6790   35.5420    7.9760 C.3       9 GLL5        0.0000 
     12 CA         15.3260   34.4950    7.8020 C.3       6 GLP5        0.0000 
     13 O          20.3735   33.9400    6.2700 O.2       1 ALC1        0.0000 
     14 O          19.2360   34.2950    7.4440 O.2       7 ALL1        0.0000 
     15 O          21.5110   33.5850    5.0960 O.2       4 ALP1        0.0000 
     16 O          19.3205   34.2420    6.1910 O.2       1 ALC1        0.0000 
     17 O          19.4050   34.1890    4.9380 O.2       4 ALP1        0.0000 
     18 CA         21.7440   33.9410    8.2845 C.3       3 GLC5        0.0000 
     19 CA         21.1200   35.9550    7.6520 C.3       9 GLL5        0.0000 
     20 CA         22.3680   31.9270    8.9170 C.3       6 GLP5        0.0000 
     21 O          21.7985   34.2615    6.3175 O.2       1 ALC1        0.0000 
     22 O          22.0860   34.9380    7.5390 O.2       7 ALL1        0.0000 
     23 CA         19.4730   37.0560    4.9480 C.3       3 GLC5        0.0000 
     24 CA         20.8460   36.7530    6.4310 C.3       9 GLL5        0.0000 
     25 CA         24.6130   37.2200    5.4250 C.3       3 GLC5        0.0000 
     26 CA         23.4760   38.5690    4.6160 C.3       9 GLL5        0.0000 
     27 CA         25.7500   35.8710    6.2340 C.3       6 GLP5        0.0000 
     28 CA         24.9340   37.3280    3.2575 C.3       3 GLC5        0.0000 
     29 CA         24.0250   38.8280    3.2980 C.3       9 GLL5        0.0000 
     30 CA         25.8430   35.8280    3.2170 C.3       6 GLP5        0.0000 
     31 CA         25.1035   40.5600    2.7270 C.3       3 GLC5        0.0000 
     32 CA         26.1820   42.2920    2.1560 C.3       6 GLP5        0.0000 
     33 CA         21.1550   38.5380    1.0020 C.3       3 GLC5        0.0000 
     34 CA         22.2960   37.3520    2.2480 C.3       9 GLL5        0.0000 
     35 CA         20.0140   39.7240   -0.2440 C.3       6 GLP5        0.0000 
     36 CA         20.1980   37.3555    2.8565 C.3       3 GLC5        0.0000 
     37 CA         21.7925   35.5985    2.1705 C.3       3 GLC5        0.0000 
     38 CA         21.2890   33.8450    2.0930 C.3       6 GLP5        0.0000 
     39 CA         24.0695   36.5900    2.7325 C.3       3 GLC5        0.0000 
     40 CA         21.2345   38.8820    2.9345 C.3       3 GLC5        0.0000 
     41 CA         20.1730   40.4120    3.6210 C.3       6 GLP5        0.0000 
     42 CA         20.2210   37.5275    4.0720 C.3       3 GLC5        0.0000 
     43 CA         22.3420   37.6960    4.6790 C.3       9 GLL5        0.0000 
     44 CA         23.6790   36.2765    5.0360 C.3       3 GLC5        0.0000 
     45 CA         25.0160   34.8570    5.3930 C.3       6 GLP5        0.0000 
     46 N          12.8440   37.5820    9.0495 N.am      2 SEC2        0.0000 
     47 N          14.0910   38.2300    9.5160 N.am      8 SEL2        0.0000 
     48 N          11.5970   36.9340    8.5830 N.am      5 SEP2        0.0000 
     49 N          14.4855   37.9520   13.1085 N.am      2 SEC2        0.0000 
     50 N          14.0250   38.8610   11.9470 N.am      8 SEL2        0.0000 
     51 N          14.9460   37.0430   14.2700 N.am      5 SEP2        0.0000 
     52 CA         13.4585   40.9640    9.3200 C.3       3 GLC5        0.0000 
     53 CA         15.4950   40.8630    9.0330 C.3       9 GLL5        0.0000 
     54 CA         11.4220   41.0650    9.6070 C.3       6 GLP5        0.0000 
     55 CA         17.4365   40.5185    9.8970 C.3       3 GLC5        0.0000 
     56 CA         18.0975   41.5375   10.3740 C.3       3 GLC5        0.0000 
     57 CA         16.8170   42.9010    9.9870 C.3       9 GLL5        0.0000 
     58 O          18.3490   43.2430    8.4350 O.2       1 ALC1        0.0000 
     59 O          17.7250   43.8260    9.3690 O.2       7 ALL1        0.0000 
     60 O          18.9730   42.6600    7.5010 O.2       4 ALP1        0.0000 
     61 CA         15.2330   44.8135    8.4440 C.3       3 GLC5        0.0000 
     62 CA         14.9150   44.0980   10.1360 C.3       9 GLL5        0.0000 
     63 CA         15.5510   45.5290    6.7520 C.3       6 GLP5        0.0000 
     64 CA         14.3085   45.6475    8.5685 C.3       3 GLC5        0.0000 
     65 CA         13.0660   45.7660   10.3850 C.3       9 GLL5        0.0000 
     66 O          12.1505   47.0790    8.4105 O.2       1 ALC1        0.0000 
     67 O          11.3660   48.0460    9.3920 O.2       7 ALL1        0.0000 
     68 O          12.9350   46.1120    7.4290 O.2       4 ALP1        0.0000 
     69 O          10.5285   49.0510    8.9720 O.2       1 ALC1        0.0000 
     70 O           9.6910   50.0560    8.5520 O.2       4 ALP1        0.0000 
     71 CA          9.7465   46.0345   13.3745 C.3       3 GLC5        0.0000 
     72 CA         11.1350   45.2220   11.8780 C.3       9 GLL5        0.0000 
     73 CA          8.3580   46.8470   14.8710 C.3       6 GLP5        0.0000 
     74 CA         16.9372   35.8473    7.9055 C.3       3 GLC5        0.0000 
     75 CA         18.8588   39.0528    6.9395 C.3       3 GLC5        0.0000 
     76 CA         19.1690   40.9060    5.8700 C.3       6 GLP5        0.0000 
     77 CA         21.6096   39.3046    3.9695 C.3       3 GLC5        0.0000 
     78 CA         15.6082   41.3835    6.8420 C.3       3 GLC5        0.0000 
     79 CA         15.5710   41.1630    4.6910 C.3       6 GLP5        0.0000 
     80 CA         16.3498   43.5325    7.7680 C.3       3 GLC5        0.0000 
     81 CA         15.7960   42.3450    8.9530 C.3       9 GLL5        0.0000 
     82 CA         16.3930   44.4420    6.0660 C.3       6 GLP5        0.0000 
     83 CA         11.8242   45.5970   13.3822 C.3       3 GLC5        0.0000 
     84 CA         11.8160   46.1620   10.9470 C.3       9 GLL5        0.0000 
     85 CA         12.1730   45.5020   15.3520 C.3       6 GLP5        0.0000 
     86 CA         12.2492   44.6255   13.6428 C.3       3 GLC5        0.0000 
     87 CA         11.6980   43.9300   12.2260 C.3       9 GLL5        0.0000 
     88 CA         10.1569   44.0225   10.7146 C.3       3 GLC5        0.0000 
     89 CA          8.7270   43.2340    9.6100 C.3       6 GLP5        0.0000 
     90 CA         11.8738   42.4070   10.7702 C.3       3 GLC5        0.0000 
@<TRIPOS>BOND
@<TRIPOS>SUBSTRUCTURE
     1 ALC1       13 GROUP        1 X    ALC  0     ROOT ALC X 1
     2 SEC2        1 GROUP        1 X    SEC  0     **** SEC X 2
     3 GLC5        4 GROUP        1 X    GLC  0     **** GLC X 6
     4 ALP1       15 GROUP        1 Y    ALP  0     ROOT ALP Y 8
     5 SEP2        3 GROUP        1 Y    SEP  0     **** SEP Y 9
     6 GLP5        6 GROUP        1 Y    GLP  0     **** GLP Y 13
     7 ALL1       14 GROUP        1 Z    ALL  0     ROOT ALL Z 15
     8 SEL2        2 GROUP        1 Z    SEL  0     **** SEL Z 16
     9 GLL5        5 GROUP        1 Z    GLL  0     **** GLL Z 20
@<TRIPOS>SET

