#    Name: 2ekl_NAD_1_ligand
#    Modification time : Tue Mar 25 11:12:11 2014

@<TRIPOS>MOLECULE
2ekl_NAD_1_ligand
   70    74     1     0     0
SMALL
NO_CHARGES


@<TRIPOS>ATOM
      1 PA         16.8350   36.9970   10.7210 P.3       1 NAD1300     0.0000 
      2 O1A        15.8030   35.9850   11.0090 O.co2     1 NAD1300     0.0000 
      3 O2A        18.0730   36.9730   11.6020 O.co2     1 NAD1300     0.0000 
      4 O5B        17.2240   36.8340    9.1750 O.3       1 NAD1300     0.0000 
      5 C5B        18.2390   37.6560    8.6200 C.3       1 NAD1300     0.0000 
      6 C4B        18.8580   36.7430    7.3980 C.3       1 NAD1300     0.0000 
      7 O4B        19.6190   37.5530    6.4870 O.3       1 NAD1300     0.0000 
      8 C3B        19.6790   35.5420    7.9760 C.3       1 NAD1300     0.0000 
      9 O3B        19.2360   34.2950    7.4440 O.3       1 NAD1300     0.0000 
     10 C2B        21.1200   35.9550    7.6520 C.3       1 NAD1300     0.0000 
     11 O2B        22.0860   34.9380    7.5390 O.3       1 NAD1300     0.0000 
     12 C1B        20.8460   36.7530    6.4310 C.3       1 NAD1300     0.0000 
     13 N9A        22.0010   37.5970    5.9880 N.pl3     1 NAD1300     0.0000 
     14 C8A        22.8860   38.3790    6.7160 C.2       1 NAD1300     0.0000 
     15 N7A        23.7740   38.9610    5.8760 N.2       1 NAD1300     0.0000 
     16 C5A        23.4760   38.5690    4.6160 C.ar      1 NAD1300     0.0000 
     17 C6A        24.0250   38.8280    3.2980 C.ar      1 NAD1300     0.0000 
     18 N6A        25.0730   39.6200    3.1390 N.pl3     1 NAD1300     0.0000 
     19 N1A        23.4310   38.2200    2.1410 N.ar      1 NAD1300     0.0000 
     20 C2A        22.2960   37.3520    2.2480 C.ar      1 NAD1300     0.0000 
     21 N3A        21.7580   37.0960    3.5310 N.ar      1 NAD1300     0.0000 
     22 C4A        22.3420   37.6960    4.6790 C.ar      1 NAD1300     0.0000 
     23 O3         16.2030   38.4700   10.8810 O.3       1 NAD1300     0.0000 
     24 PN         14.6970   38.9880   10.6210 P.3       1 NAD1300     0.0000 
     25 O1N        14.0910   38.2300    9.5160 O.co2     1 NAD1300     0.0000 
     26 O2N        14.0250   38.8610   11.9470 O.co2     1 NAD1300     0.0000 
     27 O5D        15.0360   40.4970   10.3170 O.3       1 NAD1300     0.0000 
     28 C5D        15.4950   40.8630    9.0330 C.3       1 NAD1300     0.0000 
     29 C4D        15.7960   42.3450    8.9530 C.3       1 NAD1300     0.0000 
     30 O4D        14.6340   43.1330    9.1370 O.3       1 NAD1300     0.0000 
     31 C3D        16.8170   42.9010    9.9870 C.3       1 NAD1300     0.0000 
     32 O3D        17.7250   43.8260    9.3690 O.3       1 NAD1300     0.0000 
     33 C2D        15.9530   43.4940   11.0400 C.3       1 NAD1300     0.0000 
     34 O2D        16.6690   44.3300   11.9280 O.3       1 NAD1300     0.0000 
     35 C1D        14.9150   44.0980   10.1360 C.3       1 NAD1300     0.0000 
     36 N1N        13.6080   44.4900   10.7360 N.pl3     1 NAD1300     0.0000 
     37 C2N        13.0660   45.7660   10.3850 C.ar      1 NAD1300     0.0000 
     38 C3N        11.8160   46.1620   10.9470 C.ar      1 NAD1300     0.0000 
     39 C7N        11.2450   47.4800   10.5840 C.2       1 NAD1300     0.0000 
     40 O7N        10.5630   48.1340   11.5390 O.2       1 NAD1300     0.0000 
     41 N7N        11.3660   48.0460    9.3920 N.am      1 NAD1300     0.0000 
     42 C4N        11.1350   45.2220   11.8780 C.ar      1 NAD1300     0.0000 
     43 C5N        11.6980   43.9300   12.2260 C.ar      1 NAD1300     0.0000 
     44 C6N        12.9530   43.5680   11.6410 C.ar      1 NAD1300     0.0000 
     45 H          19.0595   37.8396    9.2715 H         1 NAD1300     0.0000 
     46 H          17.8793   38.5400    8.1504 H         1 NAD1300     0.0000 
     47 H          17.9719   36.3178    6.9036 H         1 NAD1300     0.0000 
     48 H          19.5622   35.6174    9.0548 H         1 NAD1300     0.0000 
     49 H          21.3690   36.7044    8.4379 H         1 NAD1300     0.0000 
     50 H          20.6907   35.9985    5.5828 H         1 NAD1300     0.0000 
     51 H          22.8572   38.4804    7.6753 H         1 NAD1300     0.0000 
     52 H          25.3622   39.7831    2.1957 H         1 NAD1300     0.0000 
     53 H          25.4808   39.9836    3.9765 H         1 NAD1300     0.0000 
     54 H          21.8957   36.9370    1.4221 H         1 NAD1300     0.0000 
     55 H          14.7492   40.6297    8.2492 H         1 NAD1300     0.0000 
     56 H          16.4180   40.3182    8.7570 H         1 NAD1300     0.0000 
     57 H          16.2223   42.5702    7.9598 H         1 NAD1300     0.0000 
     58 H          17.3192   42.0363   10.3970 H         1 NAD1300     0.0000 
     59 H          15.4725   42.6414   11.5342 H         1 NAD1300     0.0000 
     60 H          15.3552   44.9772    9.6448 H         1 NAD1300     0.0000 
     61 H          13.5600   46.3741    9.7512 H         1 NAD1300     0.0000 
     62 H          10.9517   48.9504    9.2902 H         1 NAD1300     0.0000 
     63 H          11.8607   47.5175    8.7021 H         1 NAD1300     0.0000 
     64 H          10.2424   45.5093   12.2776 H         1 NAD1300     0.0000 
     65 H          11.2190   43.3219   12.8525 H         1 NAD1300     0.0000 
     66 H          13.3833   42.6817   11.8518 H         1 NAD1300     0.0000 
     67 H          19.7636   34.1702    6.6037 H         1 NAD1300     0.0000 
     68 H          21.7398   34.3306    6.8239 H         1 NAD1300     0.0000 
     69 H          18.5038   43.2696    9.0794 H         1 NAD1300     0.0000 
     70 H          17.5449   44.4979   11.4756 H         1 NAD1300     0.0000 
@<TRIPOS>BOND
     1    2    1 ar   
     2    3    1 ar   
     3    4    1 1    
     4   23    1 1    
     5    5    4 1    
     6    6    5 1    
     7   45    5 1    
     8   46    5 1    
     9    7    6 1    
    10    8    6 1    
    11   47    6 1    
    12   12    7 1    
    13    9    8 1    
    14   10    8 1    
    15   48    8 1    
    16   67    9 1    
    17   11   10 1    
    18   12   10 1    
    19   49   10 1    
    20   68   11 1    
    21   13   12 1    
    22   50   12 1    
    23   14   13 1    
    24   22   13 1    
    25   15   14 2    
    26   51   14 1    
    27   16   15 1    
    28   17   16 ar   
    29   22   16 ar   
    30   18   17 1    
    31   19   17 ar   
    32   52   18 1    
    33   53   18 1    
    34   20   19 ar   
    35   21   20 ar   
    36   54   20 1    
    37   22   21 ar   
    38   24   23 1    
    39   25   24 ar   
    40   26   24 ar   
    41   27   24 1    
    42   28   27 1    
    43   29   28 1    
    44   55   28 1    
    45   56   28 1    
    46   30   29 1    
    47   31   29 1    
    48   57   29 1    
    49   35   30 1    
    50   32   31 1    
    51   33   31 1    
    52   58   31 1    
    53   69   32 1    
    54   34   33 1    
    55   35   33 1    
    56   59   33 1    
    57   70   34 1    
    58   36   35 1    
    59   60   35 1    
    60   37   36 ar   
    61   44   36 ar   
    62   38   37 ar   
    63   61   37 1    
    64   39   38 1    
    65   42   38 ar   
    66   40   39 2    
    67   41   39 am   
    68   62   41 1    
    69   63   41 1    
    70   43   42 ar   
    71   64   42 1    
    72   44   43 ar   
    73   65   43 1    
    74   66   44 1    
@<TRIPOS>SUBSTRUCTURE
     1 NAD1300     1 GROUP   
@<TRIPOS>SET

