#    Name: 3bmy_CXZ_1_INTS_M
#    Modification time : Mon Mar 24 19:54:54 2014

@<TRIPOS>MOLECULE
3bmy_CXZ_1_INTS_M
   51     0     9     0     0
SMALL
NO_CHARGES


@<TRIPOS>ATOM
      1 CA         -1.4585    6.1900   20.8515 C.3       3 GLC5        0.0000 
      2 CA         -0.4850    4.5650   21.9250 C.3       9 GLL5        0.0000 
      3 CA         -2.4320    7.8150   19.7780 C.3       6 GLP5        0.0000 
      4 CA         -0.5880    7.0330   21.6590 C.3       3 GLC5        0.0000 
      5 CA          0.5220    5.3270   22.5790 C.3       9 GLL5        0.0000 
      6 CA         -1.6980    8.7390   20.7390 C.3       6 GLP5        0.0000 
      7 CA          1.8215    2.3125   22.1400 C.3       3 GLC5        0.0000 
      8 CA          1.1510    3.5140   20.5020 C.3       9 GLL5        0.0000 
      9 CA          2.4920    1.1110   23.7780 C.3       6 GLP5        0.0000 
     10 CA         -1.2395    0.2310   21.1345 C.3       3 GLC5        0.0000 
     11 CA         -0.7560    1.5420   19.6840 C.3       9 GLL5        0.0000 
     12 CA         -1.7230   -1.0800   22.5850 C.3       6 GLP5        0.0000 
     13 CA          2.2265    4.3245   15.5195 C.3       3 GLC5        0.0000 
     14 CA          0.5700    3.9580   16.4120 C.3       9 GLL5        0.0000 
     15 CA          3.8830    4.6910   14.6270 C.3       6 GLP5        0.0000 
     16 CA          0.6305    5.8640   15.9060 C.3       3 GLC5        0.0000 
     17 CA          0.6910    7.7700   15.4000 C.3       6 GLP5        0.0000 
     18 N           5.3975    4.8345   22.5995 N.am      2 SEC2        0.0000 
     19 N           4.0630    5.2240   21.8760 N.am      8 SEL2        0.0000 
     20 N           6.7320    4.4450   23.3230 N.am      5 SEP2        0.0000 
     21 CA          7.6775    1.3095   18.5600 C.3       3 GLC5        0.0000 
     22 CA          5.8560    2.1680   18.1410 C.3       9 GLL5        0.0000 
     23 CA          9.4990    0.4510   18.9790 C.3       6 GLP5        0.0000 
     24 O           6.9950    5.9220   19.4190 O.2       1 ALC1        0.0000 
     25 O           5.8090    5.4970   19.6780 O.2       7 ALL1        0.0000 
     26 O           8.1810    6.3470   19.1600 O.2       4 ALP1        0.0000 
     27 CA          3.3865   -1.6240   19.4415 C.3       3 GLC5        0.0000 
     28 CA          4.2800   -0.0360   18.4130 C.3       9 GLL5        0.0000 
     29 CA          2.4930   -3.2120   20.4700 C.3       6 GLP5        0.0000 
     30 CA          5.0370   -1.3000   17.8570 C.3       3 GLC5        0.0000 
     31 CA          5.7940   -2.5640   17.3010 C.3       6 GLP5        0.0000 
     32 CA          1.1763    3.8100   23.4575 C.3       3 GLC5        0.0000 
     33 CA          2.3340    2.6740   24.6630 C.3       6 GLP5        0.0000 
     34 CA          1.3237    6.9605   22.9065 C.3       3 GLC5        0.0000 
     35 CA          1.4730    8.6950   23.4590 C.3       6 GLP5        0.0000 
     36 CA          2.9410    6.3238   20.6505 C.3       3 GLC5        0.0000 
     37 CA          1.8270    5.1250   22.1290 C.3       9 GLL5        0.0000 
     38 CA          3.8890    7.9620   19.6760 C.3       6 GLP5        0.0000 
     39 CA          2.1635    3.6797   23.1440 C.3       3 GLC5        0.0000 
     40 CA          4.4053    5.9387   19.6892 C.3       3 GLC5        0.0000 
     41 CA          4.3700    3.6220   20.0190 C.3       9 GLL5        0.0000 
     42 CA          4.2180    2.0420   21.6385 C.3       3 GLC5        0.0000 
     43 CA          4.2410    1.1250   23.4190 C.3       6 GLP5        0.0000 
     44 CA          4.7730    2.5882   16.8072 C.3       3 GLC5        0.0000 
     45 CA          4.2410    3.3030   15.1620 C.3       6 GLP5        0.0000 
     46 CA          5.0437    3.5765   17.0385 C.3       3 GLC5        0.0000 
     47 CA          6.2200    3.4910   18.4440 C.3       9 GLL5        0.0000 
     48 CA          6.1107    5.4665   17.5790 C.3       3 GLC5        0.0000 
     49 CA          6.3750    7.0830   16.2430 C.3       6 GLP5        0.0000 
     50 CA          6.7684    3.2721   20.5956 C.3       3 GLC5        0.0000 
     51 CA          7.9660    2.8410   22.1180 C.3       6 GLP5        0.0000 
@<TRIPOS>BOND
@<TRIPOS>SUBSTRUCTURE
     1 ALC1       24 GROUP        1 X    ALC  0     ROOT ALC X 1
     2 SEC2       18 GROUP        1 X    SEC  0     **** SEC X 2
     3 GLC5        1 GROUP        1 X    GLC  0     **** GLC X 6
     4 ALP1       26 GROUP        1 Y    ALP  0     ROOT ALP Y 8
     5 SEP2       20 GROUP        1 Y    SEP  0     **** SEP Y 9
     6 GLP5        3 GROUP        1 Y    GLP  0     **** GLP Y 13
     7 ALL1       25 GROUP        1 Z    ALL  0     ROOT ALL Z 15
     8 SEL2       19 GROUP        1 Z    SEL  0     **** SEL Z 16
     9 GLL5        2 GROUP        1 Z    GLL  0     **** GLL Z 20
@<TRIPOS>SET

