#    Name: 3bmy_CXZ_1_ligand
#    Modification time : Mon Mar 24 19:54:54 2014

@<TRIPOS>MOLECULE
3bmy_CXZ_1_ligand
   48    51     1     0     0
SMALL
NO_CHARGES


@<TRIPOS>ATOM
      1 C1         -0.4850    4.5650   21.9250 C.ar      1 CXZ1        0.0000 
      2 C2          0.5220    5.3270   22.5790 C.ar      1 CXZ1        0.0000 
      3 C3          1.8270    5.1250   22.1290 C.ar      1 CXZ1        0.0000 
      4 C4          2.1590    4.2460   21.1210 C.ar      1 CXZ1        0.0000 
      5 C5          1.1510    3.5140   20.5020 C.ar      1 CXZ1        0.0000 
      6 C6         -0.1740    3.6530   20.8940 C.ar      1 CXZ1        0.0000 
      7 N1         -1.0830    2.8710   20.2320 N.pl3     1 CXZ1        0.0000 
      8 C7         -0.7560    1.5420   19.6840 C.3       1 CXZ1        0.0000 
      9 C8         -1.3900    1.2910   18.3290 C.3       1 CXZ1        0.0000 
     10 N2         -0.6190    1.9400   17.2350 N.4       1 CXZ1        0.0000 
     11 C9         -1.3690    1.9210   15.9050 C.3       1 CXZ1        0.0000 
     12 C10        -0.4980    2.5780   14.8400 C.3       1 CXZ1        0.0000 
     13 O1         -0.1870    3.9180   15.1990 O.3       1 CXZ1        0.0000 
     14 C11         0.5700    3.9580   16.4120 C.3       1 CXZ1        0.0000 
     15 C12        -0.2000    3.3940   17.5500 C.3       1 CXZ1        0.0000 
     16 C13         3.5570    4.3440   20.9910 C.2       1 CXZ1        0.0000 
     17 N3          4.0630    5.2240   21.8760 N.2       1 CXZ1        0.0000 
     18 O2          2.9650    5.7120   22.5900 O.3       1 CXZ1        0.0000 
     19 C14         4.3700    3.6220   20.0190 C.ar      1 CXZ1        0.0000 
     20 C15         4.0200    2.2960   19.6970 C.ar      1 CXZ1        0.0000 
     21 C16         4.7540    1.5790   18.7640 C.ar      1 CXZ1        0.0000 
     22 C17         5.8560    2.1680   18.1410 C.ar      1 CXZ1        0.0000 
     23 C18         6.2200    3.4910   18.4440 C.ar      1 CXZ1        0.0000 
     24 C19         5.4730    4.2090   19.3860 C.ar      1 CXZ1        0.0000 
     25 O3          5.8090    5.4970   19.6780 O.3       1 CXZ1        0.0000 
     26 O4          6.6010    1.4940   17.2060 O.3       1 CXZ1        0.0000 
     27 CL          4.2800   -0.0360   18.4130 Cl        1 CXZ1        0.0000 
     28 H          -1.4681    4.6855   22.2155 H         1 CXZ1        0.0000 
     29 H           0.2966    5.9608   23.3100 H         1 CXZ1        0.0000 
     30 H           1.3926    2.8576   19.7396 H         1 CXZ1        0.0000 
     31 H          -2.0632    3.1922   20.0866 H         1 CXZ1        0.0000 
     32 H          -1.0917    0.7513   20.3786 H         1 CXZ1        0.0000 
     33 H           0.3385    1.4311   19.5834 H         1 CXZ1        0.0000 
     34 H          -2.4179    1.6761   18.3427 H         1 CXZ1        0.0000 
     35 H          -1.4431    0.2078   18.1586 H         1 CXZ1        0.0000 
     36 H           0.3214    1.3745   17.0731 H         1 CXZ1        0.0000 
     37 H          -2.2933    2.4719   16.0058 H         1 CXZ1        0.0000 
     38 H          -1.5744    0.8982   15.6229 H         1 CXZ1        0.0000 
     39 H          -1.0442    2.5275   13.8847 H         1 CXZ1        0.0000 
     40 H           0.4098    1.9645   14.7266 H         1 CXZ1        0.0000 
     41 H           0.8597    4.9969   16.6613 H         1 CXZ1        0.0000 
     42 H           1.5133    3.3885   16.3064 H         1 CXZ1        0.0000 
     43 H           0.4036    3.3859   18.4554 H         1 CXZ1        0.0000 
     44 H          -1.1012    3.9767   17.7299 H         1 CXZ1        0.0000 
     45 H           3.2100    1.8636   20.1640 H         1 CXZ1        0.0000 
     46 H           7.0199    3.9216   17.9816 H         1 CXZ1        0.0000 
     47 H           6.7587    5.5907   19.3790 H         1 CXZ1        0.0000 
     48 H           6.9399    0.6822   17.6816 H         1 CXZ1        0.0000 
@<TRIPOS>BOND
     1    2    1 ar   
     2    6    1 ar   
     3   28    1 1    
     4    3    2 ar   
     5   29    2 1    
     6    4    3 ar   
     7   18    3 1    
     8    5    4 ar   
     9   16    4 1    
    10    6    5 ar   
    11   30    5 1    
    12    7    6 1    
    13    8    7 1    
    14   31    7 1    
    15    9    8 1    
    16   32    8 1    
    17   33    8 1    
    18   10    9 1    
    19   34    9 1    
    20   35    9 1    
    21   11   10 1    
    22   15   10 1    
    23   36   10 1    
    24   12   11 1    
    25   37   11 1    
    26   38   11 1    
    27   13   12 1    
    28   39   12 1    
    29   40   12 1    
    30   14   13 1    
    31   15   14 1    
    32   41   14 1    
    33   42   14 1    
    34   43   15 1    
    35   44   15 1    
    36   17   16 2    
    37   19   16 1    
    38   18   17 1    
    39   20   19 ar   
    40   24   19 ar   
    41   21   20 ar   
    42   45   20 1    
    43   22   21 ar   
    44   27   21 1    
    45   23   22 ar   
    46   26   22 1    
    47   24   23 ar   
    48   46   23 1    
    49   25   24 1    
    50   47   25 1    
    51   48   26 1    
@<TRIPOS>SUBSTRUCTURE
     1 CXZ1        1 GROUP   
@<TRIPOS>SET

