#    Name: 2zm4_KSM_1_INTS_M
#    Modification time : Tue Mar 25 10:50:09 2014

@<TRIPOS>MOLECULE
2zm4_KSM_1_INTS_M
   64     0    12     0     0
SMALL
NO_CHARGES


@<TRIPOS>ATOM
      1 CA         17.1095   36.5645    9.3615 C.3       4 GLC5        0.0000 
      2 CA         18.9640   35.4930    9.3230 C.3      12 GLL5        0.0000 
      3 CA         15.2550   37.6360    9.4000 C.3       8 GLP5        0.0000 
      4 CA         19.5995   34.3340   10.4050 C.3       4 GLC5        0.0000 
      5 CA         20.2350   33.1750   11.4870 C.3       8 GLP5        0.0000 
      6 CA         18.3795   33.5680    8.8060 C.3       4 GLC5        0.0000 
      7 CA         17.7950   31.6430    8.2890 C.3       8 GLP5        0.0000 
      8 CA         18.3000   38.1230    7.5585 C.3       4 GLC5        0.0000 
      9 CA         19.0910   36.0620    7.6250 C.3      12 GLL5        0.0000 
     10 CA         17.5090   40.1840    7.4920 C.3       8 GLP5        0.0000 
     11 CA         16.2815   36.4755    7.2940 C.3       4 GLC5        0.0000 
     12 CA         18.0980   35.5950    6.7700 C.3      12 GLL5        0.0000 
     13 CA         14.4650   37.3560    7.8180 C.3       8 GLP5        0.0000 
     14 CA         17.9465   33.6190    7.5295 C.3       4 GLC5        0.0000 
     15 CA         18.8010   38.7530    6.5785 C.3       4 GLC5        0.0000 
     16 CA         20.0930   37.3220    5.6650 C.3      12 GLL5        0.0000 
     17 CA         20.9635   38.1675    3.2945 C.3       4 GLC5        0.0000 
     18 CA         21.1340   38.2470    5.0580 C.3      12 GLL5        0.0000 
     19 CA         20.7930   38.0880    1.5310 C.3       8 GLP5        0.0000 
     20 CA         19.4885   38.8250    7.7125 C.3       4 GLC5        0.0000 
     21 CA         20.1910   36.9710    7.1140 C.3      12 GLL5        0.0000 
     22 CA         18.7860   40.6790    8.3110 C.3       8 GLP5        0.0000 
     23 O          20.6105   38.7465    7.8770 O.2       1 ALC1        0.0000 
     24 O          21.2450   37.5150    7.8530 O.2       9 ALL1        0.0000 
     25 O          19.9760   39.9780    7.9010 O.2       5 ALP1        0.0000 
     26 CA         24.0375   40.3905   10.7120 C.3       4 GLC5        0.0000 
     27 CA         23.7350   38.5590    9.7990 C.3      12 GLL5        0.0000 
     28 CA         24.3400   42.2220   11.6250 C.3       8 GLP5        0.0000 
     29 CA         23.7315   38.4060   11.8510 C.3       4 GLC5        0.0000 
     30 CA         23.7280   38.2530   13.9030 C.3       8 GLP5        0.0000 
     31 N          25.1845   39.4315   11.4685 N.am      2 SEC2        0.0000 
     32 N          25.0220   38.5500   10.2650 N.am     10 SEL2        0.0000 
     33 N          25.3470   40.3130   12.6720 N.am      6 SEP2        0.0000 
     34 CA         28.0430   36.7800    7.3345 C.3       4 GLC5        0.0000 
     35 CA         26.4900   35.3720    7.7820 C.3      12 GLL5        0.0000 
     36 CA         29.5960   38.1880    6.8870 C.3       8 GLP5        0.0000 
     37 CA         25.7205   34.4325    9.6100 C.3       4 GLC5        0.0000 
     38 CA         24.9510   33.4930   11.4380 C.3       8 GLP5        0.0000 
     39 OD1        31.0185   31.0480    8.3020 O.co2     3 ASC3        0.0000 
     40 OD1        30.2600   32.0720    6.9510 O.co2    11 ASL3        0.0000 
     41 OD1        31.7770   30.0240    9.6530 O.co2     7 ASP3        0.0000 
     42 CA         19.1273   36.8383   10.0120 C.3       4 GLC5        0.0000 
     43 CA         19.2270   37.8990   11.5500 C.3       8 GLP5        0.0000 
     44 CA         17.4982   38.0622    4.5125 C.3       4 GLC5        0.0000 
     45 CA         19.0440   36.7850    4.8920 C.3      12 GLL5        0.0000 
     46 CA         16.4340   39.7620    3.8640 C.3       8 GLP5        0.0000 
     47 CA         19.7724   36.2381    3.6450 C.3       4 GLC5        0.0000 
     48 CA         18.0810   35.9400    5.4300 C.3      12 GLL5        0.0000 
     49 CA         20.2170   35.6340    1.8770 C.3       8 GLP5        0.0000 
     50 CA         23.9155   39.5140    8.2115 C.3       4 GLC5        0.0000 
     51 CA         23.6450   37.5490    8.7750 C.3      12 GLL5        0.0000 
     52 CA         24.1410   40.9740    7.1360 C.3       8 GLP5        0.0000 
     53 CA         23.5760   36.7005   10.2785 C.3       4 GLC5        0.0000 
     54 CA         23.4620   35.3470   11.2700 C.3       8 GLP5        0.0000 
     55 CA         24.9580   36.2007    5.2373 C.3       4 GLC5        0.0000 
     56 CA         24.1150   35.4340    6.9380 C.3      12 GLL5        0.0000 
     57 CA         25.6570   37.4940    3.9840 C.3       8 GLP5        0.0000 
     58 CA         24.0620   35.5218    9.3322 C.3       4 GLC5        0.0000 
     59 CA         25.9355   35.7835    5.2090 C.3       4 GLC5        0.0000 
     60 CA         26.7340   34.3120    6.8560 C.3      12 GLL5        0.0000 
     61 CA         25.7533   36.5798    5.9002 C.3       4 GLC5        0.0000 
     62 CA         28.7025   32.1212    9.6795 C.3       4 GLC5        0.0000 
     63 CA         28.7170   33.6700    8.1180 C.3      12 GLL5        0.0000 
     64 CA         27.9930   30.8940   11.2670 C.3       8 GLP5        0.0000 
@<TRIPOS>BOND
@<TRIPOS>SUBSTRUCTURE
     1 ALC1       23 GROUP        1 X    ALC  0     ROOT ALC X 1
     2 SEC2       31 GROUP        1 X    SEC  0     **** SEC X 2
     3 ASC3       39 GROUP        1 X    ASC  0     **** ASC X 3
     4 GLC5        1 GROUP        1 X    GLC  0     **** GLC X 6
     5 ALP1       25 GROUP        1 Y    ALP  0     ROOT ALP Y 8
     6 SEP2       33 GROUP        1 Y    SEP  0     **** SEP Y 9
     7 ASP3       41 GROUP        1 Y    ASP  0     **** ASP Y 10
     8 GLP5        3 GROUP        1 Y    GLP  0     **** GLP Y 13
     9 ALL1       24 GROUP        1 Z    ALL  0     ROOT ALL Z 15
    10 SEL2       32 GROUP        1 Z    SEL  0     **** SEL Z 16
    11 ASL3       40 GROUP        1 Z    ASL  0     **** ASL Z 17
    12 GLL5        2 GROUP        1 Z    GLL  0     **** GLL Z 20
@<TRIPOS>SET

