#    Name: 2zm4_KSM_1_ligand
#    Modification time : Tue Mar 25 10:50:09 2014

@<TRIPOS>MOLECULE
2zm4_KSM_1_ligand
   51    55     1     0     0
SMALL
NO_CHARGES


@<TRIPOS>ATOM
      1 CL24       18.9640   35.4930    9.3230 Cl        1 KSM604      0.0000 
      2 C12        19.0910   36.0620    7.6250 C.ar      1 KSM604      0.0000 
      3 C13        18.0980   35.5950    6.7700 C.ar      1 KSM604      0.0000 
      4 C14        18.0810   35.9400    5.4300 C.ar      1 KSM604      0.0000 
      5 C15        19.0440   36.7850    4.8920 C.ar      1 KSM604      0.0000 
      6 C16        20.0930   37.3220    5.6650 C.ar      1 KSM604      0.0000 
      7 C20        21.1340   38.2470    5.0580 C.3       1 KSM604      0.0000 
      8 C11        20.1910   36.9710    7.1140 C.ar      1 KSM604      0.0000 
      9 N10        21.2450   37.5150    7.8530 N.pl3     1 KSM604      0.0000 
     10 C9         22.5460   37.0230    7.8500 C.2       1 KSM604      0.0000 
     11 C4         23.6450   37.5490    8.7750 C.2       1 KSM604      0.0000 
     12 C5         23.7350   38.5590    9.7990 C.2       1 KSM604      0.0000 
     13 N1         25.0220   38.5500   10.2650 N.2       1 KSM604      0.0000 
     14 N8         22.8650   35.9980    6.9820 N.2       1 KSM604      0.0000 
     15 C7         24.1150   35.4340    6.9380 C.ar      1 KSM604      0.0000 
     16 C27        24.4030   34.3810    6.0430 C.ar      1 KSM604      0.0000 
     17 C28        25.6940   33.8340    6.0120 C.ar      1 KSM604      0.0000 
     18 C29        26.7340   34.3120    6.8560 C.ar      1 KSM604      0.0000 
     19 C26        26.4900   35.3720    7.7820 C.ar      1 KSM604      0.0000 
     20 C6         25.2090   35.9590    7.8510 C.ar      1 KSM604      0.0000 
     21 N3         24.8910   37.0130    8.7310 N.pl3     1 KSM604      0.0000 
     22 C2         25.7320   37.5970    9.6080 C.2       1 KSM604      0.0000 
     23 N30        28.0310   33.7260    6.8160 N.3       1 KSM604      0.0000 
     24 C35        28.6100   33.2060    5.5630 C.3       1 KSM604      0.0000 
     25 C34        29.2460   31.8760    5.9340 C.3       1 KSM604      0.0000 
     26 N33        30.2600   32.0720    6.9510 N.4       1 KSM604      0.0000 
     27 C32        30.1070   33.0270    8.0660 C.3       1 KSM604      0.0000 
     28 C43        31.1870   34.1270    8.1570 C.3       1 KSM604      0.0000 
     29 C31        28.7170   33.6700    8.1180 C.3       1 KSM604      0.0000 
     30 H          17.3555   34.9748    7.1482 H         1 KSM604      0.0000 
     31 H          17.3364   35.5620    4.8135 H         1 KSM604      0.0000 
     32 H          18.9962   37.0356    3.8817 H         1 KSM604      0.0000 
     33 H          21.0361   38.3602    8.4561 H         1 KSM604      0.0000 
     34 H          23.0191   39.1008   10.0664 H         1 KSM604      0.0000 
     35 H          23.6750   34.0237    5.4253 H         1 KSM604      0.0000 
     36 H          25.9044   33.0595    5.3586 H         1 KSM604      0.0000 
     37 H          27.2412   35.6963    8.3851 H         1 KSM604      0.0000 
     38 H          26.6533   37.3849    9.7456 H         1 KSM604      0.0000 
     39 H          29.3695   33.8659    5.1888 H         1 KSM604      0.0000 
     40 H          27.8455   33.0366    4.8287 H         1 KSM604      0.0000 
     41 H          29.6770   31.4369    5.0269 H         1 KSM604      0.0000 
     42 H          28.4555   31.2050    6.2894 H         1 KSM604      0.0000 
     43 H          30.1936   32.4476    9.0368 H         1 KSM604      0.0000 
     44 H          28.1064   33.1029    8.8494 H         1 KSM604      0.0000 
     45 H          28.8291   34.6904    8.5370 H         1 KSM604      0.0000 
     46 H          21.8084   38.5421    5.7348 H         1 KSM604      0.0000 
     47 H          21.6376   37.8036    4.3165 H         1 KSM604      0.0000 
     48 H          20.7195   39.0737    4.6775 H         1 KSM604      0.0000 
     49 H          32.1018   33.7405    8.2742 H         1 KSM604      0.0000 
     50 H          31.2112   34.6928    7.3328 H         1 KSM604      0.0000 
     51 H          31.0272   34.7414    8.9297 H         1 KSM604      0.0000 
@<TRIPOS>BOND
     1    2    1 1    
     2    3    2 ar   
     3    8    2 ar   
     4    4    3 ar   
     5   30    3 1    
     6    5    4 ar   
     7   31    4 1    
     8    6    5 ar   
     9   32    5 1    
    10    7    6 1    
    11    8    6 ar   
    12   46    7 1    
    13   47    7 1    
    14   48    7 1    
    15    9    8 1    
    16   10    9 1    
    17   33    9 1    
    18   11   10 1    
    19   14   10 2    
    20   12   11 2    
    21   21   11 1    
    22   13   12 1    
    23   34   12 1    
    24   22   13 2    
    25   15   14 1    
    26   16   15 ar   
    27   20   15 ar   
    28   17   16 ar   
    29   35   16 1    
    30   18   17 ar   
    31   36   17 1    
    32   19   18 ar   
    33   23   18 1    
    34   20   19 ar   
    35   37   19 1    
    36   21   20 1    
    37   22   21 1    
    38   38   22 1    
    39   24   23 1    
    40   29   23 1    
    41   25   24 1    
    42   39   24 1    
    43   40   24 1    
    44   26   25 1    
    45   41   25 1    
    46   42   25 1    
    47   27   26 1    
    48   28   27 1    
    49   29   27 1    
    50   43   27 1    
    51   49   28 1    
    52   50   28 1    
    53   51   28 1    
    54   44   29 1    
    55   45   29 1    
@<TRIPOS>SUBSTRUCTURE
     1 KSM604      1 GROUP   
@<TRIPOS>SET

