#    Name: 3pyy_STI_3_INTS_M
#    Modification time : Tue Mar 25 08:43:47 2014

@<TRIPOS>MOLECULE
3pyy_STI_3_INTS_M
  104     0     9     0     0
SMALL
NO_CHARGES


@<TRIPOS>ATOM
      1 CA         24.4195   42.0560    1.9825 C.3       3 GLC5        0.0000 
      2 CA         23.7920   41.1710    0.2550 C.3       9 GLL5        0.0000 
      3 CA         25.0470   42.9410    3.7100 C.3       6 GLP5        0.0000 
      4 N          25.8290   39.9800   -0.6010 N.am      2 SEC2        0.0000 
      5 N          24.7120   41.0910   -0.7060 N.am      8 SEL2        0.0000 
      6 N          26.9460   38.8690   -0.4960 N.am      5 SEP2        0.0000 
      7 CA         24.8845   39.5125   -1.7935 C.3       3 GLC5        0.0000 
      8 CA         24.3540   41.6370   -1.8710 C.3       9 GLL5        0.0000 
      9 CA         25.4150   37.3880   -1.7160 C.3       6 GLP5        0.0000 
     10 CA         23.3370   42.3685    2.4640 C.3       3 GLC5        0.0000 
     11 CA         21.6270   41.7960    1.2180 C.3       9 GLL5        0.0000 
     12 CA         21.3415   43.3395    3.3400 C.3       3 GLC5        0.0000 
     13 CA         21.0780   41.1270    3.3180 C.3       9 GLL5        0.0000 
     14 CA         21.6050   45.5520    3.3620 C.3       6 GLP5        0.0000 
     15 CA         23.0625   42.0340    3.5140 C.3       3 GLC5        0.0000 
     16 O          22.7420   40.0830    4.9490 O.2       1 ALC1        0.0000 
     17 O          21.3800   40.3800    4.4610 O.2       7 ALL1        0.0000 
     18 O          24.1040   39.7860    5.4370 O.2       4 ALP1        0.0000 
     19 CA         18.1840   42.4660    8.0315 C.3       3 GLC5        0.0000 
     20 CA         18.9550   40.6290    7.8360 C.3       9 GLL5        0.0000 
     21 CA         17.4130   44.3030    8.2270 C.3       6 GLP5        0.0000 
     22 CA         20.0245   38.4115    7.5980 C.3       3 GLC5        0.0000 
     23 CA         19.5660   39.5090    5.8190 C.3       9 GLL5        0.0000 
     24 CA         20.4830   37.3140    9.3770 C.3       6 GLP5        0.0000 
     25 CA         20.0195   37.5365    5.3390 C.3       3 GLC5        0.0000 
     26 CA         20.4730   35.5640    4.8590 C.3       6 GLP5        0.0000 
     27 O          16.8845   39.4445    7.9960 O.2       1 ALC1        0.0000 
     28 O          17.7610   38.6740    7.2200 O.2       7 ALL1        0.0000 
     29 O          16.0080   40.2150    8.7720 O.2       4 ALP1        0.0000 
     30 CA         17.8415   37.2720    8.6435 C.3       3 GLC5        0.0000 
     31 CA         16.6440   36.5980    7.0570 C.3       9 GLL5        0.0000 
     32 CA         19.0390   37.9460   10.2300 C.3       6 GLP5        0.0000 
     33 CA         18.5095   35.4560    5.6780 C.3       3 GLC5        0.0000 
     34 CA         16.5460   35.3480    6.4970 C.3       9 GLL5        0.0000 
     35 CA         16.8705   35.3885    4.5210 C.3       3 GLC5        0.0000 
     36 CA         17.1950   35.4290    2.5450 C.3       6 GLP5        0.0000 
     37 CA         14.4145   33.6510   10.7455 C.3       3 GLC5        0.0000 
     38 CA         14.1630   33.6750    8.8680 C.3       9 GLL5        0.0000 
     39 CA         14.6660   33.6270   12.6230 C.3       6 GLP5        0.0000 
     40 CA         12.8725   35.8005    6.3720 C.3       3 GLC5        0.0000 
     41 CA         12.1190   34.6120    7.8710 C.3       9 GLL5        0.0000 
     42 CA         13.6260   36.9890    4.8730 C.3       6 GLP5        0.0000 
     43 O           9.5945   33.0275    8.6500 O.2       1 ALC1        0.0000 
     44 O           9.9960   34.3140    8.9800 O.2       7 ALL1        0.0000 
     45 O           9.1930   31.7410    8.3200 O.2       4 ALP1        0.0000 
     46 CA          6.7940   34.7735    8.6385 C.3       3 GLC5        0.0000 
     47 CA          8.6520   34.8760    9.2620 C.3       9 GLL5        0.0000 
     48 CA          4.9360   34.6710    8.0150 C.3       6 GLP5        0.0000 
     49 CA         13.3060   33.3815   11.2195 C.3       3 GLC5        0.0000 
     50 CA         11.9460   33.1360    9.8160 C.3       9 GLL5        0.0000 
     51 CA         11.8180   30.9345   10.2525 C.3       3 GLC5        0.0000 
     52 CA         11.6900   28.7330   10.6890 C.3       6 GLP5        0.0000 
     53 N          16.7550   37.2460    4.3575 N.am      2 SEC2        0.0000 
     54 N          17.8870   37.4360    5.2640 N.am      8 SEL2        0.0000 
     55 N          15.6230   37.0560    3.4510 N.am      5 SEP2        0.0000 
     56 CA         21.6940   44.0260    4.8175 C.3       3 GLC5        0.0000 
     57 CA         21.7830   42.5000    6.2730 C.3       9 GLL5        0.0000 
     58 CA         23.4150   42.7205    4.9915 C.3       3 GLC5        0.0000 
     59 CA         23.1450   44.1725    6.7865 C.3       3 GLC5        0.0000 
     60 CA         24.5070   45.8450    7.3000 C.3       6 GLP5        0.0000 
     61 CA         23.5252   41.0068   -3.9492 C.3       3 GLC5        0.0000 
     62 CA         23.1450   42.2440   -2.1200 C.3       9 GLL5        0.0000 
     63 CA         23.3010   40.0730   -5.9030 C.3       6 GLP5        0.0000 
     64 CA         23.8165   43.6315   -0.5149 C.3       3 GLC5        0.0000 
     65 CA         22.2270   42.2980   -1.1010 C.3       9 GLL5        0.0000 
     66 CA         24.1130   45.3090    0.7110 C.3       6 GLP5        0.0000 
     67 CA         22.2065   40.3940   -1.9904 C.3       3 GLC5        0.0000 
     68 CA         20.8930   38.8340   -2.2400 C.3       6 GLP5        0.0000 
     69 CA         23.2562   43.4689    0.7069 C.3       3 GLC5        0.0000 
     70 CA         22.5520   41.7520    0.1200 C.3       9 GLL5        0.0000 
     71 CA         21.9782   39.8369    0.3734 C.3       3 GLC5        0.0000 
     72 CA         21.5570   38.0450    0.0440 C.3       6 GLP5        0.0000 
     73 CA         18.9787   44.1093    0.9217 C.3       3 GLC5        0.0000 
     74 CA         20.4890   42.5570    1.1340 C.3       9 GLL5        0.0000 
     75 CA         17.8760   45.6710    0.1590 C.3       6 GLP5        0.0000 
     76 CA         20.9855   43.9546    2.5337 C.3       3 GLC5        0.0000 
     77 CA         19.6740   42.5380    2.2350 C.3       9 GLL5        0.0000 
     78 CA         21.2420   40.1132    7.6098 C.3       3 GLC5        0.0000 
     79 CA         19.9330   41.5660    7.6110 C.3       9 GLL5        0.0000 
     80 CA         23.0400   39.1290    7.4960 C.3       6 GLP5        0.0000 
     81 CA         18.9513   39.0307    8.8085 C.3       3 GLC5        0.0000 
     82 CA         20.4475   41.0865    9.1713 C.3       3 GLC5        0.0000 
     83 CA         21.2520   41.0980   10.8980 C.3       6 GLP5        0.0000 
     84 CA         21.1045   39.3422    6.9373 C.3       3 GLC5        0.0000 
     85 CA         18.7720   39.6020    6.9380 C.3       9 GLL5        0.0000 
     86 CA         15.1105   36.4810    5.8250 C.3       3 GLC5        0.0000 
     87 CA         14.5050   35.7747    6.2698 C.3       3 GLC5        0.0000 
     88 CA         15.0320   34.7130    8.2390 C.3       9 GLL5        0.0000 
     89 CA         15.5193   38.0265    9.7530 C.3       3 GLC5        0.0000 
     90 CA         15.1440   35.9720    8.7860 C.3       9 GLL5        0.0000 
     91 CA         15.4920   39.6050   11.0140 C.3       6 GLP5        0.0000 
     92 CA         16.9888   36.4635    9.7650 C.3       3 GLC5        0.0000 
     93 CA         15.9490   36.9240    8.1980 C.3       9 GLL5        0.0000 
     94 CA         18.4310   36.4790   11.0380 C.3       6 GLP5        0.0000 
     95 CA         14.5862   36.7185    6.6825 C.3       3 GLC5        0.0000 
     96 CA         15.7642   32.8439    9.2161 C.3       3 GLC5        0.0000 
     97 CA         15.7360   34.4080    7.0940 C.3       9 GLL5        0.0000 
     98 CA         16.7550   31.5700   10.1650 C.3       6 GLP5        0.0000 
     99 CA         10.5340   33.4348    6.8598 C.3       3 GLC5        0.0000 
    100 CA          9.5860   31.9100    5.6410 C.3       6 GLP5        0.0000 
    101 CA         20.4350   43.5293    7.3935 C.3       3 GLC5        0.0000 
    102 CA         20.7290   41.4760    6.4950 C.3       9 GLL5        0.0000 
    103 CA         19.8130   45.0480    8.1240 C.3       6 GLP5        0.0000 
    104 CA         22.1257   40.4303    6.8270 C.3       3 GLC5        0.0000 
@<TRIPOS>BOND
@<TRIPOS>SUBSTRUCTURE
     1 ALC1       16 GROUP        1 X    ALC  0     ROOT ALC X 1
     2 SEC2        4 GROUP        1 X    SEC  0     **** SEC X 2
     3 GLC5        1 GROUP        1 X    GLC  0     **** GLC X 6
     4 ALP1       18 GROUP        1 Y    ALP  0     ROOT ALP Y 8
     5 SEP2        6 GROUP        1 Y    SEP  0     **** SEP Y 9
     6 GLP5        3 GROUP        1 Y    GLP  0     **** GLP Y 13
     7 ALL1       17 GROUP        1 Z    ALL  0     ROOT ALL Z 15
     8 SEL2        5 GROUP        1 Z    SEL  0     **** SEL Z 16
     9 GLL5        2 GROUP        1 Z    GLL  0     **** GLL Z 20
@<TRIPOS>SET

