#    Name: 3pyy_STI_3_ligand
#    Modification time : Tue Mar 25 08:43:47 2014

@<TRIPOS>MOLECULE
3pyy_STI_3_ligand
   69    73     1     0     0
SMALL
NO_CHARGES


@<TRIPOS>ATOM
      1 C1         23.1450   42.2440   -2.1200 C.ar      1 STI4        0.0000 
      2 C6         22.2270   42.2980   -1.1010 C.ar      1 STI4        0.0000 
      3 C5         22.5520   41.7520    0.1200 C.ar      1 STI4        0.0000 
      4 C4         23.7920   41.1710    0.2550 C.ar      1 STI4        0.0000 
      5 N3         24.7120   41.0910   -0.7060 N.ar      1 STI4        0.0000 
      6 C2         24.3540   41.6370   -1.8710 C.ar      1 STI4        0.0000 
      7 C7         21.6270   41.7960    1.2180 C.ar      1 STI4        0.0000 
      8 C12        20.4890   42.5570    1.1340 C.ar      1 STI4        0.0000 
      9 C11        19.6740   42.5380    2.2350 C.ar      1 STI4        0.0000 
     10 N10        19.9470   41.8360    3.3350 N.ar      1 STI4        0.0000 
     11 C9         21.0780   41.1270    3.3180 C.ar      1 STI4        0.0000 
     12 N8         21.9390   41.0760    2.2980 N.ar      1 STI4        0.0000 
     13 N13        21.3800   40.3800    4.4610 N.pl3     1 STI4        0.0000 
     14 C14        20.5510   40.4500    5.5910 C.ar      1 STI4        0.0000 
     15 C19        20.7290   41.4760    6.4950 C.ar      1 STI4        0.0000 
     16 C18        19.9330   41.5660    7.6110 C.ar      1 STI4        0.0000 
     17 C17        18.9550   40.6290    7.8360 C.ar      1 STI4        0.0000 
     18 C16        18.7720   39.6020    6.9380 C.ar      1 STI4        0.0000 
     19 C15        19.5660   39.5090    5.8190 C.ar      1 STI4        0.0000 
     20 N21        17.7610   38.6740    7.2200 N.am      1 STI4        0.0000 
     21 C22        17.5030   37.5980    6.4140 C.2       1 STI4        0.0000 
     22 C23        16.6440   36.5980    7.0570 C.ar      1 STI4        0.0000 
     23 C25        16.5460   35.3480    6.4970 C.ar      1 STI4        0.0000 
     24 C26        15.7360   34.4080    7.0940 C.ar      1 STI4        0.0000 
     25 C27        15.0320   34.7130    8.2390 C.ar      1 STI4        0.0000 
     26 C28        15.1440   35.9720    8.7860 C.ar      1 STI4        0.0000 
     27 C29        15.9490   36.9240    8.1980 C.ar      1 STI4        0.0000 
     28 C46        14.1630   33.6750    8.8680 C.3       1 STI4        0.0000 
     29 N48        12.7720   34.1460    9.1110 N.3       1 STI4        0.0000 
     30 C53        12.1190   34.6120    7.8710 C.3       1 STI4        0.0000 
     31 C52        10.8450   35.3070    8.2860 C.3       1 STI4        0.0000 
     32 N51         9.9960   34.3140    8.9800 N.4       1 STI4        0.0000 
     33 C54         8.6520   34.8760    9.2620 C.3       1 STI4        0.0000 
     34 C50        10.6320   33.7790   10.2080 C.3       1 STI4        0.0000 
     35 C49        11.9460   33.1360    9.8160 C.3       1 STI4        0.0000 
     36 O29        17.8870   37.4360    5.2640 O.2       1 STI4        0.0000 
     37 C20        21.7830   42.5000    6.2730 C.3       1 STI4        0.0000 
     38 H          22.9379   42.6423   -3.0365 H         1 STI4        0.0000 
     39 H          21.3109   42.7388   -1.2456 H         1 STI4        0.0000 
     40 H          24.0209   40.7527    1.2202 H         1 STI4        0.0000 
     41 H          25.0533   41.6081   -2.6868 H         1 STI4        0.0000 
     42 H          20.2669   43.0962    0.3133 H         1 STI4        0.0000 
     43 H          18.7826   43.1172    2.1951 H         1 STI4        0.0000 
     44 H          22.2111   39.7773    4.4755 H         1 STI4        0.0000 
     45 H          20.0709   42.3408    8.2825 H         1 STI4        0.0000 
     46 H          18.3580   40.6931    8.6755 H         1 STI4        0.0000 
     47 H          19.4279   38.7368    5.1478 H         1 STI4        0.0000 
     48 H          17.1873   38.8211    8.0849 H         1 STI4        0.0000 
     49 H          17.0693   35.1155    5.6441 H         1 STI4        0.0000 
     50 H          15.6545   33.4613    6.6786 H         1 STI4        0.0000 
     51 H          14.6180   36.2065    9.6482 H         1 STI4        0.0000 
     52 H          16.0275   37.8619    8.6069 H         1 STI4        0.0000 
     53 H          14.6145   33.3542    9.8262 H         1 STI4        0.0000 
     54 H          14.1389   32.7786    8.2192 H         1 STI4        0.0000 
     55 H          11.8771   33.7762    7.2319 H         1 STI4        0.0000 
     56 H          12.7528   35.3122    7.3479 H         1 STI4        0.0000 
     57 H          10.3415   35.6852    7.4045 H         1 STI4        0.0000 
     58 H          11.0866   36.1283    8.9499 H         1 STI4        0.0000 
     59 H           9.8485   33.4556    8.2791 H         1 STI4        0.0000 
     60 H           9.9951   33.0327   10.6691 H         1 STI4        0.0000 
     61 H          10.8248   34.5794   10.9133 H         1 STI4        0.0000 
     62 H          12.4536   32.7912   10.7114 H         1 STI4        0.0000 
     63 H          11.7472   32.2899    9.1656 H         1 STI4        0.0000 
     64 H           8.7033   35.6866    9.8453 H         1 STI4        0.0000 
     65 H           8.1797   35.1477    8.4235 H         1 STI4        0.0000 
     66 H           8.0638   34.2157    9.7289 H         1 STI4        0.0000 
     67 H          22.6946   42.0913    6.2298 H         1 STI4        0.0000 
     68 H          21.6436   42.9968    5.4164 H         1 STI4        0.0000 
     69 H          21.8009   43.1796    7.0064 H         1 STI4        0.0000 
@<TRIPOS>BOND
     1    2    1 ar   
     2    6    1 ar   
     3   38    1 1    
     4    3    2 ar   
     5   39    2 1    
     6    4    3 ar   
     7    7    3 1    
     8    5    4 ar   
     9   40    4 1    
    10    6    5 ar   
    11   41    6 1    
    12    8    7 ar   
    13   12    7 ar   
    14    9    8 ar   
    15   42    8 1    
    16   10    9 ar   
    17   43    9 1    
    18   11   10 ar   
    19   12   11 ar   
    20   13   11 1    
    21   14   13 1    
    22   44   13 1    
    23   15   14 ar   
    24   19   14 ar   
    25   16   15 ar   
    26   37   15 1    
    27   17   16 ar   
    28   45   16 1    
    29   18   17 ar   
    30   46   17 1    
    31   19   18 ar   
    32   20   18 1    
    33   47   19 1    
    34   21   20 am   
    35   48   20 1    
    36   22   21 1    
    37   36   21 2    
    38   23   22 ar   
    39   27   22 ar   
    40   24   23 ar   
    41   49   23 1    
    42   25   24 ar   
    43   50   24 1    
    44   26   25 ar   
    45   28   25 1    
    46   27   26 ar   
    47   51   26 1    
    48   52   27 1    
    49   29   28 1    
    50   53   28 1    
    51   54   28 1    
    52   30   29 1    
    53   35   29 1    
    54   31   30 1    
    55   55   30 1    
    56   56   30 1    
    57   32   31 1    
    58   57   31 1    
    59   58   31 1    
    60   33   32 1    
    61   34   32 1    
    62   59   32 1    
    63   64   33 1    
    64   65   33 1    
    65   66   33 1    
    66   35   34 1    
    67   60   34 1    
    68   61   34 1    
    69   62   35 1    
    70   63   35 1    
    71   67   37 1    
    72   68   37 1    
    73   69   37 1    
@<TRIPOS>SUBSTRUCTURE
     1 STI4        1 GROUP   
@<TRIPOS>SET

