#    Name: 3p9t_TCL_1_INTS_M
#    Modification time : Tue Mar 25 06:09:13 2014

@<TRIPOS>MOLECULE
3p9t_TCL_1_INTS_M
   46     0     3     0     0
SMALL
NO_CHARGES


@<TRIPOS>ATOM
      1 CA        -23.1115   -4.2235   25.9620 C.3       1 GLC5        0.0000 
      2 CA        -22.2890   -3.4620   27.3350 C.3       3 GLL5        0.0000 
      3 CA        -23.9340   -4.9850   24.5890 C.3       2 GLP5        0.0000 
      4 CA        -21.9230   -4.9135   25.9870 C.3       1 GLC5        0.0000 
      5 CA        -21.2270   -4.2110   27.7930 C.3       3 GLL5        0.0000 
      6 CA        -22.6190   -5.6160   24.1810 C.3       2 GLP5        0.0000 
      7 CA        -16.8385   -3.0360   25.9705 C.3       1 GLC5        0.0000 
      8 CA        -16.5180   -3.0290   28.1240 C.3       3 GLL5        0.0000 
      9 CA        -17.1590   -3.0430   23.8170 C.3       2 GLP5        0.0000 
     10 CA        -23.9660   -0.1365   28.6300 C.3       1 GLC5        0.0000 
     11 CA        -24.0480   -1.3970   27.4300 C.3       3 GLL5        0.0000 
     12 CA        -23.8840    1.1240   29.8300 C.3       2 GLP5        0.0000 
     13 CA        -25.3660   -1.8735   28.3115 C.3       1 GLC5        0.0000 
     14 CA        -26.6840   -2.3500   29.1930 C.3       2 GLP5        0.0000 
     15 CA        -25.9750   -1.0480   26.7545 C.3       1 GLC5        0.0000 
     16 CA        -27.9020   -0.6990   26.0790 C.3       2 GLP5        0.0000 
     17 CA        -23.3555   -0.2435   26.3500 C.3       1 GLC5        0.0000 
     18 CA        -22.6630    0.9100   25.2700 C.3       2 GLP5        0.0000 
     19 CA        -12.2825   -4.3585   28.8010 C.3       1 GLC5        0.0000 
     20 CA        -13.8530   -3.7250   28.2060 C.3       3 GLL5        0.0000 
     21 CA        -10.7120   -4.9920   29.3960 C.3       2 GLP5        0.0000 
     22 CA        -13.5295   -3.3195   26.9645 C.3       1 GLC5        0.0000 
     23 CA        -13.2060   -2.9140   25.7230 C.3       2 GLP5        0.0000 
     24 CA        -19.3415   -6.0210   32.4350 C.3       1 GLC5        0.0000 
     25 CA        -17.8770   -6.4320   30.8640 C.3       3 GLL5        0.0000 
     26 CA        -20.8060   -5.6100   34.0060 C.3       2 GLP5        0.0000 
     27 CA        -17.6605   -8.2015   30.9610 C.3       1 GLC5        0.0000 
     28 CA        -17.4440   -9.9710   31.0580 C.3       2 GLP5        0.0000 
     29 CA        -17.8345   -6.9545   28.8070 C.3       1 GLC5        0.0000 
     30 CA        -17.7920   -7.4770   26.7500 C.3       2 GLP5        0.0000 
     31 CA        -20.0775   -6.4930   30.7085 C.3       1 GLC5        0.0000 
     32 CA        -22.2780   -6.5540   30.5530 C.3       2 GLP5        0.0000 
     33 CA        -22.0180   -5.1952   29.0585 C.3       1 GLC5        0.0000 
     34 CA        -24.3392   -3.4265   28.1913 C.3       1 GLC5        0.0000 
     35 CA        -26.1940   -3.9420   28.6930 C.3       2 GLP5        0.0000 
     36 CA        -23.1273   -0.5217   29.2308 C.3       1 GLC5        0.0000 
     37 CA        -22.6800   -2.3600   28.0440 C.3       3 GLL5        0.0000 
     38 CA        -23.7225   -2.6917   26.0025 C.3       1 GLC5        0.0000 
     39 CA        -24.0810   -3.5050   24.2680 C.3       2 GLP5        0.0000 
     40 CA        -21.9733   -0.4463   27.5012 C.3       1 GLC5        0.0000 
     41 CA        -21.5760    1.2750   26.3710 C.3       2 GLP5        0.0000 
     42 CA        -21.5272   -4.8967   29.9750 C.3       1 GLC5        0.0000 
     43 CA        -20.9960   -2.6810   29.7340 C.3       3 GLL5        0.0000 
     44 CA        -14.6253   -3.1950   27.0527 C.3       1 GLC5        0.0000 
     45 CA        -17.3422   -1.3328   27.6275 C.3       1 GLC5        0.0000 
     46 CA        -17.4920    0.4330   26.9780 C.3       2 GLP5        0.0000 
@<TRIPOS>BOND
@<TRIPOS>SUBSTRUCTURE
     1 GLC5        1 GROUP        1 X    GLC  0     ROOT GLC X 6
     2 GLP5        3 GROUP        1 Y    GLP  0     ROOT GLP Y 13
     3 GLL5        2 GROUP        1 Z    GLL  0     ROOT GLL Z 20
@<TRIPOS>SET

