#    Name: 3p9t_TCL_1_ligand
#    Modification time : Tue Mar 25 06:09:13 2014

@<TRIPOS>MOLECULE
3p9t_TCL_1_ligand
   24    25     1     0     0
SMALL
NO_CHARGES


@<TRIPOS>ATOM
      1 C1        -22.2890   -3.4620   27.3350 C.ar      1 TCL221      0.0000 
      2 C2        -22.6800   -2.3600   28.0440 C.ar      1 TCL221      0.0000 
      3 C6        -21.2270   -4.2110   27.7930 C.ar      1 TCL221      0.0000 
      4 C5        -20.5570   -3.7980   29.0600 C.ar      1 TCL221      0.0000 
      5 C4        -20.9960   -2.6810   29.7340 C.ar      1 TCL221      0.0000 
      6 C3        -22.0610   -1.9750   29.2190 C.ar      1 TCL221      0.0000 
      7 C11       -15.5710   -3.9230   28.6410 C.ar      1 TCL221      0.0000 
      8 C10       -15.9070   -4.9940   29.4910 C.ar      1 TCL221      0.0000 
      9 C9        -17.2420   -5.1490   29.8060 C.ar      1 TCL221      0.0000 
     10 C8        -18.2410   -4.2160   29.2640 C.ar      1 TCL221      0.0000 
     11 C12       -16.5180   -3.0290   28.1240 C.ar      1 TCL221      0.0000 
     12 C13       -17.8670   -3.1680   28.4300 C.ar      1 TCL221      0.0000 
     13 O7        -19.5170   -4.4780   29.6260 O.3       1 TCL221      0.0000 
     14 CL14      -24.0480   -1.3970   27.4300 Cl        1 TCL221      0.0000 
     15 CL15      -13.8530   -3.7250   28.2060 Cl        1 TCL221      0.0000 
     16 CL16      -17.8770   -6.4320   30.8640 Cl        1 TCL221      0.0000 
     17 O17       -20.8990   -5.3190   27.0480 O.3       1 TCL221      0.0000 
     18 H         -22.7775   -3.7319   26.4717 H         1 TCL221      0.0000 
     19 H         -20.5409   -2.3807   30.6001 H         1 TCL221      0.0000 
     20 H         -22.4089   -1.1330   29.7238 H         1 TCL221      0.0000 
     21 H         -15.1962   -5.6114   29.8460 H         1 TCL221      0.0000 
     22 H         -16.2060   -2.2609   27.5101 H         1 TCL221      0.0000 
     23 H         -18.5567   -2.5254   28.0568 H         1 TCL221      0.0000 
     24 H         -20.6027   -4.9578   26.1639 H         1 TCL221      0.0000 
@<TRIPOS>BOND
     1    2    1 ar   
     2    3    1 ar   
     3   18    1 1    
     4    6    2 ar   
     5   14    2 1    
     6    4    3 ar   
     7   17    3 1    
     8    5    4 ar   
     9   13    4 1    
    10    6    5 ar   
    11   19    5 1    
    12   20    6 1    
    13    8    7 ar   
    14   11    7 ar   
    15   15    7 1    
    16    9    8 ar   
    17   21    8 1    
    18   10    9 ar   
    19   16    9 1    
    20   12   10 ar   
    21   13   10 1    
    22   12   11 ar   
    23   22   11 1    
    24   23   12 1    
    25   24   17 1    
@<TRIPOS>SUBSTRUCTURE
     1 TCL221      1 GROUP   
@<TRIPOS>SET

