#    Name: 4b78_KGG_1_INTS_M
#    Modification time : Tue Mar 25 06:52:30 2014

@<TRIPOS>MOLECULE
4b78_KGG_1_INTS_M
   49     0     9     0     0
SMALL
NO_CHARGES


@<TRIPOS>ATOM
      1 CA          4.2615    6.3805  -26.6390 C.3       3 GLC5        0.0000 
      2 CA          5.7780    6.0540  -25.2560 C.3       9 GLL5        0.0000 
      3 CA          2.7450    6.7070  -28.0220 C.3       6 GLP5        0.0000 
      4 CA          7.9395    6.4900  -25.0735 C.3       3 GLC5        0.0000 
      5 CA         10.1010    6.9260  -24.8910 C.3       6 GLP5        0.0000 
      6 CA          6.5160    5.6500  -26.9040 C.3       3 GLC5        0.0000 
      7 CA          7.2540    5.2460  -28.5520 C.3       6 GLP5        0.0000 
      8 N           7.6605    4.7145  -25.6750 N.am      2 SEC2        0.0000 
      9 N           6.9100    5.4230  -24.6540 N.am      8 SEL2        0.0000 
     10 N           8.4110    4.0060  -26.6960 N.am      5 SEP2        0.0000 
     11 CA          8.6015    1.9010  -19.8570 C.3       3 GLC5        0.0000 
     12 CA          6.5920    2.2390  -19.1690 C.3       9 GLL5        0.0000 
     13 CA         10.6110    1.5630  -20.5450 C.3       6 GLP5        0.0000 
     14 CA          2.7260    1.1860  -18.0590 C.3       3 GLC5        0.0000 
     15 CA          4.3370    2.5000  -18.6790 C.3       9 GLL5        0.0000 
     16 CA          1.1150   -0.1280  -17.4390 C.3       6 GLP5        0.0000 
     17 O           3.1585    2.3255  -20.5635 O.2       1 ALC1        0.0000 
     18 O           4.3240    2.1860  -19.9340 O.2       7 ALL1        0.0000 
     19 O           1.9930    2.4650  -21.1930 O.2       4 ALP1        0.0000 
     20 O           1.9365    2.6900  -18.7220 O.2       1 ALC1        0.0000 
     21 O           3.2030    2.8740  -18.0180 O.2       7 ALL1        0.0000 
     22 O           0.6700    2.5060  -19.4260 O.2       4 ALP1        0.0000 
     23 O           2.5980    2.6695  -19.6055 O.2       1 ALC1        0.0000 
     24 O           2.8375    3.2585  -16.6655 O.2       1 ALC1        0.0000 
     25 O           2.4720    3.6430  -15.3130 O.2       4 ALP1        0.0000 
     26 CA          2.2445   -5.4475  -17.8535 C.3       3 GLC5        0.0000 
     27 CA          4.1420   -4.7430  -17.3130 C.3       9 GLL5        0.0000 
     28 CA          0.3470   -6.1520  -18.3940 C.3       6 GLP5        0.0000 
     29 CA          2.4505   -1.5145  -18.0310 C.3       3 GLC5        0.0000 
     30 CA          3.7860   -2.9010  -18.6230 C.3       9 GLL5        0.0000 
     31 CA          8.5790    5.6458  -24.0487 C.3       3 GLC5        0.0000 
     32 CA          7.5650    4.1850  -22.7740 C.3       9 GLL5        0.0000 
     33 CA          3.8043    4.6985  -22.5295 C.3       3 GLC5        0.0000 
     34 CA          5.2740    4.0530  -23.4720 C.3       9 GLL5        0.0000 
     35 CA          2.4530    5.7740  -22.1180 C.3       6 GLP5        0.0000 
     36 CA          4.9054    1.6092  -23.2553 C.3       3 GLC5        0.0000 
     37 CA          4.2210    0.0010  -24.2820 C.3       6 GLP5        0.0000 
     38 CA          5.2590    0.1000  -22.7540 C.3       3 GLC5        0.0000 
     39 CA          6.6830   -0.0040  -21.7640 C.3       9 GLL5        0.0000 
     40 CA          5.4207   -0.9128  -22.9515 C.3       3 GLC5        0.0000 
     41 CA          6.8900   -1.3440  -22.0350 C.3       9 GLL5        0.0000 
     42 CA          2.9590   -3.5125  -20.0110 C.3       3 GLC5        0.0000 
     43 CA          5.0500   -2.9510  -19.1850 C.3       9 GLL5        0.0000 
     44 CA          1.5000   -4.0990  -21.1180 C.3       6 GLP5        0.0000 
     45 CA          4.0475   -6.6275  -17.6915 C.3       3 GLC5        0.0000 
     46 CA          5.4160   -4.9090  -17.8050 C.3       9 GLL5        0.0000 
     47 CA          3.3160   -8.4290  -17.8240 C.3       6 GLP5        0.0000 
     48 CA          5.7994   -5.8043  -19.0020 C.3       3 GLC5        0.0000 
     49 CA          6.7120   -7.0080  -20.2070 C.3       6 GLP5        0.0000 
@<TRIPOS>BOND
@<TRIPOS>SUBSTRUCTURE
     1 ALC1       17 GROUP        1 X    ALC  0     ROOT ALC X 1
     2 SEC2        8 GROUP        1 X    SEC  0     **** SEC X 2
     3 GLC5        1 GROUP        1 X    GLC  0     **** GLC X 6
     4 ALP1       19 GROUP        1 Y    ALP  0     ROOT ALP Y 8
     5 SEP2       10 GROUP        1 Y    SEP  0     **** SEP Y 9
     6 GLP5        3 GROUP        1 Y    GLP  0     **** GLP Y 13
     7 ALL1       18 GROUP        1 Z    ALL  0     ROOT ALL Z 15
     8 SEL2        9 GROUP        1 Z    SEL  0     **** SEL Z 16
     9 GLL5        2 GROUP        1 Z    GLL  0     **** GLL Z 20
@<TRIPOS>SET

