#    Name: 4b78_KGG_1_ligand
#    Modification time : Tue Mar 25 06:52:30 2014

@<TRIPOS>MOLECULE
4b78_KGG_1_ligand
   52    55     1     0     0
SMALL
NO_CHARGES


@<TRIPOS>ATOM
      1 C1          5.7780    6.0540  -25.2560 C.3       1 KGG1385     0.0000 
      2 O2          6.9100    5.4230  -24.6540 O.3       1 KGG1385     0.0000 
      3 C3          6.5490    4.5460  -23.6390 C.ar      1 KGG1385     0.0000 
      4 C4          5.2740    4.0530  -23.4720 C.ar      1 KGG1385     0.0000 
      5 C5          5.0370    3.1930  -22.4100 C.ar      1 KGG1385     0.0000 
      6 C6          6.0240    2.8120  -21.5160 C.ar      1 KGG1385     0.0000 
      7 C7          7.2920    3.3280  -21.7370 C.ar      1 KGG1385     0.0000 
      8 C8          7.5650    4.1850  -22.7740 C.ar      1 KGG1385     0.0000 
      9 C9          5.6960    1.8680  -20.3770 C.3       1 KGG1385     0.0000 
     10 C10         6.5920    2.2390  -19.1690 C.3       1 KGG1385     0.0000 
     11 C11         5.6470    2.3550  -17.9750 C.3       1 KGG1385     0.0000 
     12 C12         4.3370    2.5000  -18.6790 C.2       1 KGG1385     0.0000 
     13 N13         4.3240    2.1860  -19.9340 N.pl3     1 KGG1385     0.0000 
     14 N14         3.2030    2.8740  -18.0180 N.pl3     1 KGG1385     0.0000 
     15 O15         5.7790    3.4660  -17.1110 O.3       1 KGG1385     0.0000 
     16 C16         6.9640    3.3370  -16.3300 C.3       1 KGG1385     0.0000 
     17 C17         5.9110    0.4020  -20.6880 C.ar      1 KGG1385     0.0000 
     18 C18         6.6830   -0.0040  -21.7640 C.ar      1 KGG1385     0.0000 
     19 C19         6.8900   -1.3440  -22.0350 C.ar      1 KGG1385     0.0000 
     20 C20         6.3510   -2.3090  -21.2070 C.ar      1 KGG1385     0.0000 
     21 C21         5.5760   -1.9470  -20.1190 C.ar      1 KGG1385     0.0000 
     22 C22         5.3710   -0.5910  -19.8900 C.ar      1 KGG1385     0.0000 
     23 C23         5.0500   -2.9510  -19.1850 C.ar      1 KGG1385     0.0000 
     24 C24         5.8470   -4.0070  -18.7570 C.ar      1 KGG1385     0.0000 
     25 C25         5.4160   -4.9090  -17.8050 C.ar      1 KGG1385     0.0000 
     26 C26         4.1420   -4.7430  -17.3130 C.ar      1 KGG1385     0.0000 
     27 N27         3.3080   -3.7700  -17.7090 N.ar      1 KGG1385     0.0000 
     28 C28         3.7860   -2.9010  -18.6230 C.ar      1 KGG1385     0.0000 
     29 H           4.5217    4.3104  -24.1091 H         1 KGG1385     0.0000 
     30 H           4.0664    2.8145  -22.2785 H         1 KGG1385     0.0000 
     31 H           8.0651    3.0503  -21.0861 H         1 KGG1385     0.0000 
     32 H           8.5136    4.5568  -22.9096 H         1 KGG1385     0.0000 
     33 H           7.0604    3.1773  -19.3564 H         1 KGG1385     0.0000 
     34 H           7.2960    1.4569  -19.0028 H         1 KGG1385     0.0000 
     35 H           5.6196    1.4091  -17.4745 H         1 KGG1385     0.0000 
     36 H           3.5971    2.1369  -20.5636 H         1 KGG1385     0.0000 
     37 H           3.3116    3.0968  -17.0492 H         1 KGG1385     0.0000 
     38 H           2.3632    2.8923  -18.5606 H         1 KGG1385     0.0000 
     39 H           7.1150    0.7139  -22.3796 H         1 KGG1385     0.0000 
     40 H           7.4479   -1.6226  -22.8570 H         1 KGG1385     0.0000 
     41 H           6.5270   -3.3097  -21.4002 H         1 KGG1385     0.0000 
     42 H           4.7761   -0.3092  -19.0695 H         1 KGG1385     0.0000 
     43 H           6.7990   -4.1173  -19.1705 H         1 KGG1385     0.0000 
     44 H           6.0143   -5.6607  -17.4837 H         1 KGG1385     0.0000 
     45 H           3.8112   -5.4360  -16.5737 H         1 KGG1385     0.0000 
     46 H           3.1475   -2.1037  -18.9490 H         1 KGG1385     0.0000 
     47 H           6.0477    6.6841  -25.9842 H         1 KGG1385     0.0000 
     48 H           5.1533    5.3870  -25.6620 H         1 KGG1385     0.0000 
     49 H           5.2505    6.5829  -24.5912 H         1 KGG1385     0.0000 
     50 H           7.7827    3.2902  -16.9023 H         1 KGG1385     0.0000 
     51 H           7.0850    4.1107  -15.7081 H         1 KGG1385     0.0000 
     52 H           6.9508    2.5093  -15.7690 H         1 KGG1385     0.0000 
@<TRIPOS>BOND
     1    2    1 1    
     2   47    1 1    
     3   48    1 1    
     4   49    1 1    
     5    3    2 1    
     6    4    3 ar   
     7    8    3 ar   
     8    5    4 ar   
     9   29    4 1    
    10    6    5 ar   
    11   30    5 1    
    12    7    6 ar   
    13    9    6 1    
    14    8    7 ar   
    15   31    7 1    
    16   32    8 1    
    17   10    9 1    
    18   13    9 1    
    19   17    9 1    
    20   11   10 1    
    21   33   10 1    
    22   34   10 1    
    23   12   11 1    
    24   15   11 1    
    25   35   11 1    
    26   13   12 2    
    27   14   12 1    
    28   36   13 1    
    29   37   14 1    
    30   38   14 1    
    31   16   15 1    
    32   50   16 1    
    33   51   16 1    
    34   52   16 1    
    35   18   17 ar   
    36   22   17 ar   
    37   19   18 ar   
    38   39   18 1    
    39   20   19 ar   
    40   40   19 1    
    41   21   20 ar   
    42   41   20 1    
    43   22   21 ar   
    44   23   21 1    
    45   42   22 1    
    46   24   23 ar   
    47   28   23 ar   
    48   25   24 ar   
    49   43   24 1    
    50   26   25 ar   
    51   44   25 1    
    52   27   26 ar   
    53   45   26 1    
    54   28   27 ar   
    55   46   28 1    
@<TRIPOS>SUBSTRUCTURE
     1 KGG1385     1 GROUP   
@<TRIPOS>SET

