#    Name: 1T8S_3_CAVITY_N1_6.mol2
#    Modification time : Tue Mar 11 10:20:13 2014

@<TRIPOS>MOLECULE
1T8S_3_CAVITY_N1_6.mol2
  117     0     7     0     0
SMALL
NO_CHARGES


@<TRIPOS>ATOM
      1 CA        206.3235  131.0371   51.5425 C.3       6 GLY6        0.0000 
      2 CA        204.5336  130.0380   49.3520 C.3       6 GLY6        0.0000 
      3 N         205.5562  131.6611   60.1024 N.2       2 ALA2        0.0000 
      4 OD1       205.8250  131.1515   58.0608 O.3       3 ASP3        0.0000 
      5 CA        204.6613  131.1616   59.0071 C.3       6 GLY6        0.0000 
      6 N         203.4975  131.1716   59.9535 N.2       2 ALA2        0.0000 
      7 OD1       203.7663  130.6620   57.9119 O.3       3 ASP3        0.0000 
      8 OD1       202.6026  130.6721   58.8583 O.3       3 ASP3        0.0000 
      9 N         201.4388  130.6822   59.8047 N.2       2 ALA2        0.0000 
     10 CZ        208.6901  130.1122   52.0849 C.ar      5 PHE5        0.0000 
     11 OD1       207.5263  130.1223   53.0312 O.3       3 ASP3        0.0000 
     12 DU        207.7951  129.6127   50.9897 H         7 CUB7        0.0000 
     13 CA        206.6314  129.6227   51.9360 C.3       6 GLY6        0.0000 
     14 CA        208.2200  125.4841   58.6886 C.3       6 GLY6        0.0000 
     15 N         210.8163  124.9544   54.7543 N.2       2 ALA2        0.0000 
     16 N         209.6525  124.9644   55.7007 N.2       2 ALA2        0.0000 
     17 CA        208.4888  124.9745   56.6471 C.3       6 GLY6        0.0000 
     18 CA        207.3250  124.9845   57.5934 C.3       6 GLY6        0.0000 
     19 N         211.0851  124.4448   52.7127 N.2       2 ALA2        0.0000 
     20 DU        209.9213  124.4548   53.6591 H         7 CUB7        0.0000 
     21 O         208.7576  124.4649   54.6055 O.2       2 ALA2        0.0000 
     22 O         207.5938  124.4749   55.5518 O.2       2 ALA2        0.0000 
     23 CA        205.2663  124.4951   57.4446 C.3       6 GLY6        0.0000 
     24 N         210.1901  123.9452   51.6175 N.2       2 ALA2        0.0000 
     25 O         209.0263  123.9553   52.5639 O.2       2 ALA2        0.0000 
     26 CA        207.8626  123.9654   53.5102 C.3       6 GLY6        0.0000 
     27 CA        203.2076  124.0056   57.2957 C.3       6 GLY6        0.0000 
     28 CA        202.0439  124.0157   58.2421 C.3       6 GLY6        0.0000 
     29 O         208.1314  123.4558   51.4687 O.2       2 ALA2        0.0000 
     30 CA        206.9676  123.4658   52.4150 C.3       6 GLY6        0.0000 
     31 O         204.3535  132.5759   58.6136 O.2       2 ALA2        0.0000 
     32 NZ        203.4585  132.0764   57.5184 N.2       4 LYS4        0.0000 
     33 O         202.2948  132.0864   58.4647 O.2       2 ALA2        0.0000 
     34 N         205.7364  129.1232   50.8408 N.2       2 ALA2        0.0000 
     35 CA        204.5727  129.1333   51.7872 C.3       6 GLY6        0.0000 
     36 O         204.8414  128.6237   49.7456 O.2       2 ALA2        0.0000 
     37 N         203.6777  128.6337   50.6919 N.2       2 ALA2        0.0000 
     38 N         207.0278  130.2367   59.5496 N.2       2 ALA2        0.0000 
     39 N         205.8641  130.2468   60.4959 N.2       2 ALA2        0.0000 
     40 OD1       207.2966  129.7271   57.5080 O.3       3 ASP3        0.0000 
     41 OD1       206.1328  129.7372   58.4543 O.3       3 ASP3        0.0000 
     42 DU        204.9691  129.7472   59.4007 H         7 CUB7        0.0000 
     43 CA        203.8054  129.7573   60.3471 C.3       6 GLY6        0.0000 
     44 CA        202.6416  129.7674   61.2934 C.3       6 GLY6        0.0000 
     45 CZ        208.7291  129.2074   54.5200 C.ar      5 PHE5        0.0000 
     46 OD1       205.2379  129.2376   57.3591 O.3       3 ASP3        0.0000 
     47 O         204.0741  129.2477   58.3055 O.2       2 ALA2        0.0000 
     48 O         202.9104  129.2578   59.2518 O.2       2 ALA2        0.0000 
     49 CA        201.7466  129.2678   60.1982 C.3       6 GLY6        0.0000 
     50 CZ        208.9979  128.6978   52.4784 C.ar      5 PHE5        0.0000 
     51 OD1       207.8341  128.7079   53.4248 O.3       3 ASP3        0.0000 
     52 OD1       204.3429  128.7381   56.2639 O.3       3 ASP3        0.0000 
     53 CZ        209.2667  128.1883   50.4369 C.ar      5 PHE5        0.0000 
     54 N         208.1029  128.1983   51.3832 N.2       2 ALA2        0.0000 
     55 N         206.9392  128.2084   52.3296 N.2       2 ALA2        0.0000 
     56 N         205.7754  128.2184   53.2759 N.2       2 ALA2        0.0000 
     57 OD1       204.6117  128.2285   54.2223 O.3       3 ASP3        0.0000 
     58 O         208.3717  127.6887   49.3416 O.2       2 ALA2        0.0000 
     59 N         203.7167  127.7290   53.1271 N.2       2 ALA2        0.0000 
     60 N         207.9122  126.8984   58.2951 N.2       2 ALA2        0.0000 
     61 NZ        206.7485  126.9085   59.2414 N.2       4 LYS4        0.0000 
     62 NZ        205.5847  126.9185   60.1878 N.2       4 LYS4        0.0000 
     63 CZ        210.5085  126.3687   54.3608 C.ar      5 PHE5        0.0000 
     64 N         209.3447  126.3788   55.3071 N.2       2 ALA2        0.0000 
     65 N         208.1810  126.3888   56.2535 N.2       2 ALA2        0.0000 
     66 CA        207.0172  126.3989   57.1999 C.3       6 GLY6        0.0000 
     67 CA        205.8535  126.4089   58.1462 C.3       6 GLY6        0.0000 
     68 CA        204.6898  126.4190   59.0926 C.3       6 GLY6        0.0000 
     69 CZ        210.7772  125.8591   52.3192 C.ar      5 PHE5        0.0000 
     70 DU        209.6135  125.8692   53.2655 H         7 CUB7        0.0000 
     71 DU        208.4498  125.8792   54.2119 H         7 CUB7        0.0000 
     72 O         207.2860  125.8893   55.1583 O.2       2 ALA2        0.0000 
     73 O         206.1223  125.8994   56.1046 O.2       2 ALA2        0.0000 
     74 CA        204.9585  125.9094   57.0510 C.3       6 GLY6        0.0000 
     75 CA        203.7948  125.9195   57.9974 C.3       6 GLY6        0.0000 
     76 N         209.8823  125.3596   51.2240 N.2       2 ALA2        0.0000 
     77 N         208.7185  125.3696   52.1703 N.2       2 ALA2        0.0000 
     78 N         207.5548  125.3797   53.1167 N.2       2 ALA2        0.0000 
     79 N         206.3911  125.3898   54.0631 N.2       2 ALA2        0.0000 
     80 O         205.2273  125.3998   55.0094 O.2       2 ALA2        0.0000 
     81 OG        204.0636  125.4099   55.9558 O.2       1 SER1        0.0000 
     82 CA        202.8998  125.4199   56.9021 C.3       6 GLY6        0.0000 
     83 N         208.9873  124.8600   50.1287 N.2       2 ALA2        0.0000 
     84 N         207.8236  124.8701   51.0751 N.2       2 ALA2        0.0000 
     85 NZ        206.1719  128.8324   60.8895 N.2       4 LYS4        0.0000 
     86 N         208.7681  128.3027   56.9552 N.2       2 ALA2        0.0000 
     87 O         207.6044  128.3128   57.9015 O.2       2 ALA2        0.0000 
     88 O         206.4406  128.3228   58.8479 O.2       2 ALA2        0.0000 
     89 DU        205.2769  128.3329   59.7943 H         7 CUB7        0.0000 
     90 CA        204.1132  128.3429   60.7406 C.3       6 GLY6        0.0000 
     91 CZ        209.0369  127.7931   54.9136 C.ar      5 PHE5        0.0000 
     92 OD1       207.8732  127.8032   55.8599 O.3       3 ASP3        0.0000 
     93 OD1       206.7094  127.8132   56.8063 O.3       3 ASP3        0.0000 
     94 OD1       205.5457  127.8233   57.7527 O.3       3 ASP3        0.0000 
     95 O         204.3819  127.8334   58.6990 O.2       2 ALA2        0.0000 
     96 CA        203.2182  127.8434   59.6454 C.3       6 GLY6        0.0000 
     97 CZ        210.4694  127.2734   51.9256 C.ar      5 PHE5        0.0000 
     98 CZ        209.3057  127.2835   52.8720 C.ar      5 PHE5        0.0000 
     99 DU        208.1419  127.2936   53.8184 H         7 CUB7        0.0000 
    100 OD1       206.9782  127.3036   54.7647 O.3       3 ASP3        0.0000 
    101 OD1       205.8145  127.3137   55.7111 O.3       3 ASP3        0.0000 
    102 O         204.6507  127.3238   56.6574 O.2       2 ALA2        0.0000 
    103 DU        209.5745  126.7739   50.8304 H         7 CUB7        0.0000 
    104 N         208.4107  126.7840   51.7768 N.2       2 ALA2        0.0000 
    105 N         207.2470  126.7940   52.7231 N.2       2 ALA2        0.0000 
    106 N         206.0832  126.8041   53.6695 N.2       2 ALA2        0.0000 
    107 N         204.9195  126.8142   54.6159 N.2       2 ALA2        0.0000 
    108 O         203.7558  126.8242   55.5622 O.2       2 ALA2        0.0000 
    109 O         208.6795  126.2744   49.7352 O.2       2 ALA2        0.0000 
    110 N         204.0245  126.3146   53.5206 N.2       2 ALA2        0.0000 
    111 N         210.8553  124.0496   57.1895 N.2       2 ALA2        0.0000 
    112 N         209.6916  124.0597   58.1358 N.2       2 ALA2        0.0000 
    113 CA        209.9603  123.5501   56.0942 C.3       6 GLY6        0.0000 
    114 CA        208.7966  123.5601   57.0406 C.3       6 GLY6        0.0000 
    115 CA        210.2291  123.0405   54.0527 C.3       6 GLY6        0.0000 
    116 CA        209.0654  123.0505   54.9990 C.3       6 GLY6        0.0000 
    117 O         209.3342  122.5409   52.9574 O.2       2 ALA2        0.0000 
@<TRIPOS>BOND
@<TRIPOS>SUBSTRUCTURE
     1 SER1       81 GROUP   
     2 ALA2        3 GROUP   
     3 ASP3        4 GROUP   
     4 LYS4       32 GROUP   
     5 PHE5       10 GROUP   
     6 GLY6        1 GROUP   
     7 CUB7       12 GROUP   
@<TRIPOS>SET

