#    Name: 1t8s_FMP_3_INTS_M
#    Modification time : Tue Mar 25 04:29:03 2014

@<TRIPOS>MOLECULE
1t8s_FMP_3_INTS_M
   75     0    12     0     0
SMALL
NO_CHARGES


@<TRIPOS>ATOM
      1 N         202.5470  126.8770   55.8445 N.am      2 SEC2        0.0000 
      2 N         203.5990  125.9510   55.0250 N.am     10 SEL2        0.0000 
      3 N         201.4950  127.8030   56.6640 N.am      6 SEP2        0.0000 
      4 N         202.5215  125.4910   54.4860 N.am      2 SEC2        0.0000 
      5 N         201.4440  125.0310   53.9470 N.am      6 SEP2        0.0000 
      6 N         205.4365  126.3640   52.3440 N.am      2 SEC2        0.0000 
      7 N         205.5980  126.6490   53.6710 N.am     10 SEL2        0.0000 
      8 N         205.2750  126.0790   51.0170 N.am      6 SEP2        0.0000 
      9 NZ        202.7295  129.0170   55.0075 N.4       3 LYC4        0.0000 
     10 NZ        204.1150  128.3980   54.7370 N.4      11 LYL4        0.0000 
     11 NZ        200.8600  128.9060   56.2770 N.4       7 LYP4        0.0000 
     12 NZ        204.8890  129.5835   54.9855 N.4       3 LYC4        0.0000 
     13 NZ        205.6630  130.7690   55.2340 N.4       7 LYP4        0.0000 
     14 N         202.8050  128.1005   55.7005 N.am      2 SEC2        0.0000 
     15 N         204.1150  128.3980   54.7370 N.am     10 SEL2        0.0000 
     16 N         202.7295  129.0170   55.0075 N.am      2 SEC2        0.0000 
     17 N         201.3440  129.6360   55.2780 N.am      6 SEP2        0.0000 
     18 N         204.8890  129.5835   54.9855 N.am      2 SEC2        0.0000 
     19 N         205.6630  130.7690   55.2340 N.am      6 SEP2        0.0000 
     20 CA        205.2500  125.2735   58.6540 C.3       4 GLC5        0.0000 
     21 CA        205.0420  127.1420   57.4610 C.3      12 GLL5        0.0000 
     22 CA        205.4580  123.4050   59.8470 C.3       8 GLP5        0.0000 
     23 CA        203.0505  127.0405   57.6115 C.3       4 GLC5        0.0000 
     24 CA        201.0590  126.9390   57.7620 C.3       8 GLP5        0.0000 
     25 N         205.8030  129.9895   56.7475 N.am      2 SEC2        0.0000 
     26 N         205.9430  129.2100   58.2610 N.am     10 SEL2        0.0000 
     27 CA        205.6405  125.3930   59.8510 C.3       4 GLC5        0.0000 
     28 CA        205.8230  127.3810   59.8550 C.3      12 GLL5        0.0000 
     29 CA        204.0355  126.5400   60.3400 C.3       4 GLC5        0.0000 
     30 CA        202.2480  125.6990   60.8250 C.3       8 GLP5        0.0000 
     31 N         208.1190  128.1420   60.6880 N.am      2 SEC2        0.0000 
     32 N         207.0150  126.8800   60.4660 N.am     10 SEL2        0.0000 
     33 N         209.2230  129.4040   60.9100 N.am      6 SEP2        0.0000 
     34 O         207.1290  126.1375   61.4930 O.2       1 ALC1        0.0000 
     35 O         207.0150  126.8800   60.4660 O.2       9 ALL1        0.0000 
     36 O         207.2430  125.3950   62.5200 O.2       5 ALP1        0.0000 
     37 CA        204.5845  129.8460   62.0260 C.3       4 GLC5        0.0000 
     38 CA        205.3960  128.6300   60.5700 C.3      12 GLL5        0.0000 
     39 CA        203.7730  131.0620   63.4820 C.3       8 GLP5        0.0000 
     40 CA        204.5810  127.5415   61.9100 C.3       4 GLC5        0.0000 
     41 CA        203.7660  126.4530   63.2500 C.3       8 GLP5        0.0000 
     42 N         207.6550  129.1200   61.3570 N.am      2 SEC2        0.0000 
     43 N         206.0870  128.8360   61.8040 N.am     10 SEL2        0.0000 
     44 N         205.1950  128.7825   62.8655 N.am      2 SEC2        0.0000 
     45 N         204.3030  128.7290   63.9270 N.am      6 SEP2        0.0000 
     46 O         206.8590  128.1520   62.4885 O.2       1 ALC1        0.0000 
     47 O         206.0870  128.8360   61.8040 O.2       9 ALL1        0.0000 
     48 O         207.6310  127.4680   63.1730 O.2       5 ALP1        0.0000 
     49 N         205.1375  131.0935   56.7360 N.am      2 SEC2        0.0000 
     50 N         204.6120  131.4180   58.2380 N.am     10 SEL2        0.0000 
     51 O         203.5190  133.2570   56.9160 O.2       1 ALC1        0.0000 
     52 O         203.5240  132.1180   57.8850 O.2       9 ALL1        0.0000 
     53 O         203.5140  134.3960   55.9470 O.2       5 ALP1        0.0000 
     54 CA        200.5315  132.9280   60.3050 C.3       4 GLC5        0.0000 
     55 CA        201.1260  131.8910   58.7350 C.3      12 GLL5        0.0000 
     56 CA        199.9370  133.9650   61.8750 C.3       8 GLP5        0.0000 
     57 CA        199.9485  133.6125   57.9325 C.3       4 GLC5        0.0000 
     58 CA        198.7710  135.3340   57.1300 C.3       8 GLP5        0.0000 
     59 O         200.9650  133.6140   56.8055 O.2       1 ALC1        0.0000 
     60 O         200.5990  132.8410   57.9660 O.2       9 ALL1        0.0000 
     61 O         201.3310  134.3870   55.6450 O.2       5 ALP1        0.0000 
     62 CA        202.0275  128.7685   58.6045 C.3       4 GLC5        0.0000 
     63 CA        202.9960  130.5980   59.4470 C.3      12 GLL5        0.0000 
     64 CA        203.3845  130.8300   61.4645 C.3       4 GLC5        0.0000 
     65 CA        201.0045  128.5815   59.0575 C.3       4 GLC5        0.0000 
     66 CA        200.9500  130.2240   60.3530 C.3      12 GLL5        0.0000 
     67 CA        200.4435  132.0945   61.1140 C.3       4 GLC5        0.0000 
     68 CA        202.3615  130.6430   61.9175 C.3       4 GLC5        0.0000 
     69 CA        201.7480  128.5285   61.3870 C.3       4 GLC5        0.0000 
     70 CA        202.5460  126.8330   62.4210 C.3       8 GLP5        0.0000 
     71 N         199.0070  131.1240   60.0245 N.am      2 SEC2        0.0000 
     72 N         200.3510  131.1780   59.6130 N.am     10 SEL2        0.0000 
     73 N         197.6630  131.0700   60.4360 N.am      6 SEP2        0.0000 
     74 CA        202.2152  133.7320   58.9445 C.3       4 GLC5        0.0000 
     75 CA        202.6130  135.7190   59.1990 C.3       8 GLP5        0.0000 
@<TRIPOS>BOND
@<TRIPOS>SUBSTRUCTURE
     1 ALC1       34 GROUP        1 X    ALC  0     ROOT ALC X 1
     2 SEC2        1 GROUP        1 X    SEC  0     **** SEC X 2
     3 LYC4        9 GROUP        1 X    LYC  0     **** LYC X 4
     4 GLC5       20 GROUP        1 X    GLC  0     **** GLC X 6
     5 ALP1       36 GROUP        1 Y    ALP  0     ROOT ALP Y 8
     6 SEP2        3 GROUP        1 Y    SEP  0     **** SEP Y 9
     7 LYP4       11 GROUP        1 Y    LYP  0     **** LYP Y 11
     8 GLP5       22 GROUP        1 Y    GLP  0     **** GLP Y 13
     9 ALL1       35 GROUP        1 Z    ALL  0     ROOT ALL Z 15
    10 SEL2        2 GROUP        1 Z    SEL  0     **** SEL Z 16
    11 LYL4       10 GROUP        1 Z    LYL  0     **** LYL Z 18
    12 GLL5       21 GROUP        1 Z    GLL  0     **** GLL Z 20
@<TRIPOS>SET

