#    Name: 1t8s_FMP_3_ligand
#    Modification time : Tue Mar 25 04:29:04 2014

@<TRIPOS>MOLECULE
1t8s_FMP_3_ligand
   35    37     1     0     0
SMALL
NO_CHARGES


@<TRIPOS>ATOM
      1 P         204.6430  126.9830   54.7660 P.3       1 FMP503      0.0000 
      2 O1P       203.5990  125.9510   55.0250 O.co2     1 FMP503      0.0000 
      3 O2P       205.5980  126.6490   53.6710 O.co2     1 FMP503      0.0000 
      4 O3P       204.1150  128.3980   54.7370 O.co2     1 FMP503      0.0000 
      5 O5'       205.4870  126.9380   56.1030 O.3       1 FMP503      0.0000 
      6 C5'       205.0420  127.1420   57.4610 C.3       1 FMP503      0.0000 
      7 C4'       206.0960  127.7830   58.3930 C.3       1 FMP503      0.0000 
      8 O4'       205.9430  129.2100   58.2610 O.3       1 FMP503      0.0000 
      9 C3'       205.8230  127.3810   59.8550 C.3       1 FMP503      0.0000 
     10 O3'       207.0150  126.8800   60.4660 O.3       1 FMP503      0.0000 
     11 C2'       205.3960  128.6300   60.5700 C.3       1 FMP503      0.0000 
     12 O2'       206.0870  128.8360   61.8040 O.3       1 FMP503      0.0000 
     13 C1'       205.5690  129.6980   59.5330 C.3       1 FMP503      0.0000 
     14 C9        204.3770  130.5030   59.1450 C.2       1 FMP503      0.0000 
     15 N8        204.6120  131.4180   58.2380 N.2       1 FMP503      0.0000 
     16 N7        203.5240  132.1180   57.8850 N.pl3     1 FMP503      0.0000 
     17 C6        201.1260  131.8910   58.7350 C.ar      1 FMP503      0.0000 
     18 N6        200.5990  132.8410   57.9660 N.pl3     1 FMP503      0.0000 
     19 C5        202.5090  131.5990   58.6450 C.ar      1 FMP503      0.0000 
     20 C4        202.9960  130.5980   59.4470 C.ar      1 FMP503      0.0000 
     21 N3        202.2480  129.8480   60.3540 N.ar      1 FMP503      0.0000 
     22 C2        200.9500  130.2240   60.3530 C.ar      1 FMP503      0.0000 
     23 N1        200.3510  131.1780   59.6130 N.ar      1 FMP503      0.0000 
     24 H         204.7333  126.1810   57.9299 H         1 FMP503      0.0000 
     25 H         204.1395  127.7924   57.4932 H         1 FMP503      0.0000 
     26 H         207.0536  127.4565   58.1039 H         1 FMP503      0.0000 
     27 H         205.0274  126.6802   59.8673 H         1 FMP503      0.0000 
     28 H         204.3064  128.5244   60.7318 H         1 FMP503      0.0000 
     29 H         206.3411  130.4171   59.8565 H         1 FMP503      0.0000 
     30 H         203.4542  132.8150   57.2563 H         1 FMP503      0.0000 
     31 H         201.0540  133.0007   57.0899 H         1 FMP503      0.0000 
     32 H         199.7956  133.3093   58.3336 H         1 FMP503      0.0000 
     33 H         200.2953  129.6771   61.0504 H         1 FMP503      0.0000 
     34 H         206.7003  126.3659   61.2639 H         1 FMP503      0.0000 
     35 H         206.6175  128.0003   61.9461 H         1 FMP503      0.0000 
@<TRIPOS>BOND
     1    2    1 ar   
     2    3    1 ar   
     3    4    1 ar   
     4    5    1 1    
     5    6    5 1    
     6    7    6 1    
     7   24    6 1    
     8   25    6 1    
     9    8    7 1    
    10    9    7 1    
    11   26    7 1    
    12   13    8 1    
    13   10    9 1    
    14   11    9 1    
    15   27    9 1    
    16   34   10 1    
    17   12   11 1    
    18   13   11 1    
    19   28   11 1    
    20   35   12 1    
    21   14   13 1    
    22   29   13 1    
    23   15   14 2    
    24   20   14 1    
    25   16   15 1    
    26   19   16 1    
    27   30   16 1    
    28   18   17 1    
    29   19   17 ar   
    30   23   17 ar   
    31   31   18 1    
    32   32   18 1    
    33   20   19 ar   
    34   21   20 ar   
    35   22   21 ar   
    36   23   22 ar   
    37   33   22 1    
@<TRIPOS>SUBSTRUCTURE
     1 FMP503      1 GROUP   
@<TRIPOS>SET

