#    Name: 3mj2_MJG_1_INTS_M
#    Modification time : Mon Mar 24 23:15:06 2014

@<TRIPOS>MOLECULE
3mj2_MJG_1_INTS_M
   78     0     9     0     0
SMALL
NO_CHARGES


@<TRIPOS>ATOM
      1 CA         17.7860    3.0395    1.1475 C.3       3 GLC5        0.0000 
      2 CA         17.8270    0.9430    0.9610 C.3       9 GLL5        0.0000 
      3 CA         17.7450    5.1360    1.3340 C.3       6 GLP5        0.0000 
      4 CA         17.6100    0.7350    2.8775 C.3       3 GLC5        0.0000 
      5 CA         17.3930    0.5270    4.7940 C.3       6 GLP5        0.0000 
      6 CA         16.2145    2.4750    1.1710 C.3       3 GLC5        0.0000 
      7 CA         14.6020    4.0070    1.3810 C.3       6 GLP5        0.0000 
      8 CA         21.3615    2.6775   -3.2635 C.3       3 GLC5        0.0000 
      9 CA         20.0900    4.3730   -2.8630 C.3       9 GLL5        0.0000 
     10 CA         22.6330    0.9820   -3.6640 C.3       6 GLP5        0.0000 
     11 CA         20.5750    6.2760   -5.3575 C.3       3 GLC5        0.0000 
     12 CA         19.9070    5.6190   -3.7370 C.3       9 GLL5        0.0000 
     13 CA         21.2430    6.9330   -6.9780 C.3       6 GLP5        0.0000 
     14 CA         20.9325    7.6830   -5.1970 C.3       3 GLC5        0.0000 
     15 CA         20.6220    8.4330   -3.4160 C.3       9 GLL5        0.0000 
     16 CA         15.0430    0.0135   -4.1010 C.3       3 GLC5        0.0000 
     17 CA         13.5260    1.5490   -4.1400 C.3       9 GLL5        0.0000 
     18 CA         16.5600   -1.5220   -4.0620 C.3       6 GLP5        0.0000 
     19 CA         12.8830   -0.1300   -4.7775 C.3       3 GLC5        0.0000 
     20 CA         12.2400   -1.8090   -5.4150 C.3       6 GLP5        0.0000 
     21 CA         11.8595    3.5600   -5.1430 C.3       3 GLC5        0.0000 
     22 CA         11.8230    3.6540   -3.4980 C.3       9 GLL5        0.0000 
     23 CA         11.8960    3.4660   -6.7880 C.3       6 GLP5        0.0000 
     24 CA          9.9625    4.4705   -4.1745 C.3       3 GLC5        0.0000 
     25 CA          8.1020    5.2870   -4.8510 C.3       6 GLP5        0.0000 
     26 CA         10.5845    4.0710   -1.8950 C.3       3 GLC5        0.0000 
     27 CA          9.3460    4.4880   -0.2920 C.3       6 GLP5        0.0000 
     28 CA         12.3355    3.6015   -1.8845 C.3       3 GLC5        0.0000 
     29 CA         12.8480    3.5490   -0.2710 C.3       6 GLP5        0.0000 
     30 CA         14.5580    5.9250   -5.5195 C.3       3 GLC5        0.0000 
     31 CA         14.1430    4.5720   -3.8870 C.3       9 GLL5        0.0000 
     32 CA         14.9730    7.2780   -7.1520 C.3       6 GLP5        0.0000 
     33 CA         15.2150    4.0500   -5.4895 C.3       3 GLC5        0.0000 
     34 CA         16.2870    3.5280   -7.0920 C.3       6 GLP5        0.0000 
     35 CA         13.0195    4.0190   -5.3375 C.3       3 GLC5        0.0000 
     36 CA         13.4955    4.0605   -2.0790 C.3       3 GLC5        0.0000 
     37 N          10.3750    5.5215   -3.0380 N.am      2 SEC2        0.0000 
     38 N          11.7330    4.9610   -3.3180 N.am      8 SEL2        0.0000 
     39 N           9.0170    6.0820   -2.7580 N.am      5 SEP2        0.0000 
     40 O          11.8580    7.6690   -2.6250 O.2       1 ALC1        0.0000 
     41 O          12.9280    7.0280   -3.3380 O.2       7 ALL1        0.0000 
     42 O          10.7880    8.3100   -1.9120 O.2       4 ALP1        0.0000 
     43 CA         14.5550    8.2215   -5.2870 C.3       3 GLC5        0.0000 
     44 CA         14.1370    9.1650   -3.4220 C.3       9 GLL5        0.0000 
     45 CA         13.5825    9.2855   -1.6840 C.3       3 GLC5        0.0000 
     46 CA         12.9480    9.8930   -3.5310 C.3       9 GLL5        0.0000 
     47 CA         14.2170    8.6780    0.1630 C.3       6 GLP5        0.0000 
     48 CA         11.4615    0.0745   -1.1865 C.3       3 GLC5        0.0000 
     49 CA         13.4780   -0.0620   -1.5280 C.3       9 GLL5        0.0000 
     50 CA          9.4450    0.2110   -0.8450 C.3       6 GLP5        0.0000 
     51 CA         12.0710   -1.1810   -2.6035 C.3       3 GLC5        0.0000 
     52 CA         10.6640   -2.3000   -3.6790 C.3       6 GLP5        0.0000 
     53 CA         13.1630    1.7435   -0.8995 C.3       3 GLC5        0.0000 
     54 CA         16.8480   -0.0187   -2.9720 C.3       3 GLC5        0.0000 
     55 CA         17.0640    1.1020   -1.2970 C.3       9 GLL5        0.0000 
     56 CA         17.5512    2.1667   -4.6973 C.3       3 GLC5        0.0000 
     57 CA         17.2080    1.8670   -2.4670 C.3       9 GLL5        0.0000 
     58 CA         18.4420    2.4050   -6.4900 C.3       6 GLP5        0.0000 
     59 CA         16.0335    0.0800   -3.6273 C.3       3 GLC5        0.0000 
     60 CA         16.1130    1.9900   -3.3420 C.3       9 GLL5        0.0000 
     61 CA         14.0955    2.1450   -1.0039 C.3       3 GLC5        0.0000 
     62 CA         15.8490    0.4840   -1.0160 C.3       9 GLL5        0.0000 
     63 CA         19.2203    3.7005   -4.8950 C.3       3 GLC5        0.0000 
     64 CA         17.7290    5.2572   -0.4630 C.3       3 GLC5        0.0000 
     65 CA         17.7500    4.6910   -1.9260 C.3       9 GLL5        0.0000 
     66 CA         12.5913    2.9213   -5.3835 C.3       3 GLC5        0.0000 
     67 CA         13.0470    3.2040   -3.8180 C.3       9 GLL5        0.0000 
     68 CA         13.0673    2.9627   -2.1250 C.3       3 GLC5        0.0000 
     69 CA         14.6381    9.5241   -1.5864 C.3       3 GLC5        0.0000 
     70 CA         10.9958   10.5593   -2.7043 C.3       3 GLC5        0.0000 
     71 CA          9.0300   10.5340   -1.8900 C.3       6 GLP5        0.0000 
     72 CA         15.5219   11.1484   -8.2769 C.3       3 GLC5        0.0000 
     73 CA         14.5530   12.8360   -8.3320 C.3       9 GLL5        0.0000 
     74 CA         15.9000    9.4510   -8.9750 C.3       6 GLP5        0.0000 
     75 CA         15.4772   -0.6382   -2.7740 C.3       3 GLC5        0.0000 
     76 CA         14.7730    0.6220   -1.8720 C.3       9 GLL5        0.0000 
     77 CA         13.7858   -0.4178    0.2085 C.3       3 GLC5        0.0000 
     78 CA         13.1770   -1.0810    1.9030 C.3       6 GLP5        0.0000 
@<TRIPOS>BOND
@<TRIPOS>SUBSTRUCTURE
     1 ALC1       40 GROUP        1 X    ALC  0     ROOT ALC X 1
     2 SEC2       37 GROUP        1 X    SEC  0     **** SEC X 2
     3 GLC5        1 GROUP        1 X    GLC  0     **** GLC X 6
     4 ALP1       42 GROUP        1 Y    ALP  0     ROOT ALP Y 8
     5 SEP2       39 GROUP        1 Y    SEP  0     **** SEP Y 9
     6 GLP5        3 GROUP        1 Y    GLP  0     **** GLP Y 13
     7 ALL1       41 GROUP        1 Z    ALL  0     ROOT ALL Z 15
     8 SEL2       38 GROUP        1 Z    SEL  0     **** SEL Z 16
     9 GLL5        2 GROUP        1 Z    GLL  0     **** GLL Z 20
@<TRIPOS>SET

