#    Name: 3mj2_MJG_1_ligand
#    Modification time : Mon Mar 24 23:15:06 2014

@<TRIPOS>MOLECULE
3mj2_MJG_1_ligand
   83    86     1     0     0
SMALL
NO_CHARGES


@<TRIPOS>ATOM
      1 C1         17.0640    1.1020   -1.2970 C.ar      1 MJG1        0.0000 
      2 C2         17.2080    1.8670   -2.4670 C.ar      1 MJG1        0.0000 
      3 C3         16.1130    1.9900   -3.3420 C.ar      1 MJG1        0.0000 
      4 C4         14.9010    1.3740   -3.0430 C.ar      1 MJG1        0.0000 
      5 C5         14.7730    0.6220   -1.8720 C.ar      1 MJG1        0.0000 
      6 C6         15.8490    0.4840   -1.0160 C.ar      1 MJG1        0.0000 
      7 O7         18.1130    0.9620   -0.4400 O.3       1 MJG1        0.0000 
      8 C8         17.8270    0.9430    0.9610 C.3       1 MJG1        0.0000 
      9 C9         18.5100    2.5080   -2.7770 C.2       1 MJG1        0.0000 
     10 N10        18.7650    3.8140   -2.5380 N.am      1 MJG1        0.0000 
     11 O11        19.3820    1.8210   -3.2740 O.2       1 MJG1        0.0000 
     12 C12        20.0900    4.3730   -2.8630 C.3       1 MJG1        0.0000 
     13 C13        19.9070    5.6190   -3.7370 C.3       1 MJG1        0.0000 
     14 N14        18.9850    6.5620   -3.0720 N.am      1 MJG1        0.0000 
     15 C15        17.6760    6.0660   -2.5940 C.3       1 MJG1        0.0000 
     16 C16        17.7500    4.6910   -1.9260 C.3       1 MJG1        0.0000 
     17 C17        19.3040    7.8770   -2.9280 C.2       1 MJG1        0.0000 
     18 C18        20.6220    8.4330   -3.4160 C.3       1 MJG1        0.0000 
     19 O19        18.5260    8.6390   -2.3890 O.2       1 MJG1        0.0000 
     20 S20        13.5260    1.5490   -4.1400 S.3       1 MJG1        0.0000 
     21 C21        11.8230    3.6540   -3.4980 C.2       1 MJG1        0.0000 
     22 C22        13.0470    3.2040   -3.8180 C.2       1 MJG1        0.0000 
     23 S23        14.1430    4.5720   -3.8870 S.3       1 MJG1        0.0000 
     24 C24        12.8250    5.6490   -3.4480 C.2       1 MJG1        0.0000 
     25 N25        11.7330    4.9610   -3.3180 N.2       1 MJG1        0.0000 
     26 N26        12.9280    7.0280   -3.3380 N.am      1 MJG1        0.0000 
     27 C27        14.1040    7.6860   -3.4790 C.2       1 MJG1        0.0000 
     28 C28        14.1370    9.1650   -3.4220 C.ar      1 MJG1        0.0000 
     29 C29        15.3560    9.8500   -3.3230 C.ar      1 MJG1        0.0000 
     30 C30        15.3720   11.2330   -3.2990 C.ar      1 MJG1        0.0000 
     31 C31        14.1850   11.9460   -3.3920 C.ar      1 MJG1        0.0000 
     32 C32        12.9750   11.2760   -3.5060 C.ar      1 MJG1        0.0000 
     33 C33        12.9480    9.8930   -3.5310 C.ar      1 MJG1        0.0000 
     34 O34        15.1400    7.0770   -3.6930 O.2       1 MJG1        0.0000 
     35 C35        14.1970   13.4560   -3.3780 C.3       1 MJG1        0.0000 
     36 N36        14.6390   14.0460   -4.6670 N.4       1 MJG1        0.0000 
     37 C37        14.1220   13.3900   -5.8930 C.3       1 MJG1        0.0000 
     38 C38        15.1790   13.3410   -7.0270 C.3       1 MJG1        0.0000 
     39 C39        16.2900   12.3700   -6.6240 C.3       1 MJG1        0.0000 
     40 C40        14.5530   12.8360   -8.3320 C.3       1 MJG1        0.0000 
     41 C41        15.8390   14.6950   -7.3090 C.3       1 MJG1        0.0000 
     42 C42        13.4780   -0.0620   -1.5280 C.3       1 MJG1        0.0000 
     43 C43        12.7880   14.0250   -6.3270 C.3       1 MJG1        0.0000 
     44 H          16.2152    2.5390   -4.2048 H         1 MJG1        0.0000 
     45 H          15.7549   -0.0835   -0.1564 H         1 MJG1        0.0000 
     46 H          20.6890    3.6519   -3.4132 H         1 MJG1        0.0000 
     47 H          20.6197    4.6618   -1.9588 H         1 MJG1        0.0000 
     48 H          19.5088    5.3075   -4.7018 H         1 MJG1        0.0000 
     49 H          20.8826    6.0785   -3.8904 H         1 MJG1        0.0000 
     50 H          16.9627    6.0010   -3.4364 H         1 MJG1        0.0000 
     51 H          17.2410    6.7778   -1.8682 H         1 MJG1        0.0000 
     52 H          17.9678    4.8409   -0.8554 H         1 MJG1        0.0000 
     53 H          16.7525    4.2250   -1.9884 H         1 MJG1        0.0000 
     54 H          11.0295    3.0269   -3.4034 H         1 MJG1        0.0000 
     55 H          12.0496    7.5728   -3.1367 H         1 MJG1        0.0000 
     56 H          16.2331    9.3174   -3.2687 H         1 MJG1        0.0000 
     57 H          16.2672   11.7373   -3.2118 H         1 MJG1        0.0000 
     58 H          12.0968   11.8109   -3.5720 H         1 MJG1        0.0000 
     59 H          12.0540    9.3925   -3.6298 H         1 MJG1        0.0000 
     60 H          14.8609   13.7983   -2.5637 H         1 MJG1        0.0000 
     61 H          13.1822   13.8169   -3.1308 H         1 MJG1        0.0000 
     62 H          13.8907   12.3264   -5.6333 H         1 MJG1        0.0000 
     63 H          18.6569    0.8329    1.5080 H         1 MJG1        0.0000 
     64 H          17.3878    1.7895    1.2619 H         1 MJG1        0.0000 
     65 H          17.2135    0.1918    1.2047 H         1 MJG1        0.0000 
     66 H          21.3999    7.9866   -2.9738 H         1 MJG1        0.0000 
     67 H          20.7349    8.3097   -4.4019 H         1 MJG1        0.0000 
     68 H          20.7028    9.4126   -3.2320 H         1 MJG1        0.0000 
     69 H          16.9994   12.3054   -7.3258 H         1 MJG1        0.0000 
     70 H          16.7405   12.6520   -5.7770 H         1 MJG1        0.0000 
     71 H          15.9393   11.4453   -6.4757 H         1 MJG1        0.0000 
     72 H          15.2224   12.7960   -9.0739 H         1 MJG1        0.0000 
     73 H          14.1730   11.9166   -8.2302 H         1 MJG1        0.0000 
     74 H          13.8087   13.4283   -8.6404 H         1 MJG1        0.0000 
     75 H          16.3098   15.0537   -6.5030 H         1 MJG1        0.0000 
     76 H          16.5175   14.6322   -8.0409 H         1 MJG1        0.0000 
     77 H          15.1696   15.3835   -7.5881 H         1 MJG1        0.0000 
     78 H          13.2102   -0.7239   -2.2281 H         1 MJG1        0.0000 
     79 H          13.5391   -0.5593   -0.6626 H         1 MJG1        0.0000 
     80 H          12.7256    0.5906   -1.4385 H         1 MJG1        0.0000 
     81 H          12.8877   15.0003   -6.5240 H         1 MJG1        0.0000 
     82 H          12.4233   13.5950   -7.1529 H         1 MJG1        0.0000 
     83 H          12.0878   13.9392   -5.6182 H         1 MJG1        0.0000 
@<TRIPOS>BOND
     1    2    1 ar   
     2    6    1 ar   
     3    7    1 1    
     4    3    2 ar   
     5    9    2 1    
     6    4    3 ar   
     7   44    3 1    
     8    5    4 ar   
     9   20    4 1    
    10    6    5 ar   
    11   42    5 1    
    12   45    6 1    
    13    8    7 1    
    14   63    8 1    
    15   64    8 1    
    16   65    8 1    
    17   10    9 am   
    18   11    9 2    
    19   12   10 1    
    20   16   10 1    
    21   13   12 1    
    22   46   12 1    
    23   47   12 1    
    24   14   13 1    
    25   48   13 1    
    26   49   13 1    
    27   15   14 1    
    28   17   14 am   
    29   16   15 1    
    30   50   15 1    
    31   51   15 1    
    32   52   16 1    
    33   53   16 1    
    34   18   17 1    
    35   19   17 2    
    36   66   18 1    
    37   67   18 1    
    38   68   18 1    
    39   22   20 1    
    40   22   21 2    
    41   25   21 1    
    42   54   21 1    
    43   23   22 1    
    44   24   23 1    
    45   25   24 2    
    46   26   24 1    
    47   27   26 am   
    48   55   26 1    
    49   28   27 1    
    50   34   27 2    
    51   29   28 ar   
    52   33   28 ar   
    53   30   29 ar   
    54   56   29 1    
    55   31   30 ar   
    56   57   30 1    
    57   32   31 ar   
    58   35   31 1    
    59   33   32 ar   
    60   58   32 1    
    61   59   33 1    
    62   36   35 1    
    63   60   35 1    
    64   61   35 1    
    65   37   36 1    
    66   38   37 1    
    67   43   37 1    
    68   62   37 1    
    69   39   38 1    
    70   40   38 1    
    71   41   38 1    
    72   69   39 1    
    73   70   39 1    
    74   71   39 1    
    75   72   40 1    
    76   73   40 1    
    77   74   40 1    
    78   75   41 1    
    79   76   41 1    
    80   77   41 1    
    81   78   42 1    
    82   79   42 1    
    83   80   42 1    
    84   81   43 1    
    85   82   43 1    
    86   83   43 1    
@<TRIPOS>SUBSTRUCTURE
     1 MJG1        1 GROUP   
@<TRIPOS>SET

