#    Name: 2jh6_894_1_INTS_M
#    Modification time : Tue Mar 25 20:46:20 2014

@<TRIPOS>MOLECULE
2jh6_894_1_INTS_M
   67     0     6     0     0
SMALL
NO_CHARGES


@<TRIPOS>ATOM
      1 CA          8.9435   25.6075   44.2040 C.3       2 GLC5        0.0000 
      2 CA         10.1820   25.4840   46.0270 C.3       6 GLL5        0.0000 
      3 CA          7.7050   25.7310   42.3810 C.3       4 GLP5        0.0000 
      4 CA         11.0000   26.9385   45.2615 C.3       2 GLC5        0.0000 
      5 CA         11.8180   28.3930   44.4960 C.3       4 GLP5        0.0000 
      6 CA         12.3005   24.3255   47.4950 C.3       2 GLC5        0.0000 
      7 CA         11.3340   22.9690   46.4370 C.3       6 GLL5        0.0000 
      8 CA         13.2670   25.6820   48.5530 C.3       4 GLP5        0.0000 
      9 CA         11.2080   23.5125   44.6590 C.3       2 GLC5        0.0000 
     10 CA         11.0820   24.0560   42.8810 C.3       4 GLP5        0.0000 
     11 CA         12.4405   20.3045   48.4390 C.3       2 GLC5        0.0000 
     12 CA         11.2600   21.8240   47.3090 C.3       6 GLL5        0.0000 
     13 CA         13.6210   18.7850   49.5690 C.3       4 GLP5        0.0000 
     14 CA         11.6310   21.4310   50.0470 C.3       2 GLC5        0.0000 
     15 CA          9.8880   20.9240   49.3310 C.3       6 GLL5        0.0000 
     16 CA         13.3740   21.9380   50.7630 C.3       4 GLP5        0.0000 
     17 CA         10.4460   20.9705   51.4885 C.3       2 GLC5        0.0000 
     18 CA         11.0040   21.0170   53.6460 C.3       4 GLP5        0.0000 
     19 N          10.1355   16.6155   47.5915 N.am      1 SEC2        0.0000 
     20 N           9.7820   17.0120   49.1100 N.am      5 SEL2        0.0000 
     21 N          10.4890   16.2190   46.0730 N.am      3 SEP2        0.0000 
     22 N           7.1295   20.6310   47.1620 N.am      1 SEC2        0.0000 
     23 N           6.6360   20.2010   48.6120 N.am      5 SEL2        0.0000 
     24 N           7.6230   21.0610   45.7120 N.am      3 SEP2        0.0000 
     25 CA         -0.1545   19.4325   51.1415 C.3       2 GLC5        0.0000 
     26 CA          1.4200   20.2970   51.1100 C.3       6 GLL5        0.0000 
     27 CA         -1.7290   18.5680   51.1730 C.3       4 GLP5        0.0000 
     28 CA          1.4310   21.4405   49.5325 C.3       2 GLC5        0.0000 
     29 CA          1.4420   22.5840   47.9550 C.3       4 GLP5        0.0000 
     30 CA          0.2145   19.5410   53.0240 C.3       2 GLC5        0.0000 
     31 CA          1.7920   19.9460   52.5430 C.3       6 GLL5        0.0000 
     32 CA         -1.3630   19.1360   53.5050 C.3       4 GLP5        0.0000 
     33 CA          2.4810   18.8815   53.6455 C.3       2 GLC5        0.0000 
     34 CA          3.1700   17.8170   54.7480 C.3       4 GLP5        0.0000 
     35 CA          3.6255   19.1805   53.4640 C.3       2 GLC5        0.0000 
     36 CA          4.0810   20.5440   52.1800 C.3       6 GLL5        0.0000 
     37 CA          2.6045   21.7920   49.3515 C.3       2 GLC5        0.0000 
     38 CA          3.7670   21.0000   50.7480 C.3       6 GLL5        0.0000 
     39 CA         11.3410   24.5785   48.3695 C.3       2 GLC5        0.0000 
     40 CA          9.4150   23.4750   48.1860 C.3       6 GLL5        0.0000 
     41 CA          9.6585   25.2070   48.6935 C.3       2 GLC5        0.0000 
     42 CA          9.9020   26.9390   49.2010 C.3       4 GLP5        0.0000 
     43 CA          9.3055   19.9580   46.7710 C.3       2 GLC5        0.0000 
     44 CA         10.0430   19.5390   48.6910 C.3       6 GLL5        0.0000 
     45 CA          8.5680   20.3770   44.8510 C.3       4 GLP5        0.0000 
     46 CA         10.9390   17.7865   47.6330 C.3       2 GLC5        0.0000 
     47 CA         11.8350   16.0340   46.5750 C.3       4 GLP5        0.0000 
     48 CA         11.7650   25.2000   47.4882 C.3       2 GLC5        0.0000 
     49 CA         10.3440   23.9520   46.8200 C.3       6 GLL5        0.0000 
     50 CA         10.0825   25.8285   47.8123 C.3       2 GLC5        0.0000 
     51 CA         10.6725   24.3870   44.6522 C.3       2 GLC5        0.0000 
     52 CA         12.0580   21.9177   49.2837 C.3       2 GLC5        0.0000 
     53 CA          8.1614   22.8381   47.2162 C.3       2 GLC5        0.0000 
     54 CA         10.2240   21.9710   48.3000 C.3       6 GLL5        0.0000 
     55 CA          6.2710   22.8340   46.5310 C.3       4 GLP5        0.0000 
     56 CA         11.7933   19.5083   49.2900 C.3       2 GLC5        0.0000 
     57 CA          4.4143   17.0882   51.7683 C.3       2 GLC5        0.0000 
     58 CA          6.0160   17.0240   50.2100 C.3       6 GLL5        0.0000 
     59 CA          3.4830   16.9730   53.6650 C.3       4 GLP5        0.0000 
     60 CA          2.5397   20.8815   47.7467 C.3       2 GLC5        0.0000 
     61 CA          3.8220   19.4540   48.2360 C.3       6 GLL5        0.0000 
     62 CA          4.2873   20.6685   46.8522 C.3       2 GLC5        0.0000 
     63 CA          4.9370   22.1580   46.1660 C.3       4 GLP5        0.0000 
     64 CA          2.2115   22.0542   52.3157 C.3       2 GLC5        0.0000 
     65 CA          2.8170   23.9870   52.8050 C.3       4 GLP5        0.0000 
     66 CA          3.3705   22.3795   52.1345 C.3       2 GLC5        0.0000 
     67 CA          9.6792   21.5280   46.0337 C.3       2 GLC5        0.0000 
@<TRIPOS>BOND
@<TRIPOS>SUBSTRUCTURE
     1 SEC2       19 GROUP        1 X    SEC  0     ROOT SEC X 2
     2 GLC5        1 GROUP        1 X    GLC  0     **** GLC X 6
     3 SEP2       21 GROUP        1 Y    SEP  0     ROOT SEP Y 9
     4 GLP5        3 GROUP        1 Y    GLP  0     **** GLP Y 13
     5 SEL2       20 GROUP        1 Z    SEL  0     ROOT SEL Z 16
     6 GLL5        2 GROUP        1 Z    GLL  0     **** GLL Z 20
@<TRIPOS>SET

