#    Name: 2jh6_894_1_ligand
#    Modification time : Tue Mar 25 20:46:20 2014

@<TRIPOS>MOLECULE
2jh6_894_1_ligand
   52    54     1     0     0
SMALL
NO_CHARGES


@<TRIPOS>ATOM
      1 CL1        10.1820   25.4840   46.0270 Cl        1 8941249     0.0000 
      2 C1         10.3440   23.9520   46.8200 C.2       1 8941249     0.0000 
      3 C2         11.3340   22.9690   46.4370 C.2       1 8941249     0.0000 
      4 C3         11.2600   21.8240   47.3090 C.2       1 8941249     0.0000 
      5 C4         10.2240   21.9710   48.3000 C.2       1 8941249     0.0000 
      6 C9          9.8880   20.9240   49.3310 C.3       1 8941249     0.0000 
      7 S1          9.6460   18.2320   49.8450 S.o2      1 8941249     0.0000 
      8 O2          9.7820   17.0120   49.1100 O.2       1 8941249     0.0000 
      9 O1         10.4020   18.4090   51.0490 O.2       1 8941249     0.0000 
     10 N1          8.1290   18.3930   50.3470 N.pl3     1 8941249     0.0000 
     11 C12         7.0220   17.9620   49.4970 C.3       1 8941249     0.0000 
     12 C13         6.0160   17.0240   50.2100 C.3       1 8941249     0.0000 
     13 C14         4.6750   17.3830   49.5330 C.3       1 8941249     0.0000 
     14 C15         6.1860   19.1020   48.9300 C.2       1 8941249     0.0000 
     15 O3          6.6360   20.2010   48.6120 O.2       1 8941249     0.0000 
     16 N2          4.9020   18.6790   48.8700 N.am      1 8941249     0.0000 
     17 C16         3.8220   19.4540   48.2360 C.3       1 8941249     0.0000 
     18 C17         3.4530   18.9040   46.8410 C.3       1 8941249     0.0000 
     19 C18         2.5720   19.5120   49.1110 C.2       1 8941249     0.0000 
     20 O4          1.5710   18.9070   48.7750 O.2       1 8941249     0.0000 
     21 N3          2.6100   20.2310   50.2580 N.am      1 8941249     0.0000 
     22 C19         1.4200   20.2970   51.1100 C.3       1 8941249     0.0000 
     23 C20         1.7920   19.9460   52.5430 C.3       1 8941249     0.0000 
     24 O5          2.9090   20.7370   52.9860 O.3       1 8941249     0.0000 
     25 C22         4.0810   20.5440   52.1800 C.3       1 8941249     0.0000 
     26 C23         3.7670   21.0000   50.7480 C.3       1 8941249     0.0000 
     27 S6          9.4150   23.4750   48.1860 S.3       1 8941249     0.0000 
     28 C6         10.0430   19.5390   48.6910 C.3       1 8941249     0.0000 
     29 H          11.9373   23.0660   45.7218 H         1 8941249     0.0000 
     30 H          11.8278   21.0614   47.2388 H         1 8941249     0.0000 
     31 H           8.8665   21.0457   49.6639 H         1 8941249     0.0000 
     32 H          10.5637   21.0010   50.1716 H         1 8941249     0.0000 
     33 H           8.0097   18.7906   51.2402 H         1 8941249     0.0000 
     34 H           7.3972   17.3892   48.6301 H         1 8941249     0.0000 
     35 H           5.9737   17.2651   51.2333 H         1 8941249     0.0000 
     36 H           6.2615   16.0219   50.0038 H         1 8941249     0.0000 
     37 H           3.9222   17.4599   50.2920 H         1 8941249     0.0000 
     38 H           4.4389   16.6171   48.8214 H         1 8941249     0.0000 
     39 H           4.1583   20.4930   48.0850 H         1 8941249     0.0000 
     40 H           0.6584   19.5930   50.7672 H         1 8941249     0.0000 
     41 H           0.9910   21.3015   51.0993 H         1 8941249     0.0000 
     42 H           2.0232   18.8720   52.5803 H         1 8941249     0.0000 
     43 H           0.9079   20.1144   53.1741 H         1 8941249     0.0000 
     44 H           4.3769   19.4965   52.1388 H         1 8941249     0.0000 
     45 H           4.9228   21.1338   52.5405 H         1 8941249     0.0000 
     46 H           3.5470   22.0615   50.7668 H         1 8941249     0.0000 
     47 H           4.6408   20.8204   50.1317 H         1 8941249     0.0000 
     48 H          11.0503   19.3169   48.4112 H         1 8941249     0.0000 
     49 H           9.3581   19.3692   47.8883 H         1 8941249     0.0000 
     50 H           4.2330   18.9244   46.2155 H         1 8941249     0.0000 
     51 H           3.1388   17.9558   46.8869 H         1 8941249     0.0000 
     52 H           2.7210   19.4350   46.4141 H         1 8941249     0.0000 
@<TRIPOS>BOND
     1    2    1 1    
     2    3    2 2    
     3   27    2 1    
     4    4    3 1    
     5   29    3 1    
     6    5    4 2    
     7   30    4 1    
     8    6    5 1    
     9   27    5 1    
    10   28    6 1    
    11   31    6 1    
    12   32    6 1    
    13    8    7 2    
    14    9    7 2    
    15   10    7 1    
    16   28    7 1    
    17   11   10 1    
    18   33   10 1    
    19   12   11 1    
    20   14   11 1    
    21   34   11 1    
    22   13   12 1    
    23   35   12 1    
    24   36   12 1    
    25   16   13 1    
    26   37   13 1    
    27   38   13 1    
    28   15   14 2    
    29   16   14 am   
    30   17   16 1    
    31   18   17 1    
    32   19   17 1    
    33   39   17 1    
    34   50   18 1    
    35   51   18 1    
    36   52   18 1    
    37   20   19 2    
    38   21   19 am   
    39   22   21 1    
    40   26   21 1    
    41   23   22 1    
    42   40   22 1    
    43   41   22 1    
    44   24   23 1    
    45   42   23 1    
    46   43   23 1    
    47   25   24 1    
    48   26   25 1    
    49   44   25 1    
    50   45   25 1    
    51   46   26 1    
    52   47   26 1    
    53   48   28 1    
    54   49   28 1    
@<TRIPOS>SUBSTRUCTURE
     1 8941249     1 GROUP   
@<TRIPOS>SET

