#    Name: 2r5p_MK1_1_INTS_M
#    Modification time : Mon Mar 24 23:12:59 2014

@<TRIPOS>MOLECULE
2r5p_MK1_1_INTS_M
  114     0     9     0     0
SMALL
NO_CHARGES


@<TRIPOS>ATOM
      1 CA         29.1615   -7.8555   -0.1075 C.3       3 GLC5        0.0000 
      2 CA         27.9290   -8.3930   -1.5440 C.3       9 GLL5        0.0000 
      3 CA         30.3940   -7.3180    1.3290 C.3       6 GLP5        0.0000 
      4 O          29.5985   -8.4455   -4.3245 O.2       1 ALC1        0.0000 
      5 O          30.6940   -9.0480   -3.3730 O.2       7 ALL1        0.0000 
      6 O          28.5030   -7.8430   -5.2760 O.2       4 ALP1        0.0000 
      7 CA         31.5335  -10.2025   -5.6820 C.3       3 GLC5        0.0000 
      8 CA         32.3650   -8.3490   -4.9030 C.3       9 GLL5        0.0000 
      9 CA         30.7020  -12.0560   -6.4610 C.3       6 GLP5        0.0000 
     10 CA         33.2710   -7.8515   -6.7140 C.3       3 GLC5        0.0000 
     11 CA         34.1770   -7.3540   -8.5250 C.3       6 GLP5        0.0000 
     12 CA         34.1890   -7.3505   -4.1015 C.3       3 GLC5        0.0000 
     13 CA         36.0130   -6.3520   -3.3000 C.3       6 GLP5        0.0000 
     14 CA         31.7440  -11.1885   -4.9545 C.3       3 GLC5        0.0000 
     15 CA         32.7860  -10.3210   -3.4480 C.3       9 GLL5        0.0000 
     16 CA         34.6205  -10.4490   -3.9645 C.3       3 GLC5        0.0000 
     17 CA         36.4550  -10.5770   -4.4810 C.3       6 GLP5        0.0000 
     18 CA         33.5050  -11.8715   -3.0015 C.3       3 GLC5        0.0000 
     19 CA         34.2240  -13.4220   -2.5550 C.3       6 GLP5        0.0000 
     20 CA         33.5685  -10.8765   -1.6140 C.3       3 GLC5        0.0000 
     21 CA         34.3510  -11.4320    0.2200 C.3       6 GLP5        0.0000 
     22 CA         34.3825   -7.1630   -2.8900 C.3       3 GLC5        0.0000 
     23 CA         32.7520   -7.9740   -2.4800 C.3       9 GLL5        0.0000 
     24 CA         33.7410   -8.9795   -1.0445 C.3       3 GLC5        0.0000 
     25 CA         34.7300   -9.9850    0.3910 C.3       6 GLP5        0.0000 
     26 CA         26.1110   -9.9425    0.8975 C.3       3 GLC5        0.0000 
     27 CA         25.8920   -9.6050   -1.1300 C.3       9 GLL5        0.0000 
     28 CA         26.3300  -10.2800    2.9250 C.3       6 GLP5        0.0000 
     29 CA         24.1220   -8.9450   -1.3360 C.3       3 GLC5        0.0000 
     30 CA         22.3520   -8.2850   -1.5420 C.3       6 GLP5        0.0000 
     31 CA         27.1655  -12.4620   -4.4475 C.3       3 GLC5        0.0000 
     32 CA         28.3230  -12.0320   -2.6040 C.3       9 GLL5        0.0000 
     33 CA         26.0080  -12.8920   -6.2910 C.3       6 GLP5        0.0000 
     34 CA         28.8720  -11.6550   -4.6840 C.3       3 GLC5        0.0000 
     35 CA         29.4210  -11.2780   -6.7640 C.3       6 GLP5        0.0000 
     36 N          26.8930  -14.1590   -2.4150 N.am      2 SEC2        0.0000 
     37 N          28.2070  -14.3830   -2.3530 N.am      8 SEL2        0.0000 
     38 N          25.5790  -13.9350   -2.4770 N.am      5 SEP2        0.0000 
     39 O          29.2580  -14.5735   -3.1915 O.2       1 ALC1        0.0000 
     40 O          28.2070  -14.3830   -2.3530 O.2       7 ALL1        0.0000 
     41 O          30.3090  -14.7640   -4.0300 O.2       4 ALP1        0.0000 
     42 CA         32.1590  -13.3930   -1.9055 C.3       3 GLC5        0.0000 
     43 CA         30.0940  -13.3640   -1.2560 C.3       9 GLL5        0.0000 
     44 CA         33.0635  -14.0125   -1.2755 C.3       3 GLC5        0.0000 
     45 CA         31.9030  -14.6030    0.0040 C.3       9 GLL5        0.0000 
     46 CA         33.1270  -13.0175    0.1120 C.3       3 GLC5        0.0000 
     47 CA         32.2050  -20.2895    1.2005 C.3       3 GLC5        0.0000 
     48 CA         32.2940  -18.0880    1.6280 C.3       9 GLL5        0.0000 
     49 CA         32.1160  -22.4910    0.7730 C.3       6 GLP5        0.0000 
     50 O          29.0145  -16.4885    0.3645 O.2       1 ALC1        0.0000 
     51 O          29.0600  -15.4200    1.5200 O.2       7 ALL1        0.0000 
     52 O          28.9690  -17.5570   -0.7910 O.2       4 ALP1        0.0000 
     53 CA         30.1520  -14.0495    3.5400 C.3       3 GLC5        0.0000 
     54 CA         28.6760  -15.6000    2.8800 C.3       9 GLL5        0.0000 
     55 CA         31.6280  -12.4990    4.2000 C.3       6 GLP5        0.0000 
     56 N          27.5970  -18.6900    2.0370 N.am      2 SEC2        0.0000 
     57 N          28.8000  -18.0050    2.5130 N.am      8 SEL2        0.0000 
     58 N          26.3940  -19.3750    1.5610 N.am      5 SEP2        0.0000 
     59 O          28.9850  -19.4650    3.2525 O.2       1 ALC1        0.0000 
     60 O          28.8000  -18.0050    2.5130 O.2       7 ALL1        0.0000 
     61 O          29.1700  -20.9250    3.9920 O.2       4 ALP1        0.0000 
     62 CA         27.4325  -19.0325    4.0190 C.3       3 GLC5        0.0000 
     63 CA         28.0110  -17.1060    4.6180 C.3       9 GLL5        0.0000 
     64 CA         26.8540  -20.9590    3.4200 C.3       6 GLP5        0.0000 
     65 CA         24.1505   -7.7360   -1.1475 C.3       3 GLC5        0.0000 
     66 CA         25.9490   -7.1870   -0.7530 C.3       9 GLL5        0.0000 
     67 CA         23.9045   -5.5330   -2.2145 C.3       3 GLC5        0.0000 
     68 CA         25.9800   -5.1460   -2.2680 C.3       9 GLL5        0.0000 
     69 CA         21.8290   -5.9200   -2.1610 C.3       6 GLP5        0.0000 
     70 CA         28.8120   -6.1905    0.5740 C.3       3 GLC5        0.0000 
     71 CA         27.2300   -5.0630   -0.1810 C.3       9 GLL5        0.0000 
     72 CA         24.8030  -10.5115   -3.1202 C.3       3 GLC5        0.0000 
     73 CA         23.4650  -10.8120   -4.7180 C.3       6 GLP5        0.0000 
     74 CA         24.9135  -10.9520   -0.4962 C.3       3 GLC5        0.0000 
     75 CA         26.3900  -10.8170   -1.9150 C.3       9 GLL5        0.0000 
     76 CA         23.6860  -11.6930    0.5300 C.3       6 GLP5        0.0000 
     77 CA         32.1432  -18.1668   -0.6800 C.3       3 GLC5        0.0000 
     78 CA         31.9590  -17.0730    0.7120 C.3       9 GLL5        0.0000 
     79 CA         32.1600  -18.7530   -2.5300 C.3       6 GLP5        0.0000 
     80 CA         34.1713  -17.8442    1.2395 C.3       3 GLC5        0.0000 
     81 CA         36.2160  -18.1080    1.3090 C.3       6 GLP5        0.0000 
     82 CA         34.6030  -14.7752    2.9188 C.3       3 GLC5        0.0000 
     83 CA         33.2690  -16.3760    3.1010 C.3       9 GLL5        0.0000 
     84 CA         36.1070  -13.6820    3.1990 C.3       6 GLP5        0.0000 
     85 CA         32.3635  -14.1837    3.4192 C.3       3 GLC5        0.0000 
     86 CA         32.9290  -15.3610    2.1760 C.3       9 GLL5        0.0000 
     87 CA         34.6180  -17.1569    1.9399 C.3       3 GLC5        0.0000 
     88 CA         27.1145  -16.5853    1.4177 C.3       3 GLC5        0.0000 
     89 CA         27.1900  -15.4310    3.1370 C.3       9 GLL5        0.0000 
     90 CA         26.2960  -17.6550   -0.1730 C.3       6 GLP5        0.0000 
     91 CA         27.6037  -14.0309    4.2359 C.3       3 GLC5        0.0000 
     92 CA         27.8510  -12.1350    4.8730 C.3       6 GLP5        0.0000 
     93 CA         26.2130  -15.6898    6.3418 C.3       3 GLC5        0.0000 
     94 CA         26.7800  -16.3380    4.1890 C.3       9 GLL5        0.0000 
     95 CA         26.3250  -15.0230    8.2820 C.3       6 GLP5        0.0000 
     96 CA         23.8947  -17.4707    4.7500 C.3       3 GLC5        0.0000 
     97 CA         25.4220  -16.3750    4.6140 C.3       9 GLL5        0.0000 
     98 CA         22.8300  -18.9960    5.1910 C.3       6 GLP5        0.0000 
     99 CA         23.2240  -13.9477    3.7277 C.3       3 GLC5        0.0000 
    100 CA         24.8650  -14.6250    2.9830 C.3       9 GLL5        0.0000 
    101 CA         21.7670  -12.8250    3.9620 C.3       6 GLP5        0.0000 
    102 CA         24.5925  -14.3057    5.4053 C.3       3 GLC5        0.0000 
    103 CA         24.5040  -13.5410    7.3170 C.3       6 GLP5        0.0000 
    104 CA         26.6930  -13.3720    3.8237 C.3       3 GLC5        0.0000 
    105 CA         24.6105  -13.1510    1.6522 C.3       3 GLC5        0.0000 
    106 CA         26.2050  -14.5930    2.5660 C.3       9 GLL5        0.0000 
    107 CA         25.2685  -15.7719    1.4159 C.3       3 GLC5        0.0000 
    108 CA         25.0940  -16.7120   -0.1980 C.3       6 GLP5        0.0000 
    109 CA         25.1706   -5.3729   -0.0131 C.3       3 GLC5        0.0000 
    110 CA         24.2660   -4.9320    1.5650 C.3       6 GLP5        0.0000 
    111 CA         25.8470   -4.6700    0.6095 C.3       3 GLC5        0.0000 
    112 CA         27.6260   -3.7530   -0.5110 C.3       9 GLL5        0.0000 
    113 CA         29.2496   -4.1040   -0.4012 C.3       3 GLC5        0.0000 
    114 CA         31.1860   -3.9360   -0.1540 C.3       6 GLP5        0.0000 
@<TRIPOS>BOND
@<TRIPOS>SUBSTRUCTURE
     1 ALC1        4 GROUP        1 X    ALC  0     ROOT ALC X 1
     2 SEC2       36 GROUP        1 X    SEC  0     **** SEC X 2
     3 GLC5        1 GROUP        1 X    GLC  0     **** GLC X 6
     4 ALP1        6 GROUP        1 Y    ALP  0     ROOT ALP Y 8
     5 SEP2       38 GROUP        1 Y    SEP  0     **** SEP Y 9
     6 GLP5        3 GROUP        1 Y    GLP  0     **** GLP Y 13
     7 ALL1        5 GROUP        1 Z    ALL  0     ROOT ALL Z 15
     8 SEL2       37 GROUP        1 Z    SEL  0     **** SEL Z 16
     9 GLL5        2 GROUP        1 Z    GLL  0     **** GLL Z 20
@<TRIPOS>SET

