#    Name: 2r5p_MK1_1_ligand
#    Modification time : Mon Mar 24 23:12:59 2014

@<TRIPOS>MOLECULE
2r5p_MK1_1_ligand
   93    97     1     0     0
SMALL
NO_CHARGES


@<TRIPOS>ATOM
      1 N1         26.4360   -8.3120   -1.5830 N.3       1 MK1902      0.0000 
      2 C1         27.9290   -8.3930   -1.5440 C.3       1 MK1902      0.0000 
      3 C2         28.4980   -9.5290   -2.4010 C.3       1 MK1902      0.0000 
      4 C3         30.0200   -9.5050   -2.2950 C.2       1 MK1902      0.0000 
      5 O1         30.5500   -9.8940   -1.2470 O.2       1 MK1902      0.0000 
      6 N2         30.6940   -9.0480   -3.3730 N.am      1 MK1902      0.0000 
      7 C4         32.1510   -8.9380   -3.5100 C.3       1 MK1902      0.0000 
      8 C5         32.3650   -8.3490   -4.9030 C.3       1 MK1902      0.0000 
      9 C6         32.7860  -10.3210   -3.4480 C.3       1 MK1902      0.0000 
     10 C7         32.7520   -7.9740   -2.4800 C.3       1 MK1902      0.0000 
     11 N3         27.8750  -10.8290   -1.8520 N.4       1 MK1902      0.0000 
     12 C8         26.3900  -10.8170   -1.9150 C.3       1 MK1902      0.0000 
     13 C9         25.8920   -9.6050   -1.1300 C.3       1 MK1902      0.0000 
     14 C10        28.3230  -12.0320   -2.6040 C.3       1 MK1902      0.0000 
     15 C11        28.6030  -13.2040   -1.6400 C.3       1 MK1902      0.0000 
     16 O2         28.2070  -14.3830   -2.3530 O.3       1 MK1902      0.0000 
     17 C12        30.0940  -13.3640   -1.2560 C.3       1 MK1902      0.0000 
     18 C13        30.3800  -14.5220   -0.2780 C.3       1 MK1902      0.0000 
     19 C14        31.9030  -14.6030    0.0040 C.3       1 MK1902      0.0000 
     20 C15        32.2710  -15.7110    0.9750 C.ar      1 MK1902      0.0000 
     21 C16        31.9590  -17.0730    0.7120 C.ar      1 MK1902      0.0000 
     22 C17        32.2940  -18.0880    1.6280 C.ar      1 MK1902      0.0000 
     23 C18        32.9530  -17.7250    2.8300 C.ar      1 MK1902      0.0000 
     24 C19        33.2690  -16.3760    3.1010 C.ar      1 MK1902      0.0000 
     25 C20        32.9290  -15.3610    2.1760 C.ar      1 MK1902      0.0000 
     26 C21        29.6300  -14.3110    1.0470 C.2       1 MK1902      0.0000 
     27 O3         29.5680  -13.2300    1.6440 O.2       1 MK1902      0.0000 
     28 N4         29.0600  -15.4200    1.5200 N.am      1 MK1902      0.0000 
     29 C22        28.6760  -15.6000    2.8800 C.3       1 MK1902      0.0000 
     30 C23        28.9850  -16.9600    3.4790 C.3       1 MK1902      0.0000 
     31 O4         28.8000  -18.0050    2.5130 O.3       1 MK1902      0.0000 
     32 C24        28.0110  -17.1060    4.6180 C.3       1 MK1902      0.0000 
     33 C25        26.7800  -16.3380    4.1890 C.ar      1 MK1902      0.0000 
     34 C26        25.4220  -16.3750    4.6140 C.ar      1 MK1902      0.0000 
     35 C27        24.4970  -15.5160    4.0040 C.ar      1 MK1902      0.0000 
     36 C28        24.8650  -14.6250    2.9830 C.ar      1 MK1902      0.0000 
     37 C29        26.2050  -14.5930    2.5660 C.ar      1 MK1902      0.0000 
     38 C30        27.1900  -15.4310    3.1370 C.ar      1 MK1902      0.0000 
     39 C31        25.9490   -7.1870   -0.7530 C.3       1 MK1902      0.0000 
     40 C32        26.3920   -5.7760   -1.0760 C.ar      1 MK1902      0.0000 
     41 C33        25.9800   -5.1460   -2.2680 C.ar      1 MK1902      0.0000 
     42 N5         26.3330   -3.8390   -2.6700 N.ar      1 MK1902      0.0000 
     43 C34        27.1670   -3.2090   -1.7210 C.ar      1 MK1902      0.0000 
     44 C35        27.6260   -3.7530   -0.5110 C.ar      1 MK1902      0.0000 
     45 C36        27.2300   -5.0630   -0.1810 C.ar      1 MK1902      0.0000 
     46 H          28.2685   -8.5382   -0.5050 H         1 MK1902      0.0000 
     47 H          28.3643   -7.4423   -1.8941 H         1 MK1902      0.0000 
     48 H          28.1875   -9.3838   -3.4033 H         1 MK1902      0.0000 
     49 H          30.1509   -8.7231   -4.2361 H         1 MK1902      0.0000 
     50 H          28.1765  -10.9406   -0.8114 H         1 MK1902      0.0000 
     51 H          25.9840  -11.7146   -1.4674 H         1 MK1902      0.0000 
     52 H          26.0544  -10.7318   -2.9402 H         1 MK1902      0.0000 
     53 H          24.7818   -9.5925   -1.1866 H         1 MK1902      0.0000 
     54 H          26.1366   -9.7670   -0.0577 H         1 MK1902      0.0000 
     55 H          29.2389  -11.8176   -3.1567 H         1 MK1902      0.0000 
     56 H          27.5552  -12.3476   -3.3120 H         1 MK1902      0.0000 
     57 H          28.0194  -13.0791   -0.7614 H         1 MK1902      0.0000 
     58 H          30.4440  -12.4230   -0.8049 H         1 MK1902      0.0000 
     59 H          30.6789  -13.5220   -2.1749 H         1 MK1902      0.0000 
     60 H          30.0658  -15.4424   -0.7195 H         1 MK1902      0.0000 
     61 H          32.2312  -13.6366    0.4066 H         1 MK1902      0.0000 
     62 H          32.4224  -14.7613   -0.9493 H         1 MK1902      0.0000 
     63 H          31.4795  -17.3149   -0.1656 H         1 MK1902      0.0000 
     64 H          32.0719  -19.0552    1.4377 H         1 MK1902      0.0000 
     65 H          33.2017  -18.4527    3.5084 H         1 MK1902      0.0000 
     66 H          33.7471  -16.1294    3.9719 H         1 MK1902      0.0000 
     67 H          33.1557  -14.3909    2.3735 H         1 MK1902      0.0000 
     68 H          28.8653  -16.2386    0.8741 H         1 MK1902      0.0000 
     69 H          29.1735  -14.8610    3.5442 H         1 MK1902      0.0000 
     70 H          29.9733  -16.9341    3.8774 H         1 MK1902      0.0000 
     71 H          28.4177  -16.6703    5.5066 H         1 MK1902      0.0000 
     72 H          27.7630  -18.1373    4.7588 H         1 MK1902      0.0000 
     73 H          25.1381  -17.0153    5.3463 H         1 MK1902      0.0000 
     74 H          23.5061  -15.5387    4.3171 H         1 MK1902      0.0000 
     75 H          24.1753  -14.0159    2.5549 H         1 MK1902      0.0000 
     76 H          26.4857  -13.9348    1.8150 H         1 MK1902      0.0000 
     77 H          26.2089   -7.3899    0.3323 H         1 MK1902      0.0000 
     78 H          24.8148   -7.1988   -0.7447 H         1 MK1902      0.0000 
     79 H          25.3512   -5.7001   -2.9191 H         1 MK1902      0.0000 
     80 H          27.4812   -2.2104   -1.9513 H         1 MK1902      0.0000 
     81 H          28.2229   -3.2216    0.1060 H         1 MK1902      0.0000 
     82 H          27.5372   -5.4952    0.6837 H         1 MK1902      0.0000 
     83 H          33.3359   -8.2301   -5.1108 H         1 MK1902      0.0000 
     84 H          31.9821   -8.9352   -5.6169 H         1 MK1902      0.0000 
     85 H          31.9331   -7.4520   -4.9973 H         1 MK1902      0.0000 
     86 H          33.7805  -10.2777   -3.5435 H         1 MK1902      0.0000 
     87 H          32.5946  -10.7790   -2.5799 H         1 MK1902      0.0000 
     88 H          32.4475  -10.9180   -4.1753 H         1 MK1902      0.0000 
     89 H          33.7446   -7.8998   -2.5758 H         1 MK1902      0.0000 
     90 H          32.3787   -7.0510   -2.5732 H         1 MK1902      0.0000 
     91 H          32.5693   -8.2708   -1.5427 H         1 MK1902      0.0000 
     92 H          28.9771  -14.5916   -2.9559 H         1 MK1902      0.0000 
     93 H          28.9018  -18.8554    3.0292 H         1 MK1902      0.0000 
@<TRIPOS>BOND
     1    2    1 1    
     2   13    1 1    
     3   39    1 1    
     4    3    2 1    
     5   46    2 1    
     6   47    2 1    
     7    4    3 1    
     8   11    3 1    
     9   48    3 1    
    10    5    4 2    
    11    6    4 am   
    12    7    6 1    
    13   49    6 1    
    14    8    7 1    
    15    9    7 1    
    16   10    7 1    
    17   83    8 1    
    18   84    8 1    
    19   85    8 1    
    20   86    9 1    
    21   87    9 1    
    22   88    9 1    
    23   89   10 1    
    24   90   10 1    
    25   91   10 1    
    26   12   11 1    
    27   14   11 1    
    28   50   11 1    
    29   13   12 1    
    30   51   12 1    
    31   52   12 1    
    32   53   13 1    
    33   54   13 1    
    34   15   14 1    
    35   55   14 1    
    36   56   14 1    
    37   16   15 1    
    38   17   15 1    
    39   57   15 1    
    40   92   16 1    
    41   18   17 1    
    42   58   17 1    
    43   59   17 1    
    44   19   18 1    
    45   26   18 1    
    46   60   18 1    
    47   20   19 1    
    48   61   19 1    
    49   62   19 1    
    50   21   20 ar   
    51   25   20 ar   
    52   22   21 ar   
    53   63   21 1    
    54   23   22 ar   
    55   64   22 1    
    56   24   23 ar   
    57   65   23 1    
    58   25   24 ar   
    59   66   24 1    
    60   67   25 1    
    61   27   26 2    
    62   28   26 am   
    63   29   28 1    
    64   68   28 1    
    65   30   29 1    
    66   38   29 1    
    67   69   29 1    
    68   31   30 1    
    69   32   30 1    
    70   70   30 1    
    71   93   31 1    
    72   33   32 1    
    73   71   32 1    
    74   72   32 1    
    75   34   33 ar   
    76   38   33 ar   
    77   35   34 ar   
    78   73   34 1    
    79   36   35 ar   
    80   74   35 1    
    81   37   36 ar   
    82   75   36 1    
    83   38   37 ar   
    84   76   37 1    
    85   40   39 1    
    86   77   39 1    
    87   78   39 1    
    88   41   40 ar   
    89   45   40 ar   
    90   42   41 ar   
    91   79   41 1    
    92   43   42 ar   
    93   44   43 ar   
    94   80   43 1    
    95   45   44 ar   
    96   81   44 1    
    97   82   45 1    
@<TRIPOS>SUBSTRUCTURE
     1 MK1902      1 GROUP   
@<TRIPOS>SET

