#    Name: 2fpv_ILC_2_INTS_M
#    Modification time : Tue Mar 25 13:02:41 2014

@<TRIPOS>MOLECULE
2fpv_ILC_2_INTS_M
   74     0     9     0     0
SMALL
NO_CHARGES


@<TRIPOS>ATOM
      1 CA         30.6005    9.1915   65.0980 C.3       3 GLC5        0.0000 
      2 CA         31.5780    7.8650   63.6720 C.3       9 GLL5        0.0000 
      3 CA         29.6230   10.5180   66.5240 C.3       6 GLP5        0.0000 
      4 CA         34.2580    8.9575   61.4085 C.3       3 GLC5        0.0000 
      5 CA         32.2820    8.3830   61.2920 C.3       9 GLL5        0.0000 
      6 CA         36.2340    9.5320   61.5250 C.3       6 GLP5        0.0000 
      7 CA         33.0330   17.1390   64.1670 C.3       3 GLC5        0.0000 
      8 CA         34.8640   17.1490   64.5670 C.3       9 GLL5        0.0000 
      9 CA         31.2020   17.1290   63.7670 C.3       6 GLP5        0.0000 
     10 CA         29.5475    5.1295   64.6665 C.3       3 GLC5        0.0000 
     11 CA         31.4540    4.3350   64.3950 C.3       9 GLL5        0.0000 
     12 CA         27.6410    5.9240   64.9380 C.3       6 GLP5        0.0000 
     13 CA         30.2740    4.5105   66.1405 C.3       3 GLC5        0.0000 
     14 CA         29.0940    4.6860   67.8860 C.3       6 GLP5        0.0000 
     15 CA         33.2415    3.8010   63.8010 C.3       3 GLC5        0.0000 
     16 CA         35.0290    3.2670   63.2070 C.3       6 GLP5        0.0000 
     17 CA         33.1440   13.3920   60.0920 C.3       3 GLC5        0.0000 
     18 CA         32.0950   13.6400   61.5170 C.3       9 GLL5        0.0000 
     19 CA         34.1930   13.1440   58.6670 C.3       6 GLP5        0.0000 
     20 N          36.1005   14.8830   60.9080 N.am      1 SEC2        0.0000 
     21 N          34.8940   14.6300   61.8950 N.am      7 SEL2        0.0000 
     22 N          37.3070   15.1360   59.9210 N.am      4 SEP2        0.0000 
     23 CA         36.1140   20.0075   61.3300 C.3       3 GLC5        0.0000 
     24 CA         35.7410   18.6180   62.6330 C.3       9 GLL5        0.0000 
     25 CA         36.4870   21.3970   60.0270 C.3       6 GLP5        0.0000 
     26 CA         36.7350   18.9425   65.9050 C.3       3 GLC5        0.0000 
     27 CA         35.4440   18.6950   64.2970 C.3       9 GLL5        0.0000 
     28 CA         38.0260   19.1900   67.5130 C.3       6 GLP5        0.0000 
     29 NZ         34.4315   17.6315   68.1820 N.4       2 LYC4        0.0000 
     30 NZ         34.2850   17.6890   66.8230 N.4       8 LYL4        0.0000 
     31 NZ         35.4380   16.7520   70.1340 N.4       5 LYP4        0.0000 
     32 N          34.4315   17.6315   68.1820 N.am      1 SEC2        0.0000 
     33 N          34.2850   17.6890   66.8230 N.am      7 SEL2        0.0000 
     34 N          34.5780   17.5740   69.5410 N.am      4 SEP2        0.0000 
     35 CA         33.6472    5.6840   61.3430 C.3       3 GLC5        0.0000 
     36 CA         31.9750    7.0250   60.8910 C.3       9 GLL5        0.0000 
     37 CA         35.5700    4.8170   61.3140 C.3       6 GLP5        0.0000 
     38 CA         31.3978    5.7680   59.8515 C.3       3 GLC5        0.0000 
     39 CA         31.0710    4.9850   58.3310 C.3       6 GLP5        0.0000 
     40 CA         29.8933    6.9897   61.7260 C.3       3 GLC5        0.0000 
     41 CA         31.4740    6.0770   61.8530 C.3       9 GLL5        0.0000 
     42 CA         28.4220    7.7150   60.8860 C.3       6 GLP5        0.0000 
     43 CA         29.9605    8.4415   62.6527 C.3       3 GLC5        0.0000 
     44 CA         28.0870    8.5310   62.1230 C.3       6 GLP5        0.0000 
     45 CA         31.4527   11.2668   64.7385 C.3       3 GLC5        0.0000 
     46 CA         32.4490   10.2180   62.9960 C.3       9 GLL5        0.0000 
     47 CA         30.0590   12.1440   65.8700 C.3       6 GLP5        0.0000 
     48 CA         31.1983    8.0000   59.2232 C.3       3 GLC5        0.0000 
     49 CA         30.2680    8.2960   57.3550 C.3       6 GLP5        0.0000 
     50 CA         30.2752    7.7095   60.9887 C.3       3 GLC5        0.0000 
     51 CA         33.7365   10.5165   65.9405 C.3       3 GLC5        0.0000 
     52 CA         33.2440   10.5610   64.2180 C.3       9 GLL5        0.0000 
     53 CA         34.0370    9.7950   67.5240 C.3       6 GLP5        0.0000 
     54 CA         34.4940   11.0655   62.9525 C.3       3 GLC5        0.0000 
     55 CA         35.5520   10.8930   61.5480 C.3       6 GLP5        0.0000 
     56 CA         31.7475   12.3022   64.9513 C.3       3 GLC5        0.0000 
     57 CA         33.6280   11.9150   64.4960 C.3       9 GLL5        0.0000 
     58 CA         31.1598   12.0783   64.0478 C.3       3 GLC5        0.0000 
     59 CA         32.4570   12.6970   62.3690 C.3       9 GLL5        0.0000 
     60 CA         33.8594   10.6606   62.0056 C.3       3 GLC5        0.0000 
     61 CA         32.0640   11.3280   62.0820 C.3       9 GLL5        0.0000 
     62 CA         34.0124   12.0694   61.8955 C.3       3 GLC5        0.0000 
     63 CA         30.7229   12.9886   60.8446 C.3       3 GLC5        0.0000 
     64 CA         29.2680   13.1510   59.8180 C.3       6 GLP5        0.0000 
     65 CA         31.3924   14.5524   63.0210 C.3       3 GLC5        0.0000 
     66 CA         30.3120   15.8590   63.7990 C.3       6 GLP5        0.0000 
     67 CA         36.9219   16.5110   62.4439 C.3       3 GLC5        0.0000 
     68 CA         34.8850   16.4910   63.2930 C.3       9 GLL5        0.0000 
     69 CA         38.4070   15.2550   62.1880 C.3       6 GLP5        0.0000 
     70 CA         36.6472   20.2052   63.8515 C.3       3 GLC5        0.0000 
     71 CA         37.7020   21.7540   64.2380 C.3       6 GLP5        0.0000 
     72 CA         33.5147   17.5951   62.7299 C.3       3 GLC5        0.0000 
     73 CA         35.3800   17.3410   62.2400 C.3       9 GLL5        0.0000 
     74 CA         31.6670   17.4040   62.3440 C.3       6 GLP5        0.0000 
@<TRIPOS>BOND
@<TRIPOS>SUBSTRUCTURE
     1 SEC2       20 GROUP        1 X    SEC  0     ROOT SEC X 2
     2 LYC4       29 GROUP        1 X    LYC  0     **** LYC X 4
     3 GLC5        1 GROUP        1 X    GLC  0     **** GLC X 6
     4 SEP2       22 GROUP        1 Y    SEP  0     ROOT SEP Y 9
     5 LYP4       31 GROUP        1 Y    LYP  0     **** LYP Y 11
     6 GLP5        3 GROUP        1 Y    GLP  0     **** GLP Y 13
     7 SEL2       21 GROUP        1 Z    SEL  0     ROOT SEL Z 16
     8 LYL4       30 GROUP        1 Z    LYL  0     **** LYL Z 18
     9 GLL5        2 GROUP        1 Z    GLL  0     **** GLL Z 20
@<TRIPOS>SET

