#    Name: 2fpv_ILC_2_ligand
#    Modification time : Tue Mar 25 13:02:41 2014

@<TRIPOS>MOLECULE
2fpv_ILC_2_ligand
   39    41     1     0     0
SMALL
NO_CHARGES


@<TRIPOS>ATOM
      1 C1         31.4740    6.0770   61.8530 C.ar      1 ILC405      0.0000 
      2 C2         31.2550    6.4520   63.2790 C.ar      1 ILC405      0.0000 
      3 C8         31.5780    7.8650   63.6720 C.ar      1 ILC405      0.0000 
      4 C9         32.0900    8.8390   62.6930 C.ar      1 ILC405      0.0000 
      5 C10        32.4490   10.2180   62.9960 C.ar      1 ILC405      0.0000 
      6 C11        32.2820    8.3830   61.2920 C.ar      1 ILC405      0.0000 
      7 C12        31.9750    7.0250   60.8910 C.ar      1 ILC405      0.0000 
      8 C13        33.2440   10.5610   64.2180 C.ar      1 ILC405      0.0000 
      9 C14        33.6280   11.9150   64.4960 C.ar      1 ILC405      0.0000 
     10 C16        33.2440   13.0060   63.5690 C.ar      1 ILC405      0.0000 
     11 C20        32.0640   11.3280   62.0820 C.ar      1 ILC405      0.0000 
     12 C21        34.4820   15.1470   62.9920 C.2       1 ILC405      0.0000 
     13 C22        34.8850   16.4910   63.2930 C.2       1 ILC405      0.0000 
     14 C24        35.3800   17.3410   62.2400 C.2       1 ILC405      0.0000 
     15 C27        34.8640   17.1490   64.5670 C.2       1 ILC405      0.0000 
     16 O3         30.7770    5.6250   64.2970 O.3       1 ILC405      0.0000 
     17 C4         31.4540    4.3350   64.3950 C.3       1 ILC405      0.0000 
     18 N17        33.6420   14.3280   63.8390 N.am      1 ILC405      0.0000 
     19 C18        32.4570   12.6970   62.3690 C.ar      1 ILC405      0.0000 
     20 F19        32.0950   13.6400   61.5170 F         1 ILC405      0.0000 
     21 O23        34.8940   14.6300   61.8950 O.2       1 ILC405      0.0000 
     22 C25        35.7410   18.6180   62.6330 C.2       1 ILC405      0.0000 
     23 S26        35.4440   18.6950   64.2970 S.3       1 ILC405      0.0000 
     24 C28        34.4720   16.7420   65.8780 C.2       1 ILC405      0.0000 
     25 O29        34.2910   15.5600   66.2160 O.co2     1 ILC405      0.0000 
     26 O30        34.2850   17.6890   66.8230 O.co2     1 ILC405      0.0000 
     27 H          31.2584    5.1247   61.5737 H         1 ILC405      0.0000 
     28 H          31.4370    8.1413   64.6307 H         1 ILC405      0.0000 
     29 H          32.6360    9.0478   60.6141 H         1 ILC405      0.0000 
     30 H          32.1147    6.7442   59.9278 H         1 ILC405      0.0000 
     31 H          33.5012    9.8066   64.8408 H         1 ILC405      0.0000 
     32 H          34.1611   12.1467   65.3194 H         1 ILC405      0.0000 
     33 H          31.5248   11.1118   61.2591 H         1 ILC405      0.0000 
     34 H          35.4463   17.0093   61.3119 H         1 ILC405      0.0000 
     35 H          33.3057   14.7766   64.7362 H         1 ILC405      0.0000 
     36 H          36.0657   19.3481   62.2489 H         1 ILC405      0.0000 
     37 H          32.4326    4.4416   64.5712 H         1 ILC405      0.0000 
     38 H          31.0820    3.7757   65.1358 H         1 ILC405      0.0000 
     39 H          31.3640    3.8034   63.5528 H         1 ILC405      0.0000 
@<TRIPOS>BOND
     1    2    1 ar   
     2    7    1 ar   
     3   27    1 1    
     4    3    2 ar   
     5   16    2 1    
     6    4    3 ar   
     7   28    3 1    
     8    5    4 1    
     9    6    4 ar   
    10    8    5 ar   
    11   11    5 ar   
    12    7    6 ar   
    13   29    6 1    
    14   30    7 1    
    15    9    8 ar   
    16   31    8 1    
    17   10    9 ar   
    18   32    9 1    
    19   18   10 1    
    20   19   10 ar   
    21   19   11 ar   
    22   33   11 1    
    23   13   12 1    
    24   18   12 am   
    25   21   12 2    
    26   14   13 1    
    27   15   13 2    
    28   22   14 2    
    29   34   14 1    
    30   23   15 1    
    31   24   15 1    
    32   17   16 1    
    33   37   17 1    
    34   38   17 1    
    35   39   17 1    
    36   35   18 1    
    37   20   19 1    
    38   23   22 1    
    39   36   22 1    
    40   25   24 ar   
    41   26   24 ar   
@<TRIPOS>SUBSTRUCTURE
     1 ILC405      1 GROUP   
@<TRIPOS>SET

