#    Name: 2e98_B29_4_INTS_M
#    Modification time : Tue Mar 25 10:45:20 2014

@<TRIPOS>MOLECULE
2e98_B29_4_INTS_M
   46     0     6     0     0
SMALL
NO_CHARGES


@<TRIPOS>ATOM
      1 CA         45.2260   33.4280   60.5375 C.3       2 GLC5        0.0000 
      2 CA         46.6930   32.9680   59.3700 C.3       6 GLL5        0.0000 
      3 CA         43.7590   33.8880   61.7050 C.3       4 GLP5        0.0000 
      4 CA         44.5540   26.7480   54.9060 C.3       2 GLC5        0.0000 
      5 CA         45.8370   27.9380   56.2680 C.3       6 GLL5        0.0000 
      6 CA         43.2710   25.5580   53.5440 C.3       4 GLP5        0.0000 
      7 CA         47.7015   28.8540   59.1280 C.3       2 GLC5        0.0000 
      8 CA         45.9090   27.9800   59.8430 C.3       6 GLL5        0.0000 
      9 CA         49.4940   29.7280   58.4130 C.3       4 GLP5        0.0000 
     10 CA         44.9715   27.6130   62.0655 C.3       2 GLC5        0.0000 
     11 CA         45.8970   27.0730   60.8950 C.3       6 GLL5        0.0000 
     12 CA         44.0460   28.1530   63.2360 C.3       4 GLP5        0.0000 
     13 O          41.2260   23.2765   61.3535 O.2       1 ALC1        0.0000 
     14 O          42.4490   24.1430   60.8370 O.2       5 ALL1        0.0000 
     15 O          40.0030   22.4100   61.8700 O.2       3 ALP1        0.0000 
     16 CA         48.3965   31.0385   57.7175 C.3       2 GLC5        0.0000 
     17 CA         46.9870   31.7900   57.2930 C.3       6 GLL5        0.0000 
     18 CA         49.4470   34.0444   57.6644 C.3       2 GLC5        0.0000 
     19 CA         47.6110   32.9080   56.7510 C.3       6 GLL5        0.0000 
     20 CA         51.3920   34.3030   57.3470 C.3       4 GLP5        0.0000 
     21 CA         48.0523   31.0607   58.7000 C.3       2 GLC5        0.0000 
     22 CA         47.9335   29.9463   57.8445 C.3       2 GLC5        0.0000 
     23 CA         46.6860   30.5350   56.7770 C.3       6 GLL5        0.0000 
     24 CA         47.8270   29.8875   54.1385 C.3       2 GLC5        0.0000 
     25 CA         46.8890   29.9780   55.5190 C.3       6 GLL5        0.0000 
     26 CA         48.9820   30.4450   52.8840 C.3       4 GLP5        0.0000 
     27 CA         48.1305   28.8775   56.5180 C.3       2 GLC5        0.0000 
     28 CA         49.5890   28.4250   57.6430 C.3       4 GLP5        0.0000 
     29 CA         46.5945   26.6100   55.0307 C.3       2 GLC5        0.0000 
     30 CA         46.4550   28.6820   55.2670 C.3       6 GLL5        0.0000 
     31 CA         47.0430   24.9100   54.2940 C.3       4 GLP5        0.0000 
     32 CA         45.6502   28.9770   54.0072 C.3       2 GLC5        0.0000 
     33 CA         45.0460   29.3200   52.1840 C.3       4 GLP5        0.0000 
     34 CA         47.5763   28.1725   57.6977 C.3       2 GLC5        0.0000 
     35 CA         45.3820   27.6300   58.6040 C.3       6 GLL5        0.0000 
     36 CA         45.3778   25.4800   57.2930 C.3       2 GLC5        0.0000 
     37 CA         45.6550   23.9620   56.0660 C.3       4 GLP5        0.0000 
     38 CA         44.3029   27.8470   60.5647 C.3       2 GLC5        0.0000 
     39 CA         43.1010   28.2050   61.9480 C.3       4 GLP5        0.0000 
     40 CA         44.0885   26.9157   61.0213 C.3       2 GLC5        0.0000 
     41 CA         45.3480   25.8100   60.7070 C.3       6 GLL5        0.0000 
     42 CA         45.1050   24.3433   57.7250 C.3       2 GLC5        0.0000 
     43 CA         44.8040   25.4430   59.4820 C.3       6 GLL5        0.0000 
     44 CA         42.5423   23.5720   58.3035 C.3       2 GLC5        0.0000 
     45 CA         44.3060   24.0060   59.2860 C.3       6 GLL5        0.0000 
     46 CA         41.1350   23.4610   56.7220 C.3       4 GLP5        0.0000 
@<TRIPOS>BOND
@<TRIPOS>SUBSTRUCTURE
     1 ALC1       13 GROUP        1 X    ALC  0     ROOT ALC X 1
     2 GLC5        1 GROUP        1 X    GLC  0     **** GLC X 6
     3 ALP1       15 GROUP        1 Y    ALP  0     ROOT ALP Y 8
     4 GLP5        3 GROUP        1 Y    GLP  0     **** GLP Y 13
     5 ALL1       14 GROUP        1 Z    ALL  0     ROOT ALL Z 15
     6 GLL5        2 GROUP        1 Z    GLL  0     **** GLL Z 20
@<TRIPOS>SET

