#    Name: 2e98_B29_4_ligand
#    Modification time : Tue Mar 25 10:45:20 2014

@<TRIPOS>MOLECULE
2e98_B29_4_ligand
   44    47     1     0     0
SMALL
NO_CHARGES


@<TRIPOS>ATOM
      1 CAY        46.9870   31.7900   57.2930 C.ar      1 B29504      0.0000 
      2 CAP        47.6110   32.9080   56.7510 C.ar      1 B29504      0.0000 
      3 CAI        47.7730   34.0570   57.5180 C.ar      1 B29504      0.0000 
      4 CAH        47.3120   34.0890   58.8290 C.ar      1 B29504      0.0000 
      5 CAO        46.6930   32.9680   59.3700 C.ar      1 B29504      0.0000 
      6 CAX        46.5280   31.8190   58.6040 C.ar      1 B29504      0.0000 
      7 OAT        45.9680   30.6020   58.8750 O.3       1 B29504      0.0000 
      8 CBA        46.0600   29.7940   57.7750 C.ar      1 B29504      0.0000 
      9 CAZ        46.6860   30.5350   56.7770 C.ar      1 B29504      0.0000 
     10 CAQ        46.8890   29.9780   55.5190 C.ar      1 B29504      0.0000 
     11 CAK        46.4550   28.6820   55.2670 C.ar      1 B29504      0.0000 
     12 CAN        45.8370   27.9380   56.2680 C.ar      1 B29504      0.0000 
     13 CAW        45.6530   28.4820   57.5340 C.ar      1 B29504      0.0000 
     14 CAV        45.3820   27.6300   58.6040 C.ar      1 B29504      0.0000 
     15 CAR        44.8190   26.3660   58.4360 C.ar      1 B29504      0.0000 
     16 CAM        45.9090   27.9800   59.8430 C.ar      1 B29504      0.0000 
     17 CAJ        45.8970   27.0730   60.8950 C.ar      1 B29504      0.0000 
     18 CAL        45.3480   25.8100   60.7070 C.ar      1 B29504      0.0000 
     19 CAU        44.8040   25.4430   59.4820 C.ar      1 B29504      0.0000 
     20 CAS        44.3060   24.0060   59.2860 C.3       1 B29504      0.0000 
     21 CBB        43.5930   23.3600   60.4840 C.3       1 B29504      0.0000 
     22 PBC        43.0570   21.6190   60.0680 P.3       1 B29504      0.0000 
     23 OAD        44.2960   20.9680   59.2770 O.co2     1 B29504      0.0000 
     24 OAE        42.9050   20.8370   61.4680 O.co2     1 B29504      0.0000 
     25 OAA        41.8110   21.5300   59.2740 O.co2     1 B29504      0.0000 
     26 PBD        44.6920   23.2020   61.9840 P.3       1 B29504      0.0000 
     27 OAF        46.1390   22.7900   61.4140 O.co2     1 B29504      0.0000 
     28 OAG        44.8460   24.6600   62.6510 O.co2     1 B29504      0.0000 
     29 OAB        44.1690   22.2120   62.9520 O.co2     1 B29504      0.0000 
     30 OAC        42.4490   24.1430   60.8370 O.3       1 B29504      0.0000 
     31 H          47.9536   32.8857   55.7810 H         1 B29504      0.0000 
     32 H          48.2341   34.8831   57.1146 H         1 B29504      0.0000 
     33 H          47.4282   34.9372   59.3956 H         1 B29504      0.0000 
     34 H          46.3547   32.9882   60.3432 H         1 B29504      0.0000 
     35 H          47.3549   30.5191   54.7841 H         1 B29504      0.0000 
     36 H          46.5913   28.2679   54.3324 H         1 B29504      0.0000 
     37 H          45.5148   26.9799   56.0690 H         1 B29504      0.0000 
     38 H          44.4067   26.1084   57.5240 H         1 B29504      0.0000 
     39 H          46.3113   28.9200   59.9805 H         1 B29504      0.0000 
     40 H          46.2910   27.3335   61.8058 H         1 B29504      0.0000 
     41 H          45.3443   25.1335   61.4903 H         1 B29504      0.0000 
     42 H          45.1703   23.3662   59.0029 H         1 B29504      0.0000 
     43 H          43.6181   23.9846   58.4126 H         1 B29504      0.0000 
     44 H          41.7594   23.4784   61.1248 H         1 B29504      0.0000 
@<TRIPOS>BOND
     1    2    1 ar   
     2    6    1 ar   
     3    9    1 1    
     4    3    2 ar   
     5   31    2 1    
     6    4    3 ar   
     7   32    3 1    
     8    5    4 ar   
     9   33    4 1    
    10    6    5 ar   
    11   34    5 1    
    12    7    6 1    
    13    8    7 1    
    14    9    8 ar   
    15   13    8 ar   
    16   10    9 ar   
    17   11   10 ar   
    18   35   10 1    
    19   12   11 ar   
    20   36   11 1    
    21   13   12 ar   
    22   37   12 1    
    23   14   13 1    
    24   15   14 ar   
    25   16   14 ar   
    26   19   15 ar   
    27   38   15 1    
    28   17   16 ar   
    29   39   16 1    
    30   18   17 ar   
    31   40   17 1    
    32   19   18 ar   
    33   41   18 1    
    34   20   19 1    
    35   21   20 1    
    36   42   20 1    
    37   43   20 1    
    38   22   21 1    
    39   26   21 1    
    40   30   21 1    
    41   23   22 ar   
    42   24   22 ar   
    43   25   22 ar   
    44   27   26 ar   
    45   28   26 ar   
    46   29   26 ar   
    47   44   30 1    
@<TRIPOS>SUBSTRUCTURE
     1 B29504      1 GROUP   
@<TRIPOS>SET

