#    Name: 3EHH_2_CAVITY_N1_6.mol2
#    Modification time : Mon Mar 10 13:21:05 2014

@<TRIPOS>MOLECULE
3EHH_2_CAVITY_N1_6.mol2
   67     0     5     0     0
SMALL
NO_CHARGES


@<TRIPOS>ATOM
      1 CA         29.8163   47.0117   79.9839 C.3       4 GLY6        0.0000 
      2 CZ         30.6168   45.8131   79.5685 C.ar      3 PHE5        0.0000 
      3 CA         28.5540   46.3079   79.5825 C.3       4 GLY6        0.0000 
      4 CZ         29.3545   45.1093   79.1670 C.ar      3 PHE5        0.0000 
      5 CA         27.2917   45.6041   79.1810 C.3       4 GLY6        0.0000 
      6 CZ         28.0921   44.4054   78.7656 C.ar      3 PHE5        0.0000 
      7 CA         26.0294   44.9002   78.7796 C.3       4 GLY6        0.0000 
      8 CZ         26.8298   43.7016   78.3642 C.ar      3 PHE5        0.0000 
      9 CZ         27.6303   42.5030   77.9487 C.ar      3 PHE5        0.0000 
     10 N          23.9666   45.3950   78.7936 N.2       1 ALA2        0.0000 
     11 N          24.7671   44.1964   78.3781 N.2       1 ALA2        0.0000 
     12 DU         25.5675   42.9978   77.9627 H         5 CUB7        0.0000 
     13 CA         26.3679   41.7991   77.5473 C.3       4 GLY6        0.0000 
     14 CZ         27.1684   40.6005   77.1319 C.ar      3 PHE5        0.0000 
     15 N          22.7043   44.6912   78.3921 N.2       1 ALA2        0.0000 
     16 DU         23.5047   43.4925   77.9767 H         5 CUB7        0.0000 
     17 DU         24.3052   42.2939   77.5613 H         5 CUB7        0.0000 
     18 DU         25.1056   41.0953   77.1458 H         5 CUB7        0.0000 
     19 N          23.8433   40.3914   76.7444 N.2       1 ALA2        0.0000 
     20 CA         29.9422   47.5756   78.5996 C.3       4 GLY6        0.0000 
     21 CA         30.7426   46.3769   78.1842 C.3       4 GLY6        0.0000 
     22 CA         28.6799   46.8717   78.1982 C.3       4 GLY6        0.0000 
     23 CZ         29.4803   45.6731   77.7828 C.ar      3 PHE5        0.0000 
     24 O          27.4175   46.1679   77.7967 O.2       1 ALA2        0.0000 
     25 CZ         28.2180   44.9693   77.3813 C.ar      3 PHE5        0.0000 
     26 O          26.1552   45.4640   77.3953 O.2       1 ALA2        0.0000 
     27 CA         26.9557   44.2654   76.9799 C.3       4 GLY6        0.0000 
     28 N          24.0925   45.9588   77.4093 N.2       1 ALA2        0.0000 
     29 O          24.8929   44.7602   76.9939 O.2       1 ALA2        0.0000 
     30 CA         25.6933   43.5616   76.5784 C.3       4 GLY6        0.0000 
     31 DU         22.8301   45.2550   77.0078 H         5 CUB7        0.0000 
     32 N          23.6306   44.0564   76.5924 N.2       1 ALA2        0.0000 
     33 N          24.4310   42.8577   76.1770 N.2       1 ALA2        0.0000 
     34 CA         25.2315   41.6591   75.7616 C.3       4 GLY6        0.0000 
     35 CA         22.3683   43.3525   76.1910 C.3       4 GLY6        0.0000 
     36 CA         30.0680   48.1394   77.2153 C.3       4 GLY6        0.0000 
     37 CA         30.8685   46.9408   76.7999 C.3       4 GLY6        0.0000 
     38 O          28.8057   47.4356   76.8139 O.2       1 ALA2        0.0000 
     39 CZ         29.6062   46.2369   76.3985 C.ar      3 PHE5        0.0000 
     40 CA         28.3438   45.5331   75.9970 C.3       4 GLY6        0.0000 
     41 O          24.2183   46.5227   76.0250 O.2       1 ALA2        0.0000 
     42 O          25.0188   45.3240   75.6096 O.2       1 ALA2        0.0000 
     43 NZ         22.1556   47.0174   76.0390 N.2       2 LYS4        0.0000 
     44 O          22.9560   45.8188   75.6236 O.2       1 ALA2        0.0000 
     45 O          23.7564   44.6202   75.2081 O.2       1 ALA2        0.0000 
     46 CA         24.5569   43.4216   74.7927 C.3       4 GLY6        0.0000 
     47 O          20.8932   46.3136   75.6375 O.2       1 ALA2        0.0000 
     48 O          22.4941   43.9164   74.8067 O.2       1 ALA2        0.0000 
     49 CA         26.4522   42.0101   82.5170 C.3       4 GLY6        0.0000 
     50 CA         27.0400   44.4764   81.9496 C.3       4 GLY6        0.0000 
     51 CA         27.8404   43.2778   81.5342 C.3       4 GLY6        0.0000 
     52 O          25.7777   43.7726   81.5482 O.2       1 ALA2        0.0000 
     53 O          26.5781   42.5739   81.1327 O.2       1 ALA2        0.0000 
     54 CA         25.3158   41.8701   80.7313 C.3       4 GLY6        0.0000 
     55 CA         29.6905   46.4479   81.3682 C.3       4 GLY6        0.0000 
     56 CZ         29.2286   44.5454   80.5513 C.ar      3 PHE5        0.0000 
     57 CA         27.1658   45.0402   80.5653 C.3       4 GLY6        0.0000 
     58 CZ         27.9663   43.8416   80.1499 C.ar      3 PHE5        0.0000 
     59 CA         25.9035   44.3364   80.1639 C.3       4 GLY6        0.0000 
     60 O          26.7040   43.1378   79.7485 O.2       1 ALA2        0.0000 
     61 CA         27.5044   41.9391   79.3330 C.3       4 GLY6        0.0000 
     62 N          24.6412   43.6326   79.7624 N.2       1 ALA2        0.0000 
     63 DU         25.4416   42.4339   79.3470 H         5 CUB7        0.0000 
     64 CA         26.2421   41.2353   78.9316 C.3       4 GLY6        0.0000 
     65 DU         24.1793   41.7301   78.9456 H         5 CUB7        0.0000 
     66 CA         24.9798   40.5315   78.5301 C.3       4 GLY6        0.0000 
     67 CA         25.7802   39.3328   78.1147 C.3       4 GLY6        0.0000 
@<TRIPOS>BOND
@<TRIPOS>SUBSTRUCTURE
     1 ALA2       10 GROUP   
     2 LYS4       43 GROUP   
     3 PHE5        2 GROUP   
     4 GLY6        1 GROUP   
     5 CUB7       12 GROUP   
@<TRIPOS>SET

