#    Name: 3ehh_ADP_2_INTS_M
#    Modification time : Tue Mar 25 01:52:22 2014

@<TRIPOS>MOLECULE
3ehh_ADP_2_INTS_M
   51     0     9     0     0
SMALL
NO_CHARGES


@<TRIPOS>ATOM
      1 N          23.5535   47.7500   77.9400 N.am      2 SEC2        0.0000 
      2 N          22.2500   46.7600   78.3590 N.am      8 SEL2        0.0000 
      3 N          24.8570   48.7400   77.5210 N.am      5 SEP2        0.0000 
      4 N          23.0950   46.8890   79.5580 N.am      2 SEC2        0.0000 
      5 N          23.9400   47.0180   80.7570 N.am      5 SEP2        0.0000 
      6 N          23.9300   44.6120   73.5505 N.am      2 SEC2        0.0000 
      7 N          23.5510   44.1160   74.7880 N.am      8 SEL2        0.0000 
      8 N          24.3090   45.1080   72.3130 N.am      5 SEP2        0.0000 
      9 N          24.2040   47.5975   76.7850 N.am      2 SEC2        0.0000 
     10 N          23.5510   46.4550   76.0490 N.am      8 SEL2        0.0000 
     11 CA         26.1680   42.9810   75.7845 C.3       3 GLC5        0.0000 
     12 CA         24.6720   42.8940   77.1240 C.3       9 GLL5        0.0000 
     13 CA         27.6640   43.0680   74.4450 C.3       6 GLP5        0.0000 
     14 CA         25.0665   45.5105   80.1990 C.3       3 GLC5        0.0000 
     15 CA         24.8980   43.5510   79.5690 C.3       9 GLL5        0.0000 
     16 CA         25.2350   47.4700   80.8290 C.3       6 GLP5        0.0000 
     17 CA         25.9085   45.2540   81.2455 C.3       3 GLC5        0.0000 
     18 CA         26.0490   43.5250   80.5180 C.3       9 GLL5        0.0000 
     19 CA         25.7680   46.9830   81.9730 C.3       6 GLP5        0.0000 
     20 CA         27.1535   43.0795   82.3830 C.3       3 GLC5        0.0000 
     21 CA         28.2580   42.6340   84.2480 C.3       6 GLP5        0.0000 
     22 CA         28.9325   43.1830   78.8575 C.3       3 GLC5        0.0000 
     23 CA         27.2530   43.3480   79.6110 C.3       9 GLL5        0.0000 
     24 CA         30.6120   43.0180   78.1040 C.3       6 GLP5        0.0000 
     25 CA         31.0145   48.4920   81.4765 C.3       3 GLC5        0.0000 
     26 CA         30.3680   47.3130   79.8220 C.3       9 GLL5        0.0000 
     27 CA         31.6610   49.6710   83.1310 C.3       6 GLP5        0.0000 
     28 CA         32.2645   46.8960   79.1745 C.3       3 GLC5        0.0000 
     29 CA         34.1610   46.4790   78.5270 C.3       6 GLP5        0.0000 
     30 O          32.1340   48.9935   79.5820 O.2       1 ALC1        0.0000 
     31 O          30.8120   48.4020   79.1600 O.2       7 ALL1        0.0000 
     32 O          33.4560   49.5850   80.0040 O.2       4 ALP1        0.0000 
     33 CA         28.7725   46.5000   82.1410 C.3       3 GLC5        0.0000 
     34 CA         30.4170   45.8650   81.7160 C.3       9 GLL5        0.0000 
     35 CA         27.1280   47.1350   82.5660 C.3       6 GLP5        0.0000 
     36 CA         30.6405   47.3400   82.8950 C.3       3 GLC5        0.0000 
     37 CA         30.8640   48.8150   84.0740 C.3       6 GLP5        0.0000 
     38 CA         31.4495   44.4885   81.9510 C.3       3 GLC5        0.0000 
     39 CA         32.4820   43.1120   82.1860 C.3       6 GLP5        0.0000 
     40 CA         29.6365   44.8460   83.3880 C.3       3 GLC5        0.0000 
     41 CA         28.8560   43.8270   85.0600 C.3       6 GLP5        0.0000 
     42 N          29.8690   43.6985   82.0350 N.am      2 SEC2        0.0000 
     43 N          29.4660   45.0320   81.2360 N.am      8 SEL2        0.0000 
     44 N          30.2720   42.3650   82.8340 N.am      5 SEP2        0.0000 
     45 CA         27.3635   41.5097   80.3648 C.3       3 GLC5        0.0000 
     46 CA         28.0760   39.5830   80.6650 C.3       6 GLP5        0.0000 
     47 CA         28.5025   48.1258   78.6713 C.3       3 GLC5        0.0000 
     48 CA         29.3340   46.4300   79.2290 C.3       9 GLL5        0.0000 
     49 CA         27.1540   49.3800   77.8170 C.3       6 GLP5        0.0000 
     50 CA         28.2518   46.5961   81.1681 C.3       3 GLC5        0.0000 
     51 CA         28.9000   45.2430   80.0150 C.3       9 GLL5        0.0000 
@<TRIPOS>BOND
@<TRIPOS>SUBSTRUCTURE
     1 ALC1       30 GROUP        1 X    ALC  0     ROOT ALC X 1
     2 SEC2        1 GROUP        1 X    SEC  0     **** SEC X 2
     3 GLC5       11 GROUP        1 X    GLC  0     **** GLC X 6
     4 ALP1       32 GROUP        1 Y    ALP  0     ROOT ALP Y 8
     5 SEP2        3 GROUP        1 Y    SEP  0     **** SEP Y 9
     6 GLP5       13 GROUP        1 Y    GLP  0     **** GLP Y 13
     7 ALL1       31 GROUP        1 Z    ALL  0     ROOT ALL Z 15
     8 SEL2        2 GROUP        1 Z    SEL  0     **** SEL Z 16
     9 GLL5       12 GROUP        1 Z    GLL  0     **** GLL Z 20
@<TRIPOS>SET

