#    Name: 3ehh_ADP_2_ligand
#    Modification time : Tue Mar 25 01:52:22 2014

@<TRIPOS>MOLECULE
3ehh_ADP_2_ligand
   39    41     1     0     0
SMALL
NO_CHARGES


@<TRIPOS>ATOM
      1 PB         21.5870   45.3870   78.1290 P.3       1 ADP3500     0.0000 
      2 O1B        21.9080   44.3620   79.2030 O.co2     1 ADP3500     0.0000 
      3 O2B        20.1900   45.7260   77.7460 O.co2     1 ADP3500     0.0000 
      4 O3B        22.2500   46.7600   78.3590 O.co2     1 ADP3500     0.0000 
      5 PA         23.5520   44.9310   76.0450 P.3       1 ADP3500     0.0000 
      6 O1A        23.5510   44.1160   74.7880 O.co2     1 ADP3500     0.0000 
      7 O2A        23.5510   46.4550   76.0490 O.co2     1 ADP3500     0.0000 
      8 O3A        22.2520   44.5400   76.9420 O.3       1 ADP3500     0.0000 
      9 O5'        24.7780   44.2660   76.7450 O.3       1 ADP3500     0.0000 
     10 C5'        24.6720   42.8940   77.1240 C.3       1 ADP3500     0.0000 
     11 C4'        25.3310   42.6090   78.4740 C.3       1 ADP3500     0.0000 
     12 O4'        26.7580   42.6710   78.4200 O.3       1 ADP3500     0.0000 
     13 C3'        24.8980   43.5510   79.5690 C.3       1 ADP3500     0.0000 
     14 O3'        23.6930   43.1310   80.1980 O.3       1 ADP3500     0.0000 
     15 C2'        26.0490   43.5250   80.5180 C.3       1 ADP3500     0.0000 
     16 O2'        25.9440   42.3990   81.3880 O.3       1 ADP3500     0.0000 
     17 C1'        27.2530   43.3480   79.6110 C.3       1 ADP3500     0.0000 
     18 N9         27.9760   44.6220   79.2740 N.pl3     1 ADP3500     0.0000 
     19 C8         27.8180   45.3370   78.1370 C.2       1 ADP3500     0.0000 
     20 N7         28.6190   46.4340   78.1000 N.2       1 ADP3500     0.0000 
     21 C5         29.3340   46.4300   79.2290 C.ar      1 ADP3500     0.0000 
     22 C6         30.3680   47.3130   79.8220 C.ar      1 ADP3500     0.0000 
     23 N6         30.8120   48.4020   79.1600 N.pl3     1 ADP3500     0.0000 
     24 N1         30.8660   46.9570   81.0520 N.ar      1 ADP3500     0.0000 
     25 C2         30.4170   45.8650   81.7160 C.ar      1 ADP3500     0.0000 
     26 N3         29.4660   45.0320   81.2360 N.ar      1 ADP3500     0.0000 
     27 C4         28.9000   45.2430   80.0150 C.ar      1 ADP3500     0.0000 
     28 H          25.1465   42.2289   76.3764 H         1 ADP3500     0.0000 
     29 H          23.6144   42.5740   77.1971 H         1 ADP3500     0.0000 
     30 H          25.0283   41.5936   78.7885 H         1 ADP3500     0.0000 
     31 H          24.8325   44.5360   79.1493 H         1 ADP3500     0.0000 
     32 H          26.1274   44.4438   81.0137 H         1 ADP3500     0.0000 
     33 H          27.9462   42.6679   80.1269 H         1 ADP3500     0.0000 
     34 H          27.1912   45.0920   77.4123 H         1 ADP3500     0.0000 
     35 H          30.1459   48.8619   78.5727 H         1 ADP3500     0.0000 
     36 H          31.7676   48.6522   79.3156 H         1 ADP3500     0.0000 
     37 H          30.8383   45.6507   82.6721 H         1 ADP3500     0.0000 
     38 H          23.0933   43.9307   80.1682 H         1 ADP3500     0.0000 
     39 H          24.9922   42.1016   81.3124 H         1 ADP3500     0.0000 
@<TRIPOS>BOND
     1    2    1 ar   
     2    3    1 ar   
     3    4    1 ar   
     4    8    1 1    
     5    6    5 ar   
     6    7    5 ar   
     7    8    5 1    
     8    9    5 1    
     9   10    9 1    
    10   11   10 1    
    11   28   10 1    
    12   29   10 1    
    13   12   11 1    
    14   13   11 1    
    15   30   11 1    
    16   17   12 1    
    17   14   13 1    
    18   15   13 1    
    19   31   13 1    
    20   38   14 1    
    21   16   15 1    
    22   17   15 1    
    23   32   15 1    
    24   39   16 1    
    25   18   17 1    
    26   33   17 1    
    27   19   18 1    
    28   27   18 1    
    29   20   19 2    
    30   34   19 1    
    31   21   20 1    
    32   22   21 ar   
    33   27   21 ar   
    34   23   22 1    
    35   24   22 ar   
    36   35   23 1    
    37   36   23 1    
    38   25   24 ar   
    39   26   25 ar   
    40   37   25 1    
    41   27   26 ar   
@<TRIPOS>SUBSTRUCTURE
     1 ADP3500     1 GROUP   
@<TRIPOS>SET

