#    Name: 2bks_PZ1_1_INTS_M
#    Modification time : Mon Mar 24 21:08:32 2014

@<TRIPOS>MOLECULE
2bks_PZ1_1_INTS_M
  100     0     9     0     0
SMALL
NO_CHARGES


@<TRIPOS>ATOM
      1 CA        125.6975   17.2110   44.4315 C.3       3 GLC5        0.0000 
      2 CA        127.1510   17.5480   44.8250 C.3       9 GLL5        0.0000 
      3 CA        124.2440   16.8740   44.0380 C.3       6 GLP5        0.0000 
      4 CA        127.4895   16.1720   46.0825 C.3       3 GLC5        0.0000 
      5 CA        127.8280   14.7960   47.3400 C.3       6 GLP5        0.0000 
      6 CA        127.7995   16.3745   43.9130 C.3       3 GLC5        0.0000 
      7 CA        128.4480   15.2010   43.0010 C.3       6 GLP5        0.0000 
      8 CA        128.4075   16.9445   47.1560 C.3       3 GLC5        0.0000 
      9 CA        128.9870   19.0930   46.9720 C.3       9 GLL5        0.0000 
     10 CA        129.8165   20.1790   45.3510 C.3       3 GLC5        0.0000 
     11 CA        130.1470   18.5940   46.1010 C.3       9 GLL5        0.0000 
     12 CA        129.4860   21.7640   44.6010 C.3       6 GLP5        0.0000 
     13 CA        126.0670   18.1170   49.1910 C.3       3 GLC5        0.0000 
     14 CA        126.7510   20.0240   48.5460 C.3       9 GLL5        0.0000 
     15 CA        125.3830   16.2100   49.8360 C.3       6 GLP5        0.0000 
     16 CA        126.4570   20.0500   50.4855 C.3       3 GLC5        0.0000 
     17 CA        128.0420   19.8940   49.1390 C.3       9 GLL5        0.0000 
     18 CA        124.8720   20.2060   51.8320 C.3       6 GLP5        0.0000 
     19 CA        129.4750   20.7380   49.7140 C.3       3 GLC5        0.0000 
     20 CA        130.9080   21.5820   50.2890 C.3       6 GLP5        0.0000 
     21 CA        126.2330   15.5850   36.3130 C.3       3 GLC5        0.0000 
     22 CA        127.7750   16.9150   35.9610 C.3       9 GLL5        0.0000 
     23 CA        124.6910   14.2550   36.6650 C.3       6 GLP5        0.0000 
     24 OD1       129.1755   15.2890   36.2690 O.co2     2 ASC3        0.0000 
     25 OD1       128.7820   16.4540   35.0250 O.co2     8 ASL3        0.0000 
     26 OD1       129.5690   14.1240   37.5130 O.co2     5 ASP3        0.0000 
     27 OD1       128.4280   14.9130   35.5595 O.co2     2 ASC3        0.0000 
     28 OD1       128.0740   13.3720   36.0940 O.co2     5 ASP3        0.0000 
     29 OD1       127.9995   16.2435   34.0250 O.co2     2 ASC3        0.0000 
     30 OD1       127.2170   16.0330   33.0250 O.co2     5 ASP3        0.0000 
     31 OD1       127.7530   15.2835   34.5100 O.co2     2 ASC3        0.0000 
     32 OD1       126.7240   14.1130   33.9950 O.co2     5 ASP3        0.0000 
     33 CA        130.2550   14.8335   34.5335 C.3       3 GLC5        0.0000 
     34 CA        130.2270   16.6830   35.1560 C.3       9 GLL5        0.0000 
     35 CA        130.2830   12.9840   33.9110 C.3       6 GLP5        0.0000 
     36 CA        131.5915   15.1535   38.8425 C.3       3 GLC5        0.0000 
     37 CA        130.5940   16.6010   39.8370 C.3       9 GLL5        0.0000 
     38 CA        132.5890   13.7060   37.8480 C.3       6 GLP5        0.0000 
     39 CA        129.9995   14.9540   40.7915 C.3       3 GLC5        0.0000 
     40 CA        129.4050   13.3070   41.7460 C.3       6 GLP5        0.0000 
     41 CA        129.7670   16.0840   42.0685 C.3       3 GLC5        0.0000 
     42 CA        131.0860   16.9670   41.1360 C.3       9 GLL5        0.0000 
     43 CA        133.8200   16.7550   43.3330 C.3       3 GLC5        0.0000 
     44 CA        132.8430   18.1990   43.3620 C.3       9 GLL5        0.0000 
     45 CA        134.7970   15.3110   43.3040 C.3       6 GLP5        0.0000 
     46 CA        134.1495   17.1405   44.6820 C.3       3 GLC5        0.0000 
     47 CA        133.0530   18.8620   44.7420 C.3       9 GLL5        0.0000 
     48 CA        135.2460   15.4190   44.6220 C.3       6 GLP5        0.0000 
     49 CA        134.4055   20.0625   45.4375 C.3       3 GLC5        0.0000 
     50 CA        135.7580   21.2630   46.1330 C.3       6 GLP5        0.0000 
     51 CA        132.8745   16.3710   46.0295 C.3       3 GLC5        0.0000 
     52 CA        132.5130   17.9960   45.9110 C.3       9 GLL5        0.0000 
     53 CA        133.2360   14.7460   46.1480 C.3       6 GLP5        0.0000 
     54 CA        119.7235   16.4485   39.8440 C.3       3 GLC5        0.0000 
     55 CA        121.3260   16.2240   38.9270 C.3       9 GLL5        0.0000 
     56 CA        118.1210   16.6730   40.7610 C.3       6 GLP5        0.0000 
     57 CA        124.9010   23.4705   41.8190 C.3       3 GLC5        0.0000 
     58 CA        123.9930   21.6960   42.3280 C.3       9 GLL5        0.0000 
     59 CA        125.8090   25.2450   41.3100 C.3       6 GLP5        0.0000 
     60 CA        123.6850   20.8690   44.1080 C.3       3 GLC5        0.0000 
     61 CA        123.3770   20.0420   45.8880 C.3       6 GLP5        0.0000 
     62 CA        122.2600   21.2815   43.9810 C.3       3 GLC5        0.0000 
     63 CA        122.4680   21.7900   42.0100 C.3       9 GLL5        0.0000 
     64 CA        122.0520   20.7730   45.9520 C.3       6 GLP5        0.0000 
     65 CA        120.3865   19.8550   41.4170 C.3       3 GLC5        0.0000 
     66 CA        121.8560   20.8660   40.9150 C.3       9 GLL5        0.0000 
     67 CA        118.9170   18.8440   41.9190 C.3       6 GLP5        0.0000 
     68 CA        122.5710   19.2390   42.1555 C.3       3 GLC5        0.0000 
     69 CA        123.2860   17.6120   43.3960 C.3       6 GLP5        0.0000 
     70 CA        122.5900   17.5860   41.4650 C.3       3 GLC5        0.0000 
     71 CA        121.8940   17.5600   39.5340 C.3       9 GLL5        0.0000 
     72 N         119.4730   14.6390   39.9655 N.am      1 SEC2        0.0000 
     73 N         120.3860   14.9840   39.1130 N.am      7 SEL2        0.0000 
     74 N         118.5600   14.2940   40.8180 N.am      4 SEP2        0.0000 
     75 CA        128.2797   21.2132   46.4203 C.3       3 GLC5        0.0000 
     76 CA        127.6720   19.2280   46.3770 C.3       9 GLL5        0.0000 
     77 CA        128.2300   23.2660   46.1660 C.3       6 GLP5        0.0000 
     78 CA        125.3893   19.7807   49.3385 C.3       3 GLC5        0.0000 
     79 CA        124.1190   19.7050   50.8260 C.3       6 GLP5        0.0000 
     80 CA        125.1562   19.8916   46.7721 C.3       3 GLC5        0.0000 
     81 CA        128.9278   18.7805   50.2655 C.3       3 GLC5        0.0000 
     82 CA        129.2610   17.8980   51.7820 C.3       6 GLP5        0.0000 
     83 CA        127.7904   21.5706   47.3305 C.3       3 GLC5        0.0000 
     84 CA        130.1600   20.6769   48.0194 C.3       3 GLC5        0.0000 
     85 CA        129.1470   19.4320   48.3590 C.3       9 GLL5        0.0000 
     86 CA        130.9630   22.2160   48.5910 C.3       6 GLP5        0.0000 
     87 CA        131.6740   20.0422   43.8175 C.3       3 GLC5        0.0000 
     88 CA        130.4000   21.5540   43.5830 C.3       6 GLP5        0.0000 
     89 CA        133.6085   18.2805   46.9898 C.3       3 GLC5        0.0000 
     90 CA        134.4340   18.1320   48.6530 C.3       6 GLP5        0.0000 
     91 CA        122.3885   15.7050   40.7437 C.3       3 GLC5        0.0000 
     92 CA        123.1670   14.5180   42.2570 C.3       6 GLP5        0.0000 
     93 CA        126.2617   22.5102   41.3687 C.3       3 GLC5        0.0000 
     94 CA        124.7950   20.6860   41.5290 C.3       9 GLL5        0.0000 
     95 CA        127.0180   24.3870   41.0670 C.3       6 GLP5        0.0000 
     96 CA        122.4387   23.3360   43.1515 C.3       3 GLC5        0.0000 
     97 CA        121.6470   24.9290   44.1340 C.3       6 GLP5        0.0000 
     98 CA        123.2583   19.6775   42.7825 C.3       3 GLC5        0.0000 
     99 CA        120.4683   18.5685   40.6298 C.3       3 GLC5        0.0000 
    100 CA        122.1450   19.0260   39.1470 C.3       9 GLL5        0.0000 
@<TRIPOS>BOND
@<TRIPOS>SUBSTRUCTURE
     1 SEC2       72 GROUP        1 X    SEC  0     ROOT SEC X 2
     2 ASC3       24 GROUP        1 X    ASC  0     **** ASC X 3
     3 GLC5        1 GROUP        1 X    GLC  0     **** GLC X 6
     4 SEP2       74 GROUP        1 Y    SEP  0     ROOT SEP Y 9
     5 ASP3       26 GROUP        1 Y    ASP  0     **** ASP Y 10
     6 GLP5        3 GROUP        1 Y    GLP  0     **** GLP Y 13
     7 SEL2       73 GROUP        1 Z    SEL  0     ROOT SEL Z 16
     8 ASL3       25 GROUP        1 Z    ASL  0     **** ASL Z 17
     9 GLL5        2 GROUP        1 Z    GLL  0     **** GLL Z 20
@<TRIPOS>SET

