#    Name: 2bks_PZ1_1_ligand
#    Modification time : Mon Mar 24 21:08:33 2014

@<TRIPOS>MOLECULE
2bks_PZ1_1_ligand
   85    89     1     0     0
SMALL
NO_CHARGES


@<TRIPOS>ATOM
      1 C1        127.1510   17.5480   44.8250 C.3       1 PZ1805      0.0000 
      2 O1        127.4520   18.9130   45.0260 O.3       1 PZ1805      0.0000 
      3 C2        127.6720   19.2280   46.3770 C.ar      1 PZ1805      0.0000 
      4 C3        128.9870   19.0930   46.9720 C.ar      1 PZ1805      0.0000 
      5 C4        130.1470   18.5940   46.1010 C.3       1 PZ1805      0.0000 
      6 O2        131.4120   18.4850   46.7310 O.3       1 PZ1805      0.0000 
      7 C5        126.5680   19.6890   47.1560 C.ar      1 PZ1805      0.0000 
      8 C6        126.7510   20.0240   48.5460 C.ar      1 PZ1805      0.0000 
      9 C7        128.0420   19.8940   49.1390 C.ar      1 PZ1805      0.0000 
     10 C8        129.1470   19.4320   48.3590 C.ar      1 PZ1805      0.0000 
     11 C20       128.2660   17.0310   37.4140 C.3       1 PZ1805      0.0000 
     12 C21       127.7750   16.9150   35.9610 C.3       1 PZ1805      0.0000 
     13 N2        128.7820   16.4540   35.0250 N.4       1 PZ1805      0.0000 
     14 C22       130.2270   16.6830   35.1560 C.3       1 PZ1805      0.0000 
     15 C23       130.7300   17.1130   36.5590 C.2       1 PZ1805      0.0000 
     16 N3        129.7930   17.2660   37.6010 N.am      1 PZ1805      0.0000 
     17 O5        131.9330   17.2970   36.6850 O.2       1 PZ1805      0.0000 
     18 C24       127.3630   18.1500   38.0070 C.3       1 PZ1805      0.0000 
     19 O6        127.2200   17.9100   39.3960 O.3       1 PZ1805      0.0000 
     20 C25       130.5030   19.0240   39.2390 C.ar      1 PZ1805      0.0000 
     21 C26       130.2890   17.6450   38.8640 C.ar      1 PZ1805      0.0000 
     22 C27       130.5940   16.6010   39.8370 C.ar      1 PZ1805      0.0000 
     23 C28       131.0860   16.9670   41.1360 C.ar      1 PZ1805      0.0000 
     24 C29       131.2850   18.3730   41.4870 C.ar      1 PZ1805      0.0000 
     25 C30       130.9890   19.3770   40.5230 C.ar      1 PZ1805      0.0000 
     26 O7        131.7330   18.8030   42.7460 O.3       1 PZ1805      0.0000 
     27 C31       132.8430   18.1990   43.3620 C.3       1 PZ1805      0.0000 
     28 C32       133.0530   18.8620   44.7420 C.3       1 PZ1805      0.0000 
     29 C33       132.5130   17.9960   45.9110 C.3       1 PZ1805      0.0000 
     30 C34       121.3260   16.2240   38.9270 C.3       1 PZ1805      0.0000 
     31 C9        127.0410   19.6520   41.1010 C.ar      1 PZ1805      0.0000 
     32 C10       126.2160   20.5810   41.8120 C.ar      1 PZ1805      0.0000 
     33 C11       124.7950   20.6860   41.5290 C.ar      1 PZ1805      0.0000 
     34 C12       124.1770   19.8430   40.5120 C.ar      1 PZ1805      0.0000 
     35 C13       125.0460   18.9210   39.8190 C.ar      1 PZ1805      0.0000 
     36 C14       126.4410   18.8150   40.0920 C.ar      1 PZ1805      0.0000 
     37 C15       123.9930   21.6960   42.3280 C.3       1 PZ1805      0.0000 
     38 C16       122.4680   21.7900   42.0100 C.3       1 PZ1805      0.0000 
     39 C17       121.8560   20.8660   40.9150 C.3       1 PZ1805      0.0000 
     40 N1        122.7590   19.9140   40.2000 N.pl3     1 PZ1805      0.0000 
     41 C18       122.1450   19.0260   39.1470 C.3       1 PZ1805      0.0000 
     42 C19       121.8940   17.5600   39.5340 C.3       1 PZ1805      0.0000 
     43 O3        120.3860   14.9840   39.1130 O.3       1 PZ1805      0.0000 
     44 H         130.1953   19.2769   45.2065 H         1 PZ1805      0.0000 
     45 H         129.8223   17.6068   45.6666 H         1 PZ1805      0.0000 
     46 H         125.6490   19.7832   46.7354 H         1 PZ1805      0.0000 
     47 H         125.9644   20.3488   49.0922 H         1 PZ1805      0.0000 
     48 H         128.1776   20.1303   50.1187 H         1 PZ1805      0.0000 
     49 H         130.0683   19.3401   48.7925 H         1 PZ1805      0.0000 
     50 H         127.9727   16.1050   37.9233 H         1 PZ1805      0.0000 
     51 H         127.3842   17.9122   35.6622 H         1 PZ1805      0.0000 
     52 H         126.8948   16.2356   35.9614 H         1 PZ1805      0.0000 
     53 H         130.5635   17.4645   34.4321 H         1 PZ1805      0.0000 
     54 H         130.7934   15.7632   34.8711 H         1 PZ1805      0.0000 
     55 H         126.4146   18.1104   37.4747 H         1 PZ1805      0.0000 
     56 H         127.8498   19.0997   37.7934 H         1 PZ1805      0.0000 
     57 H         130.2947   19.7565   38.5513 H         1 PZ1805      0.0000 
     58 H         130.4574   15.6359   39.5902 H         1 PZ1805      0.0000 
     59 H         131.3003   16.2540   41.8227 H         1 PZ1805      0.0000 
     60 H         131.1290   20.3618   40.7611 H         1 PZ1805      0.0000 
     61 H         133.7664   18.3361   42.7962 H         1 PZ1805      0.0000 
     62 H         132.6994   17.1312   43.5374 H         1 PZ1805      0.0000 
     63 H         132.5426   19.8277   44.7548 H         1 PZ1805      0.0000 
     64 H         134.1207   19.0341   44.8959 H         1 PZ1805      0.0000 
     65 H         132.2472   16.9859   45.4656 H         1 PZ1805      0.0000 
     66 H         133.4066   17.7495   46.5668 H         1 PZ1805      0.0000 
     67 H         122.3854   15.6803   38.4707 H         1 PZ1805      0.0000 
     68 H         121.0496   16.5826   37.7348 H         1 PZ1805      0.0000 
     69 H         128.0243   19.5808   41.2988 H         1 PZ1805      0.0000 
     70 H         126.6220   21.1804   42.5275 H         1 PZ1805      0.0000 
     71 H         124.6295   18.3126   39.0921 H         1 PZ1805      0.0000 
     72 H         124.4303   22.7091   42.1860 H         1 PZ1805      0.0000 
     73 H         124.0983   21.4747   43.4132 H         1 PZ1805      0.0000 
     74 H         122.2370   22.8523   41.7367 H         1 PZ1805      0.0000 
     75 H         121.9050   21.6179   42.9639 H         1 PZ1805      0.0000 
     76 H         121.3450   21.5323   40.1684 H         1 PZ1805      0.0000 
     77 H         121.0144   20.2972   41.3953 H         1 PZ1805      0.0000 
     78 H         122.7915   19.0370   38.2364 H         1 PZ1805      0.0000 
     79 H         121.1736   19.4673   38.8170 H         1 PZ1805      0.0000 
     80 H         122.9526   17.1993   40.0586 H         1 PZ1805      0.0000 
     81 H         121.3315   17.6281   40.6317 H         1 PZ1805      0.0000 
     82 H         127.8929   16.9543   45.1366 H         1 PZ1805      0.0000 
     83 H         126.3273   17.2725   45.3205 H         1 PZ1805      0.0000 
     84 H         126.9954   17.3403   43.8593 H         1 PZ1805      0.0000 
     85 H         120.9002   14.2114   38.7405 H         1 PZ1805      0.0000 
@<TRIPOS>BOND
     1    2    1 1    
     2   82    1 1    
     3   83    1 1    
     4   84    1 1    
     5    3    2 1    
     6    4    3 ar   
     7    7    3 ar   
     8    5    4 1    
     9   10    4 ar   
    10    6    5 1    
    11   44    5 1    
    12   45    5 1    
    13   29    6 1    
    14    8    7 ar   
    15   46    7 1    
    16    9    8 ar   
    17   47    8 1    
    18   10    9 ar   
    19   48    9 1    
    20   49   10 1    
    21   12   11 1    
    22   16   11 1    
    23   18   11 1    
    24   50   11 1    
    25   13   12 1    
    26   51   12 1    
    27   52   12 1    
    28   14   13 1    
    29   15   14 1    
    30   53   14 1    
    31   54   14 1    
    32   16   15 am   
    33   17   15 2    
    34   21   16 1    
    35   19   18 1    
    36   55   18 1    
    37   56   18 1    
    38   36   19 1    
    39   21   20 ar   
    40   25   20 ar   
    41   57   20 1    
    42   22   21 ar   
    43   23   22 ar   
    44   58   22 1    
    45   24   23 ar   
    46   59   23 1    
    47   25   24 ar   
    48   26   24 1    
    49   60   25 1    
    50   27   26 1    
    51   28   27 1    
    52   61   27 1    
    53   62   27 1    
    54   29   28 1    
    55   63   28 1    
    56   64   28 1    
    57   65   29 1    
    58   66   29 1    
    59   42   30 1    
    60   43   30 1    
    61   67   30 1    
    62   68   30 1    
    63   32   31 ar   
    64   36   31 ar   
    65   69   31 1    
    66   33   32 ar   
    67   70   32 1    
    68   34   33 ar   
    69   37   33 1    
    70   35   34 ar   
    71   40   34 1    
    72   36   35 ar   
    73   71   35 1    
    74   38   37 1    
    75   72   37 1    
    76   73   37 1    
    77   39   38 1    
    78   74   38 1    
    79   75   38 1    
    80   40   39 1    
    81   76   39 1    
    82   77   39 1    
    83   41   40 1    
    84   42   41 1    
    85   78   41 1    
    86   79   41 1    
    87   80   42 1    
    88   81   42 1    
    89   85   43 1    
@<TRIPOS>SUBSTRUCTURE
     1 PZ1805      1 GROUP   
@<TRIPOS>SET

