#    Name: 1fta_AMP_1_INTS_M
#    Modification time : Tue Mar 25 02:04:23 2014

@<TRIPOS>MOLECULE
1fta_AMP_1_INTS_M
   54     0    12     0     0
SMALL
NO_CHARGES


@<TRIPOS>ATOM
      1 NZ         13.4125   59.6555   14.5350 N.4       3 LYC4        0.0000 
      2 NZ         14.1710   59.3310   15.5260 N.4      11 LYL4        0.0000 
      3 NZ         12.6540   59.9800   13.5440 N.4       7 LYP4        0.0000 
      4 N          15.2415   58.9045   14.7600 N.am      2 SEC2        0.0000 
      5 N          14.1710   59.3310   15.5260 N.am     10 SEL2        0.0000 
      6 N          16.3120   58.4780   13.9940 N.am      6 SEP2        0.0000 
      7 NZ         13.1970   60.6100   15.2415 N.4       3 LYC4        0.0000 
      8 NZ         13.7400   61.2400   16.9390 N.4      11 LYL4        0.0000 
      9 N          13.3305   61.6535   18.1620 N.am      2 SEC2        0.0000 
     10 N          13.7400   61.2400   16.9390 N.am     10 SEL2        0.0000 
     11 N          12.9210   62.0670   19.3850 N.am      6 SEP2        0.0000 
     12 N          12.4565   60.8980   17.3285 N.am      2 SEC2        0.0000 
     13 N          11.1730   60.5560   17.7180 N.am      6 SEP2        0.0000 
     14 N          13.5105   59.3710   19.1030 N.am      2 SEC2        0.0000 
     15 N          14.5240   59.1690   17.9490 N.am     10 SEL2        0.0000 
     16 N          12.4970   59.5730   20.2570 N.am      6 SEP2        0.0000 
     17 N          13.4665   58.2940   18.2890 N.am      2 SEC2        0.0000 
     18 N          12.4090   57.4190   18.6290 N.am      6 SEP2        0.0000 
     19 N          14.5340   57.6515   17.6675 N.am      2 SEC2        0.0000 
     20 N          14.5440   56.1340   17.3860 N.am      6 SEP2        0.0000 
     21 CA         15.8290   62.1625   17.6180 C.3       4 GLC5        0.0000 
     22 CA         16.4080   61.6450   15.6150 C.3      12 GLL5        0.0000 
     23 CA         15.2500   62.6800   19.6210 C.3       8 GLP5        0.0000 
     24 CA         17.2185   58.8470   14.1965 C.3       4 GLC5        0.0000 
     25 CA         18.4340   60.4150   15.0070 C.3      12 GLL5        0.0000 
     26 CA         16.0030   57.2790   13.3860 C.3       8 GLP5        0.0000 
     27 CA         20.4520   58.6850   14.6870 C.3       4 GLC5        0.0000 
     28 CA         19.6440   60.1380   15.9060 C.3      12 GLL5        0.0000 
     29 CA         21.2600   57.2320   13.4680 C.3       8 GLP5        0.0000 
     30 CA         19.8560   61.8745   18.7810 C.3       4 GLC5        0.0000 
     31 CA         19.4190   60.9940   17.1840 C.3      12 GLL5        0.0000 
     32 CA         20.2930   62.7550   20.3780 C.3       8 GLP5        0.0000 
     33 N          17.2810   57.6180   20.8505 N.am      2 SEC2        0.0000 
     34 N          17.9640   58.6650   19.6930 N.am     10 SEL2        0.0000 
     35 N          16.5980   56.5710   22.0080 N.am      6 SEP2        0.0000 
     36 CA         21.4980   58.0225   22.2690 C.3       4 GLC5        0.0000 
     37 CA         19.9530   57.5990   20.7210 C.3      12 GLL5        0.0000 
     38 CA         23.0430   58.4460   23.8170 C.3       8 GLP5        0.0000 
     39 O          19.6580   56.7580   22.9405 O.2       1 ALC1        0.0000 
     40 O          19.3060   56.8340   21.5720 O.2       9 ALL1        0.0000 
     41 O          20.0100   56.6820   24.3090 O.2       5 ALP1        0.0000 
     42 O          17.9520   56.7025   21.7900 O.2       1 ALC1        0.0000 
     43 O          16.5980   56.5710   22.0080 O.2       5 ALP1        0.0000 
     44 CA         22.4950   58.4530   21.8060 C.3       4 GLC5        0.0000 
     45 CA         21.9470   58.4600   19.7950 C.3      12 GLL5        0.0000 
     46 CA         23.1120   56.9945   19.3035 C.3       4 GLC5        0.0000 
     47 CA         24.2770   55.5290   18.8120 C.3       8 GLP5        0.0000 
     48 CA         19.2025   58.4032   16.0177 C.3       4 GLC5        0.0000 
     49 CA         19.3660   56.5300   16.5790 C.3       8 GLP5        0.0000 
     50 CA         19.9703   60.8633   19.9337 C.3       4 GLC5        0.0000 
     51 CA         19.3050   58.5690   19.9340 C.3      12 GLL5        0.0000 
     52 CA         19.3292   59.3520   21.3661 C.3       4 GLC5        0.0000 
     53 CA         18.8490   59.9750   23.0460 C.3       8 GLP5        0.0000 
     54 CA         19.5877   57.6295   18.1326 C.3       4 GLC5        0.0000 
@<TRIPOS>BOND
@<TRIPOS>SUBSTRUCTURE
     1 ALC1       39 GROUP        1 X    ALC  0     ROOT ALC X 1
     2 SEC2        4 GROUP        1 X    SEC  0     **** SEC X 2
     3 LYC4        1 GROUP        1 X    LYC  0     **** LYC X 4
     4 GLC5       21 GROUP        1 X    GLC  0     **** GLC X 6
     5 ALP1       41 GROUP        1 Y    ALP  0     ROOT ALP Y 8
     6 SEP2        6 GROUP        1 Y    SEP  0     **** SEP Y 9
     7 LYP4        3 GROUP        1 Y    LYP  0     **** LYP Y 11
     8 GLP5       23 GROUP        1 Y    GLP  0     **** GLP Y 13
     9 ALL1       40 GROUP        1 Z    ALL  0     ROOT ALL Z 15
    10 SEL2        5 GROUP        1 Z    SEL  0     **** SEL Z 16
    11 LYL4        2 GROUP        1 Z    LYL  0     **** LYL Z 18
    12 GLL5       22 GROUP        1 Z    GLL  0     **** GLL Z 20
@<TRIPOS>SET

