#    Name: 1fta_AMP_1_ligand
#    Modification time : Tue Mar 25 02:04:23 2014

@<TRIPOS>MOLECULE
1fta_AMP_1_ligand
   35    37     1     0     0
SMALL
NO_CHARGES


@<TRIPOS>ATOM
      1 P          14.6600   60.0770   16.7220 P.3       1 AMP338      0.0000 
      2 O1P        14.1710   59.3310   15.5260 O.co2     1 AMP338      0.0000 
      3 O2P        13.7400   61.2400   16.9390 O.co2     1 AMP338      0.0000 
      4 O3P        14.5240   59.1690   17.9490 O.co2     1 AMP338      0.0000 
      5 O5'        16.1470   60.5340   16.5300 O.3       1 AMP338      0.0000 
      6 C5'        16.4080   61.6450   15.6150 C.3       1 AMP338      0.0000 
      7 C4'        17.8510   61.7280   15.5580 C.3       1 AMP338      0.0000 
      8 O4'        18.3840   61.8870   16.8940 O.3       1 AMP338      0.0000 
      9 C3'        18.4340   60.4150   15.0070 C.3       1 AMP338      0.0000 
     10 O3'        18.7420   60.4570   13.6240 O.3       1 AMP338      0.0000 
     11 C2'        19.6440   60.1380   15.9060 C.3       1 AMP338      0.0000 
     12 O2'        20.8820   60.4040   15.2610 O.3       1 AMP338      0.0000 
     13 C1'        19.4190   60.9940   17.1840 C.3       1 AMP338      0.0000 
     14 N9         19.0940   60.1790   18.4260 N.pl3     1 AMP338      0.0000 
     15 C8         17.8710   59.6220   18.7140 C.2       1 AMP338      0.0000 
     16 N7         17.9640   58.6650   19.6930 N.2       1 AMP338      0.0000 
     17 C5         19.3050   58.5690   19.9340 C.ar      1 AMP338      0.0000 
     18 C6         19.9530   57.5990   20.7210 C.ar      1 AMP338      0.0000 
     19 N6         19.3060   56.8340   21.5720 N.pl3     1 AMP338      0.0000 
     20 N1         21.3100   57.7680   20.7990 N.ar      1 AMP338      0.0000 
     21 C2         21.9470   58.4600   19.7950 C.ar      1 AMP338      0.0000 
     22 N3         21.3370   59.4330   19.0610 N.ar      1 AMP338      0.0000 
     23 C4         19.9900   59.3740   19.0450 C.ar      1 AMP338      0.0000 
     24 H          15.9863   62.5572   16.0076 H         1 AMP338      0.0000 
     25 H          15.9972   61.4291   14.6410 H         1 AMP338      0.0000 
     26 H          18.1766   62.5210   14.9253 H         1 AMP338      0.0000 
     27 H          17.6958   59.6369   15.2471 H         1 AMP338      0.0000 
     28 H          19.5602   59.0941   16.2250 H         1 AMP338      0.0000 
     29 H          20.3520   61.5378   17.3605 H         1 AMP338      0.0000 
     30 H          17.0354   59.8778   18.2734 H         1 AMP338      0.0000 
     31 H          18.3453   56.6547   21.3601 H         1 AMP338      0.0000 
     32 H          19.8336   56.5011   22.3536 H         1 AMP338      0.0000 
     33 H          22.9551   58.2224   19.5875 H         1 AMP338      0.0000 
     34 H          18.5624   59.5315   13.2908 H         1 AMP338      0.0000 
     35 H          20.6504   60.5226   14.2955 H         1 AMP338      0.0000 
@<TRIPOS>BOND
     1    2    1 ar   
     2    3    1 ar   
     3    4    1 ar   
     4    5    1 1    
     5    6    5 1    
     6    7    6 1    
     7   24    6 1    
     8   25    6 1    
     9    8    7 1    
    10    9    7 1    
    11   26    7 1    
    12   13    8 1    
    13   10    9 1    
    14   11    9 1    
    15   27    9 1    
    16   34   10 1    
    17   12   11 1    
    18   13   11 1    
    19   28   11 1    
    20   35   12 1    
    21   14   13 1    
    22   29   13 1    
    23   15   14 1    
    24   23   14 1    
    25   16   15 2    
    26   30   15 1    
    27   17   16 1    
    28   18   17 ar   
    29   23   17 ar   
    30   19   18 1    
    31   20   18 ar   
    32   31   19 1    
    33   32   19 1    
    34   21   20 ar   
    35   22   21 ar   
    36   33   21 1    
    37   23   22 ar   
@<TRIPOS>SUBSTRUCTURE
     1 AMP338      1 GROUP   
@<TRIPOS>SET

