#    Name: 2bxd_RWF_2_INTS_M
#    Modification time : Mon Mar 24 21:51:18 2014

@<TRIPOS>MOLECULE
2bxd_RWF_2_INTS_M
   41     0     3     0     0
SMALL
NO_CHARGES


@<TRIPOS>ATOM
      1 CA         44.9220   33.1175   54.8145 C.3       1 GLC5        0.0000 
      2 CA         46.0440   34.2800   53.8470 C.3       3 GLL5        0.0000 
      3 CA         43.8000   31.9550   55.7820 C.3       2 GLP5        0.0000 
      4 CA         41.3545   38.0305   57.2385 C.3       1 GLC5        0.0000 
      5 CA         40.5690   36.3470   55.9830 C.3       3 GLL5        0.0000 
      6 CA         42.1400   39.7140   58.4940 C.3       2 GLP5        0.0000 
      7 CA         40.3410   35.8645   51.4015 C.3       1 GLC5        0.0000 
      8 CA         42.1880   36.8510   51.5730 C.3       3 GLL5        0.0000 
      9 CA         38.4940   34.8780   51.2300 C.3       2 GLP5        0.0000 
     10 CA         39.6480   38.2005   45.0320 C.3       1 GLC5        0.0000 
     11 CA         39.7330   37.4260   47.0800 C.3       3 GLL5        0.0000 
     12 CA         39.5630   38.9750   42.9840 C.3       2 GLP5        0.0000 
     13 CA         39.6760   36.3220   50.2160 C.3       1 GLC5        0.0000 
     14 CA         40.8580   37.7660   49.2020 C.3       3 GLL5        0.0000 
     15 CA         39.9878   36.4560   53.8088 C.3       1 GLC5        0.0000 
     16 CA         41.9530   35.9660   53.9730 C.3       3 GLL5        0.0000 
     17 CA         38.2700   36.5140   53.1370 C.3       2 GLP5        0.0000 
     18 CA         40.1058   38.4972   55.1162 C.3       1 GLC5        0.0000 
     19 CA         41.4580   36.8300   54.9880 C.3       3 GLL5        0.0000 
     20 CA         39.1980   40.4060   54.7470 C.3       2 GLP5        0.0000 
     21 CA         39.3182   36.0983   54.5600 C.3       1 GLC5        0.0000 
     22 CA         39.6713   35.4550   53.8237 C.3       1 GLC5        0.0000 
     23 CA         40.6300   34.1680   55.0110 C.3       3 GLL5        0.0000 
     24 CA         40.2657   33.0350   53.5892 C.3       1 GLC5        0.0000 
     25 CA         39.4590   31.6740   52.6680 C.3       2 GLP5        0.0000 
     26 CA         41.6725   32.9808   55.3353 C.3       1 GLC5        0.0000 
     27 CA         41.5150   34.6240   54.0100 C.3       3 GLL5        0.0000 
     28 CA         42.3890   31.3530   55.9170 C.3       2 GLP5        0.0000 
     29 CA         44.1585   36.9750   51.1029 C.3       1 GLC5        0.0000 
     30 CA         42.9170   36.4830   52.8830 C.3       3 GLL5        0.0000 
     31 CA         45.4810   37.5380   50.0540 C.3       2 GLP5        0.0000 
     32 CA         40.8678   34.3098   46.4905 C.3       1 GLC5        0.0000 
     33 CA         40.5510   35.4960   48.3390 C.3       3 GLL5        0.0000 
     34 CA         41.5100   32.8550   45.2060 C.3       2 GLP5        0.0000 
     35 CA         39.4207   35.4296   49.6317 C.3       1 GLC5        0.0000 
     36 CA         39.9000   36.0330   47.2110 C.3       3 GLL5        0.0000 
     37 CA         38.2568   36.5963   46.3422 C.3       1 GLC5        0.0000 
     38 CA         36.6970   36.4630   45.5390 C.3       2 GLP5        0.0000 
     39 CA         41.5860   39.7925   48.2087 C.3       1 GLC5        0.0000 
     40 CA         40.2000   38.3020   48.0650 C.3       3 GLL5        0.0000 
     41 CA         42.6430   41.5510   47.7840 C.3       2 GLP5        0.0000 
@<TRIPOS>BOND
@<TRIPOS>SUBSTRUCTURE
     1 GLC5        1 GROUP        1 X    GLC  0     ROOT GLC X 6
     2 GLP5        3 GROUP        1 Y    GLP  0     ROOT GLP Y 13
     3 GLL5        2 GROUP        1 Z    GLL  0     ROOT GLL Z 20
@<TRIPOS>SET

