#    Name: 2bxd_RWF_2_ligand
#    Modification time : Mon Mar 24 21:51:18 2014

@<TRIPOS>MOLECULE
2bxd_RWF_2_ligand
   38    40     1     0     0
SMALL
NO_CHARGES


@<TRIPOS>ATOM
      1 C1         41.0390   36.3630   49.3730 C.ar      1 RWF2001     0.0000 
      2 C2         42.9170   36.4830   52.8830 C.3       1 RWF2001     0.0000 
      3 C3         44.0510   35.4630   52.5780 C.3       1 RWF2001     0.0000 
      4 C4         45.1690   35.4880   53.5900 C.2       1 RWF2001     0.0000 
      5 C5         46.0440   34.2800   53.8470 C.3       1 RWF2001     0.0000 
      6 C6         41.9530   35.9660   53.9730 C.ar      1 RWF2001     0.0000 
      7 C7         41.4580   36.8300   54.9880 C.ar      1 RWF2001     0.0000 
      8 C8         40.5690   36.3470   55.9830 C.ar      1 RWF2001     0.0000 
      9 C9         40.1640   35.0180   55.9830 C.ar      1 RWF2001     0.0000 
     10 C10        40.6300   34.1680   55.0110 C.ar      1 RWF2001     0.0000 
     11 C11        41.9630   38.2800   51.3330 C.2       1 RWF2001     0.0000 
     12 C12        41.5150   34.6240   54.0100 C.ar      1 RWF2001     0.0000 
     13 C13        42.1880   36.8510   51.5730 C.2       1 RWF2001     0.0000 
     14 C14        41.7440   35.9270   50.6100 C.2       1 RWF2001     0.0000 
     15 C15        40.5510   35.4960   48.3390 C.ar      1 RWF2001     0.0000 
     16 C16        39.9000   36.0330   47.2110 C.ar      1 RWF2001     0.0000 
     17 C17        39.7330   37.4260   47.0800 C.ar      1 RWF2001     0.0000 
     18 C18        40.2000   38.3020   48.0650 C.ar      1 RWF2001     0.0000 
     19 C19        40.8580   37.7660   49.2020 C.ar      1 RWF2001     0.0000 
     20 O1         41.3050   38.6800   50.1690 O.3       1 RWF2001     0.0000 
     21 O2         42.2950   39.1940   52.0710 O.2       1 RWF2001     0.0000 
     22 O3         45.3520   36.6790   54.2910 O.2       1 RWF2001     0.0000 
     23 O4         41.8830   34.5780   50.7030 O.co2     1 RWF2001     0.0000 
     24 H          43.3992   37.3943   53.2584 H         1 RWF2001     0.0000 
     25 H          44.4478   35.6849   51.5770 H         1 RWF2001     0.0000 
     26 H          43.6041   34.4592   52.5393 H         1 RWF2001     0.0000 
     27 H          41.7472   37.8122   55.0000 H         1 RWF2001     0.0000 
     28 H          40.2293   36.9959   56.7039 H         1 RWF2001     0.0000 
     29 H          39.5192   34.6805   56.7096 H         1 RWF2001     0.0000 
     30 H          40.3383   33.1753   54.9970 H         1 RWF2001     0.0000 
     31 H          41.8482   33.9643   53.2917 H         1 RWF2001     0.0000 
     32 H          40.6816   34.4889   48.4318 H         1 RWF2001     0.0000 
     33 H          39.5456   35.4067   46.4810 H         1 RWF2001     0.0000 
     34 H          39.2593   37.8001   46.2447 H         1 RWF2001     0.0000 
     35 H          40.0751   39.3046   47.9768 H         1 RWF2001     0.0000 
     36 H          46.5327   33.9933   53.0230 H         1 RWF2001     0.0000 
     37 H          46.7334   34.4631   54.5478 H         1 RWF2001     0.0000 
     38 H          45.5100   33.4943   54.1594 H         1 RWF2001     0.0000 
@<TRIPOS>BOND
     1   14    1 1    
     2   15    1 ar   
     3   19    1 ar   
     4    3    2 1    
     5    6    2 1    
     6   13    2 1    
     7   24    2 1    
     8    4    3 1    
     9   25    3 1    
    10   26    3 1    
    11    5    4 1    
    12   22    4 2    
    13   36    5 1    
    14   37    5 1    
    15   38    5 1    
    16    7    6 ar   
    17   12    6 ar   
    18    8    7 ar   
    19   27    7 1    
    20    9    8 ar   
    21   28    8 1    
    22   10    9 ar   
    23   29    9 1    
    24   12   10 ar   
    25   30   10 1    
    26   13   11 1    
    27   20   11 1    
    28   21   11 2    
    29   31   12 1    
    30   14   13 2    
    31   23   14 ar   
    32   16   15 ar   
    33   32   15 1    
    34   17   16 ar   
    35   33   16 1    
    36   18   17 ar   
    37   34   17 1    
    38   19   18 ar   
    39   35   18 1    
    40   20   19 1    
@<TRIPOS>SUBSTRUCTURE
     1 RWF2001     1 GROUP   
@<TRIPOS>SET

