#    Name: 2wsi_FAD_1_INTS_M
#    Modification time : Tue Mar 25 04:37:47 2014

@<TRIPOS>MOLECULE
2wsi_FAD_1_INTS_M
   88     0    12     0     0
SMALL
NO_CHARGES


@<TRIPOS>ATOM
      1 N          19.1195   23.1340   24.4040 N.am      2 SEC2        0.0000 
      2 N          20.0060   24.0620   23.6670 N.am     10 SEL2        0.0000 
      3 N          18.2330   22.2060   25.1410 N.am      6 SEP2        0.0000 
      4 O          20.7465   24.8655   24.7975 O.2       1 ALC1        0.0000 
      5 O          20.0060   24.0620   23.6670 O.2       9 ALL1        0.0000 
      6 O          21.4870   25.6690   25.9280 O.2       5 ALP1        0.0000 
      7 CA         22.1610   25.2650   24.3065 C.3       4 GLC5        0.0000 
      8 CA         22.2300   23.6050   22.9530 C.3      12 GLL5        0.0000 
      9 CA         22.0920   26.9250   25.6600 C.3       8 GLP5        0.0000 
     10 CA         21.7370   22.3735   24.6520 C.3       4 GLC5        0.0000 
     11 CA         21.2440   21.1420   26.3510 C.3       8 GLP5        0.0000 
     12 N          22.9795   24.2490   19.2785 N.am      2 SEC2        0.0000 
     13 N          24.4170   24.1420   20.0700 N.am     10 SEL2        0.0000 
     14 N          21.5420   24.3560   18.4870 N.am      6 SEP2        0.0000 
     15 CA         26.4585   27.7195   20.6160 C.3       4 GLC5        0.0000 
     16 CA         24.8150   26.6180   20.1680 C.3      12 GLL5        0.0000 
     17 CA         28.1020   28.8210   21.0640 C.3       8 GLP5        0.0000 
     18 O          26.2995   27.9750   18.7085 O.2       1 ALC1        0.0000 
     19 O          25.6270   26.7440   19.1020 O.2       9 ALL1        0.0000 
     20 O          26.9720   29.2060   18.3150 O.2       5 ALP1        0.0000 
     21 N          25.2765   28.9580   20.9185 N.am      2 SEC2        0.0000 
     22 N          24.5190   27.7200   20.9160 N.am     10 SEL2        0.0000 
     23 N          26.0340   30.1960   20.9210 N.am      6 SEP2        0.0000 
     24 CA         22.9035   27.2900   23.8475 C.3       4 GLC5        0.0000 
     25 CA         23.7150   27.6550   22.0350 C.3      12 GLL5        0.0000 
     26 CA         21.5570   28.2235   22.1180 C.3       4 GLC5        0.0000 
     27 CA         19.3990   28.7920   22.2010 C.3       8 GLP5        0.0000 
     28 CA         22.6420   27.2220   20.2885 C.3       4 GLC5        0.0000 
     29 CA         21.5690   26.7890   18.5420 C.3       8 GLP5        0.0000 
     30 CA         23.9005   29.5805   21.7790 C.3       4 GLC5        0.0000 
     31 CA         24.0860   31.5060   21.5230 C.3       8 GLP5        0.0000 
     32 CA         25.8270   28.2055   22.3135 C.3       4 GLC5        0.0000 
     33 CA         27.9390   28.7560   22.5920 C.3       8 GLP5        0.0000 
     34 CA         22.7915   26.1360   23.6740 C.3       4 GLC5        0.0000 
     35 CA         23.4910   25.3470   21.6880 C.3      12 GLL5        0.0000 
     36 O          29.2380   15.7095   30.4170 O.2       1 ALC1        0.0000 
     37 O          29.1780   16.6660   29.5190 O.2       9 ALL1        0.0000 
     38 O          29.2980   14.7530   31.3150 O.2       5 ALP1        0.0000 
     39 N          29.3005   17.8675   32.2800 N.am      2 SEC2        0.0000 
     40 N          28.7850   18.2610   31.0300 N.am     10 SEL2        0.0000 
     41 N          29.8160   17.4740   33.5300 N.am      6 SEP2        0.0000 
     42 CA         25.6875   25.5565   26.7970 C.3       4 GLC5        0.0000 
     43 CA         25.1910   24.0500   27.7070 C.3      12 GLL5        0.0000 
     44 CA         26.1840   27.0630   25.8870 C.3       8 GLP5        0.0000 
     45 CA         23.9970   25.4450   28.5840 C.3       4 GLC5        0.0000 
     46 CA         22.8030   26.8400   29.4610 C.3       8 GLP5        0.0000 
     47 CA         27.2390   23.5260   27.7410 C.3       4 GLC5        0.0000 
     48 CA         29.2870   23.0020   27.7750 C.3       8 GLP5        0.0000 
     49 CA         26.1690   24.2270   29.4145 C.3       4 GLC5        0.0000 
     50 CA         27.1470   24.4040   31.1220 C.3       8 GLP5        0.0000 
     51 CA         26.0240   23.4815   23.4820 C.3       4 GLC5        0.0000 
     52 CA         25.0340   22.9420   25.0570 C.3      12 GLL5        0.0000 
     53 CA         27.0140   24.0210   21.9070 C.3       8 GLP5        0.0000 
     54 CA         26.1605   24.6830   25.2040 C.3       4 GLC5        0.0000 
     55 CA         27.2870   26.4240   25.3510 C.3       8 GLP5        0.0000 
     56 CA         23.1390   22.0420   25.7040 C.3       4 GLC5        0.0000 
     57 CA         28.5735   19.7175   25.8390 C.3       4 GLC5        0.0000 
     58 CA         27.2320   18.3950   25.1810 C.3      12 GLL5        0.0000 
     59 CA         29.9150   21.0400   26.4970 C.3       8 GLP5        0.0000 
     60 NZ         23.3850   16.2120   17.7360 N.4       3 LYC4        0.0000 
     61 NZ         23.9330   16.8930   18.8170 N.4      11 LYL4        0.0000 
     62 NZ         23.6740   14.8290   15.9030 N.4       7 LYP4        0.0000 
     63 N          23.3850   16.2120   17.7360 N.am      2 SEC2        0.0000 
     64 N          23.9330   16.8930   18.8170 N.am     10 SEL2        0.0000 
     65 N          22.8370   15.5310   16.6550 N.am      6 SEP2        0.0000 
     66 CA         21.3560   21.0027   24.3937 C.3       4 GLC5        0.0000 
     67 CA         21.6620   20.2240   22.0620 C.3      12 GLL5        0.0000 
     68 CA         20.1755   19.5052   23.3518 C.3       4 GLC5        0.0000 
     69 CA         21.2740   21.5030   22.8110 C.3      12 GLL5        0.0000 
     70 CA         18.8830   18.1470   24.2670 C.3       8 GLP5        0.0000 
     71 CA         18.9948   21.7455   23.4265 C.3       4 GLC5        0.0000 
     72 CA         17.1290   21.5220   24.4740 C.3       8 GLP5        0.0000 
     73 CA         18.7520   24.0938   21.9950 C.3       4 GLC5        0.0000 
     74 CA         20.4470   22.4350   21.9470 C.3      12 GLL5        0.0000 
     75 CA         16.8820   25.0740   21.7520 C.3       8 GLP5        0.0000 
     76 CA         22.7963   26.2338   19.7845 C.3       4 GLC5        0.0000 
     77 CA         24.2970   25.4020   20.5640 C.3      12 GLL5        0.0000 
     78 CA         25.5187   24.8498   21.4670 C.3       4 GLC5        0.0000 
     79 CA         24.6968   21.5365   28.6745 C.3       4 GLC5        0.0000 
     80 CA         26.3600   21.9400   28.4610 C.3      12 GLL5        0.0000 
     81 CA         22.7660   21.7620   29.0280 C.3       8 GLP5        0.0000 
     82 CA         25.7413   20.1830   29.7865 C.3       4 GLC5        0.0000 
     83 CA         24.8550   19.0550   31.2520 C.3       8 GLP5        0.0000 
     84 CA         24.1758   22.2643   27.9468 C.3       4 GLC5        0.0000 
     85 CA         25.7650   22.6880   27.4410 C.3      12 GLL5        0.0000 
     86 CA         24.0475   16.8150   24.7193 C.3       4 GLC5        0.0000 
     87 CA         25.9060   17.6210   25.0150 C.3      12 GLL5        0.0000 
     88 CA         22.2540   16.3440   25.1060 C.3       8 GLP5        0.0000 
@<TRIPOS>BOND
@<TRIPOS>SUBSTRUCTURE
     1 ALC1        4 GROUP        1 X    ALC  0     ROOT ALC X 1
     2 SEC2        1 GROUP        1 X    SEC  0     **** SEC X 2
     3 LYC4       60 GROUP        1 X    LYC  0     **** LYC X 4
     4 GLC5        7 GROUP        1 X    GLC  0     **** GLC X 6
     5 ALP1        6 GROUP        1 Y    ALP  0     ROOT ALP Y 8
     6 SEP2        3 GROUP        1 Y    SEP  0     **** SEP Y 9
     7 LYP4       62 GROUP        1 Y    LYP  0     **** LYP Y 11
     8 GLP5        9 GROUP        1 Y    GLP  0     **** GLP Y 13
     9 ALL1        5 GROUP        1 Z    ALL  0     ROOT ALL Z 15
    10 SEL2        2 GROUP        1 Z    SEL  0     **** SEL Z 16
    11 LYL4       61 GROUP        1 Z    LYL  0     **** LYL Z 18
    12 GLL5        8 GROUP        1 Z    GLL  0     **** GLL Z 20
@<TRIPOS>SET

