#    Name: 2wsi_FAD_1_ligand
#    Modification time : Tue Mar 25 04:37:47 2014

@<TRIPOS>MOLECULE
2wsi_FAD_1_ligand
   84    89     1     0     0
SMALL
NO_CHARGES


@<TRIPOS>ATOM
      1 PA         23.1310   19.6920   19.9690 P.3       1 FAD2762     0.0000 
      2 O1A        23.1130   19.8600   18.4740 O.co2     1 FAD2762     0.0000 
      3 O2A        24.5050   19.9470   20.5260 O.co2     1 FAD2762     0.0000 
      4 O5B        21.9970   20.5670   20.7300 O.3       1 FAD2762     0.0000 
      5 C5B        21.6620   20.2240   22.0620 C.3       1 FAD2762     0.0000 
      6 C4B        21.2740   21.5030   22.8110 C.3       1 FAD2762     0.0000 
      7 O4B        22.4330   22.2180   23.1510 O.3       1 FAD2762     0.0000 
      8 C3B        20.4470   22.4350   21.9470 C.3       1 FAD2762     0.0000 
      9 O3B        19.0730   22.1600   22.0540 O.3       1 FAD2762     0.0000 
     10 C2B        20.7970   23.7920   22.5290 C.3       1 FAD2762     0.0000 
     11 O2B        20.0060   24.0620   23.6670 O.3       1 FAD2762     0.0000 
     12 C1B        22.2300   23.6050   22.9530 C.3       1 FAD2762     0.0000 
     13 N9A        23.1010   24.0610   21.8580 N.pl3     1 FAD2762     0.0000 
     14 C8A        23.6710   23.3180   20.8550 C.2       1 FAD2762     0.0000 
     15 N7A        24.4170   24.1420   20.0700 N.2       1 FAD2762     0.0000 
     16 C5A        24.2970   25.4020   20.5640 C.ar      1 FAD2762     0.0000 
     17 C6A        24.8150   26.6180   20.1680 C.ar      1 FAD2762     0.0000 
     18 N6A        25.6270   26.7440   19.1020 N.pl3     1 FAD2762     0.0000 
     19 N1A        24.5190   27.7200   20.9160 N.ar      1 FAD2762     0.0000 
     20 C2A        23.7150   27.6550   22.0350 C.ar      1 FAD2762     0.0000 
     21 N3A        23.1690   26.4470   22.4030 N.ar      1 FAD2762     0.0000 
     22 C4A        23.4910   25.3470   21.6880 C.ar      1 FAD2762     0.0000 
     23 N1         28.4680   16.9490   27.2680 N.2       1 FAD2762     0.0000 
     24 C2         29.0800   16.1930   28.2340 C.2       1 FAD2762     0.0000 
     25 O2         29.5470   15.0890   27.9530 O.2       1 FAD2762     0.0000 
     26 N3         29.1780   16.6660   29.5190 N.am      1 FAD2762     0.0000 
     27 C4         28.6710   17.9030   29.8530 C.2       1 FAD2762     0.0000 
     28 O4         28.7850   18.2610   31.0300 O.2       1 FAD2762     0.0000 
     29 C4X        28.0470   18.6800   28.8720 C.2       1 FAD2762     0.0000 
     30 N5         27.5160   19.9340   29.1620 N.2       1 FAD2762     0.0000 
     31 C5X        26.8950   20.6820   28.1810 C.ar      1 FAD2762     0.0000 
     32 C6         26.3600   21.9400   28.4610 C.ar      1 FAD2762     0.0000 
     33 C7         25.7650   22.6880   27.4410 C.ar      1 FAD2762     0.0000 
     34 C7M        25.1910   24.0500   27.7070 C.3       1 FAD2762     0.0000 
     35 C8         25.6930   22.1640   26.1570 C.ar      1 FAD2762     0.0000 
     36 C8M        25.0340   22.9420   25.0570 C.3       1 FAD2762     0.0000 
     37 C9         26.2150   20.9120   25.8870 C.ar      1 FAD2762     0.0000 
     38 C9A        26.8240   20.1750   26.8830 C.ar      1 FAD2762     0.0000 
     39 N10        27.3520   18.9360   26.5800 N.pl3     1 FAD2762     0.0000 
     40 C10        27.9390   18.1830   27.5770 C.2       1 FAD2762     0.0000 
     41 C1'        27.2320   18.3950   25.1810 C.3       1 FAD2762     0.0000 
     42 C2'        25.9060   17.6210   25.0150 C.3       1 FAD2762     0.0000 
     43 O2'        25.6930   16.6500   26.0120 O.3       1 FAD2762     0.0000 
     44 C3'        25.7760   16.9510   23.6500 C.3       1 FAD2762     0.0000 
     45 O3'        26.6570   15.8560   23.5850 O.3       1 FAD2762     0.0000 
     46 C4'        26.0850   17.9310   22.5340 C.3       1 FAD2762     0.0000 
     47 O4'        25.3830   19.1390   22.7410 O.3       1 FAD2762     0.0000 
     48 C5'        25.6590   17.3550   21.1830 C.3       1 FAD2762     0.0000 
     49 O5'        24.3910   16.7410   21.3200 O.3       1 FAD2762     0.0000 
     50 P          23.2690   16.8970   20.1740 P.3       1 FAD2762     0.0000 
     51 O1P        23.9330   16.8930   18.8170 O.co2     1 FAD2762     0.0000 
     52 O2P        22.1850   15.8600   20.3620 O.co2     1 FAD2762     0.0000 
     53 O3P        22.5190   18.2880   20.3910 O.3       1 FAD2762     0.0000 
     54 H          22.4999   19.7704   22.5962 H         1 FAD2762     0.0000 
     55 H          20.8107   19.5413   22.1124 H         1 FAD2762     0.0000 
     56 H          20.7024   21.2416   23.6769 H         1 FAD2762     0.0000 
     57 H          20.8329   22.3935   20.9581 H         1 FAD2762     0.0000 
     58 H          20.7506   24.5131   21.7755 H         1 FAD2762     0.0000 
     59 H          22.4081   24.1670   23.8314 H         1 FAD2762     0.0000 
     60 H          23.5579   22.3713   20.7327 H         1 FAD2762     0.0000 
     61 H          25.8150   25.9055   18.5905 H         1 FAD2762     0.0000 
     62 H          25.9699   27.6649   18.9165 H         1 FAD2762     0.0000 
     63 H          23.5267   28.5013   22.5871 H         1 FAD2762     0.0000 
     64 H          29.6382   16.0879   30.2479 H         1 FAD2762     0.0000 
     65 H          26.4028   22.3166   29.4143 H         1 FAD2762     0.0000 
     66 H          26.1479   20.5250   24.9291 H         1 FAD2762     0.0000 
     67 H          28.0566   17.7177   24.9697 H         1 FAD2762     0.0000 
     68 H          27.2487   19.2108   24.4616 H         1 FAD2762     0.0000 
     69 H          25.0891   18.3810   25.0583 H         1 FAD2762     0.0000 
     70 H          24.7437   16.6296   23.5393 H         1 FAD2762     0.0000 
     71 H          27.1502   18.0938   22.5024 H         1 FAD2762     0.0000 
     72 H          26.4305   16.6444   20.8683 H         1 FAD2762     0.0000 
     73 H          25.6434   18.1792   20.4622 H         1 FAD2762     0.0000 
     74 H          25.8843   24.6852   28.0475 H         1 FAD2762     0.0000 
     75 H          24.8014   24.4567   26.8807 H         1 FAD2762     0.0000 
     76 H          24.4615   24.0186   28.3902 H         1 FAD2762     0.0000 
     77 H          25.4863   23.8201   24.9007 H         1 FAD2762     0.0000 
     78 H          25.0506   22.4452   24.1893 H         1 FAD2762     0.0000 
     79 H          24.0756   23.1387   25.2639 H         1 FAD2762     0.0000 
     80 H          18.8344   22.3965   22.9958 H         1 FAD2762     0.0000 
     81 H          20.5701   24.6578   24.2387 H         1 FAD2762     0.0000 
     82 H          26.0764   15.8059   25.6371 H         1 FAD2762     0.0000 
     83 H          27.5209   16.2382   23.2570 H         1 FAD2762     0.0000 
     84 H          25.4741   19.6418   21.8813 H         1 FAD2762     0.0000 
@<TRIPOS>BOND
     1    2    1 ar   
     2    3    1 ar   
     3    4    1 1    
     4   53    1 1    
     5    5    4 1    
     6    6    5 1    
     7   54    5 1    
     8   55    5 1    
     9    7    6 1    
    10    8    6 1    
    11   56    6 1    
    12   12    7 1    
    13    9    8 1    
    14   10    8 1    
    15   57    8 1    
    16   80    9 1    
    17   11   10 1    
    18   12   10 1    
    19   58   10 1    
    20   81   11 1    
    21   13   12 1    
    22   59   12 1    
    23   14   13 1    
    24   22   13 1    
    25   15   14 2    
    26   60   14 1    
    27   16   15 1    
    28   17   16 ar   
    29   22   16 ar   
    30   18   17 1    
    31   19   17 ar   
    32   61   18 1    
    33   62   18 1    
    34   20   19 ar   
    35   21   20 ar   
    36   63   20 1    
    37   22   21 ar   
    38   24   23 1    
    39   40   23 2    
    40   25   24 2    
    41   26   24 am   
    42   27   26 am   
    43   64   26 1    
    44   28   27 2    
    45   29   27 1    
    46   30   29 2    
    47   40   29 1    
    48   31   30 1    
    49   32   31 ar   
    50   38   31 ar   
    51   33   32 ar   
    52   65   32 1    
    53   34   33 1    
    54   35   33 ar   
    55   74   34 1    
    56   75   34 1    
    57   76   34 1    
    58   36   35 1    
    59   37   35 ar   
    60   77   36 1    
    61   78   36 1    
    62   79   36 1    
    63   38   37 ar   
    64   66   37 1    
    65   39   38 1    
    66   40   39 1    
    67   41   39 1    
    68   42   41 1    
    69   67   41 1    
    70   68   41 1    
    71   43   42 1    
    72   44   42 1    
    73   69   42 1    
    74   82   43 1    
    75   45   44 1    
    76   46   44 1    
    77   70   44 1    
    78   83   45 1    
    79   47   46 1    
    80   48   46 1    
    81   71   46 1    
    82   84   47 1    
    83   49   48 1    
    84   72   48 1    
    85   73   48 1    
    86   50   49 1    
    87   51   50 ar   
    88   52   50 ar   
    89   53   50 1    
@<TRIPOS>SUBSTRUCTURE
     1 FAD2762     1 GROUP   
@<TRIPOS>SET

