#    Name: 3pef_NAP_4_INTS_M
#    Modification time : Tue Mar 25 06:26:10 2014

@<TRIPOS>MOLECULE
3pef_NAP_4_INTS_M
  107     0    12     0     0
SMALL
NO_CHARGES


@<TRIPOS>ATOM
      1 N          -2.8450   53.1725   14.2535 N.am      2 SEC2        0.0000 
      2 N          -2.7780   54.4700   14.7750 N.am     10 SEL2        0.0000 
      3 N          -2.9120   51.8750   13.7320 N.am      6 SEP2        0.0000 
      4 N          -5.1920   57.4595   14.1730 N.am      2 SEC2        0.0000 
      5 N          -4.1440   56.4740   14.2320 N.am     10 SEL2        0.0000 
      6 N          -6.2400   58.4450   14.1140 N.am      6 SEP2        0.0000 
      7 CA         -6.8290   52.6345   18.7050 C.3       4 GLC5        0.0000 
      8 CA         -5.3750   54.1460   18.4050 C.3      12 GLL5        0.0000 
      9 CA         -8.2830   51.1230   19.0050 C.3       8 GLP5        0.0000 
     10 N          -5.6585   51.7175   18.6335 N.am      2 SEC2        0.0000 
     11 N          -5.1580   52.9980   19.2090 N.am     10 SEL2        0.0000 
     12 N          -6.1590   50.4370   18.0580 N.am      6 SEP2        0.0000 
     13 O          -5.9895   56.9360   20.8225 O.2       1 ALC1        0.0000 
     14 O          -5.7430   56.0020   19.8200 O.2       9 ALL1        0.0000 
     15 O          -6.2360   57.8700   21.8250 O.2       5 ALP1        0.0000 
     16 CA         -6.5005   52.8500   21.0665 C.3       4 GLC5        0.0000 
     17 CA         -4.5990   53.4080   20.4360 C.3      12 GLL5        0.0000 
     18 CA         -8.4020   52.2920   21.6970 C.3       8 GLP5        0.0000 
     19 CA         -4.2005   51.7950   18.9325 C.3       4 GLC5        0.0000 
     20 CA         -3.8020   50.1820   17.4290 C.3       8 GLP5        0.0000 
     21 O          -1.9285   48.5165   25.4455 O.2       1 ALC1        0.0000 
     22 O          -2.0710   49.5210   24.2330 O.2       9 ALL1        0.0000 
     23 O          -1.7860   47.5120   26.6580 O.2       5 ALP1        0.0000 
     24 CA         -3.8565   53.7760   25.0095 C.3       4 GLC5        0.0000 
     25 CA         -4.6660   51.9960   24.6510 C.3      12 GLL5        0.0000 
     26 CA         -3.0470   55.5560   25.3680 C.3       8 GLP5        0.0000 
     27 CA         -6.1315   51.2775   25.2600 C.3       4 GLC5        0.0000 
     28 CA         -7.5970   50.5590   25.8690 C.3       8 GLP5        0.0000 
     29 N          -8.0000   56.4250   13.5115 N.am      2 SEC2        0.0000 
     30 N          -7.1960   55.3340   14.0110 N.am     10 SEL2        0.0000 
     31 N          -8.8040   57.5160   13.0120 N.am      6 SEP2        0.0000 
     32 CA         -9.6615   53.1700   15.1960 C.3       4 GLC5        0.0000 
     33 CA         -7.7340   52.5330   14.7020 C.3      12 GLL5        0.0000 
     34 CA        -11.5890   53.8070   15.6900 C.3       8 GLP5        0.0000 
     35 CA        -10.4400   51.7670   14.7290 C.3       4 GLC5        0.0000 
     36 CA         -8.5120   51.2530   14.3820 C.3      12 GLL5        0.0000 
     37 CA        -12.3680   52.2810   15.0760 C.3       8 GLP5        0.0000 
     38 N          -9.3935   48.0595   14.5070 N.am      2 SEC2        0.0000 
     39 N          -8.1830   48.8830   14.4140 N.am     10 SEL2        0.0000 
     40 N         -10.6040   47.2360   14.6000 N.am      6 SEP2        0.0000 
     41 O          -8.1175   49.3605   15.7060 O.2       1 ALC1        0.0000 
     42 O          -8.1830   48.8830   14.4140 O.2       9 ALL1        0.0000 
     43 O          -8.0520   49.8380   16.9980 O.2       5 ALP1        0.0000 
     44 CA         -6.7405   50.1330   10.4180 C.3       4 GLC5        0.0000 
     45 CA         -7.5960   50.1570   12.4680 C.3      12 GLL5        0.0000 
     46 CA         -5.8850   50.1090    8.3680 C.3       8 GLP5        0.0000 
     47 CA         -5.5685   49.8650   11.6975 C.3       4 GLC5        0.0000 
     48 CA         -3.5410   49.5730   10.9270 C.3       8 GLP5        0.0000 
     49 N          -6.9170   47.7150   12.4585 N.am      2 SEC2        0.0000 
     50 N          -7.3140   48.9280   11.8500 N.am     10 SEL2        0.0000 
     51 N          -6.5200   46.5020   13.0670 N.am      6 SEP2        0.0000 
     52 CA        -10.7310   51.5900   12.7740 C.3       4 GLC5        0.0000 
     53 CA         -9.0370   50.5680   12.2330 C.3      12 GLL5        0.0000 
     54 CA        -12.4250   52.6120   13.3150 C.3       8 GLP5        0.0000 
     55 N          -8.2085   54.8240    6.2570 N.am      2 SEC2        0.0000 
     56 N          -8.2450   54.0940    7.2450 N.am     10 SEL2        0.0000 
     57 N          -8.1720   55.5540    5.2690 N.am      6 SEP2        0.0000 
     58 O          -6.4660   55.3770    8.4445 O.2       1 ALC1        0.0000 
     59 O          -7.1240   54.4120    9.3410 O.2       9 ALL1        0.0000 
     60 O          -5.8080   56.3420    7.5480 O.2       5 ALP1        0.0000 
     61 CA        -10.2790   53.8515    7.0385 C.3       4 GLC5        0.0000 
     62 CA         -9.9580   52.2440    8.4750 C.3      12 GLL5        0.0000 
     63 CA        -10.6000   55.4590    5.6020 C.3       8 GLP5        0.0000 
     64 CA        -11.4645   51.7160   11.8095 C.3       4 GLC5        0.0000 
     65 CA        -10.5040   50.8200   10.3040 C.3      12 GLL5        0.0000 
     66 CA        -11.1255   48.8835    9.3810 C.3       4 GLC5        0.0000 
     67 CA        -11.7470   46.9470    8.4580 C.3       8 GLP5        0.0000 
     68 NZ         -1.4495   55.4495   23.3505 N.4       3 LYC4        0.0000 
     69 NZ         -1.9530   56.7510   22.7010 N.4      11 LYL4        0.0000 
     70 NZ         -0.4090   53.2310   23.2020 N.4       7 LYP4        0.0000 
     71 N          -1.4495   55.4495   23.3505 N.am      2 SEC2        0.0000 
     72 N          -1.9530   56.7510   22.7010 N.am     10 SEL2        0.0000 
     73 N          -0.9460   54.1480   24.0000 N.am      6 SEP2        0.0000 
     74 N          -2.2570   57.6230   23.8015 N.am      2 SEC2        0.0000 
     75 N          -2.5610   58.4950   24.9020 N.am      6 SEP2        0.0000 
     76 N          -1.1015   57.6010   23.0260 N.am      2 SEC2        0.0000 
     77 N          -0.2500   58.4510   23.3510 N.am      6 SEP2        0.0000 
     78 NZ         -0.7015   54.6790   21.2320 N.4       3 LYC4        0.0000 
     79 NZ         -1.0860   55.9020   20.5680 N.4      11 LYL4        0.0000 
     80 N          -0.7015   54.6790   21.2320 N.am      2 SEC2        0.0000 
     81 N          -1.0860   55.9020   20.5680 N.am     10 SEL2        0.0000 
     82 N          -0.3170   53.4560   21.8960 N.am      6 SEP2        0.0000 
     83 N          -3.6440   58.4380   21.4660 N.am      2 SEC2        0.0000 
     84 N          -2.7930   57.6940   20.5300 N.am     10 SEL2        0.0000 
     85 N          -4.4950   59.1820   22.4020 N.am      6 SEP2        0.0000 
     86 CA         -4.4490   52.0968   17.5708 C.3       4 GLC5        0.0000 
     87 CA         -5.5913   56.3636   17.4636 C.3       4 GLC5        0.0000 
     88 CA         -6.2790   58.0600   16.5070 C.3       8 GLP5        0.0000 
     89 CA         -2.0345   52.3805   24.3725 C.3       4 GLC5        0.0000 
     90 CA         -3.0060   51.0330   22.6580 C.3      12 GLL5        0.0000 
     91 CA         -1.1000   53.9960   25.4460 C.3       8 GLP5        0.0000 
     92 CA         -4.1717   49.9540   22.1320 C.3       4 GLC5        0.0000 
     93 CA         -2.9320   50.4970   23.9400 C.3      12 GLL5        0.0000 
     94 CA         -4.8990   48.5060   21.4130 C.3       8 GLP5        0.0000 
     95 CA         -6.5568   50.4733   15.6365 C.3       4 GLC5        0.0000 
     96 CA         -7.5940   50.0980   13.9800 C.3      12 GLL5        0.0000 
     97 CA         -5.2550   49.9510   17.0120 C.3       8 GLP5        0.0000 
     98 CA         -9.0667   48.3662   12.3777 C.3       4 GLC5        0.0000 
     99 CA         -9.8170   46.3700   12.4050 C.3       8 GLP5        0.0000 
    100 CA         -9.2137   53.7295   10.5652 C.3       4 GLC5        0.0000 
    101 CA         -8.4480   52.0490   10.3490 C.3      12 GLL5        0.0000 
    102 CA         -9.8180   55.1380   11.3960 C.3       8 GLP5        0.0000 
    103 CA        -12.5875   51.5547    9.9185 C.3       4 GLC5        0.0000 
    104 CA        -10.8400   51.3530    9.0680 C.3      12 GLL5        0.0000 
    105 CA        -14.5030   52.0230   10.1510 C.3       8 GLP5        0.0000 
    106 CA        -11.3072   53.1176    9.7239 C.3       4 GLC5        0.0000 
    107 CA        -12.1630   54.9260    9.9100 C.3       8 GLP5        0.0000 
@<TRIPOS>BOND
@<TRIPOS>SUBSTRUCTURE
     1 ALC1       13 GROUP        1 X    ALC  0     ROOT ALC X 1
     2 SEC2        1 GROUP        1 X    SEC  0     **** SEC X 2
     3 LYC4       68 GROUP        1 X    LYC  0     **** LYC X 4
     4 GLC5        7 GROUP        1 X    GLC  0     **** GLC X 6
     5 ALP1       15 GROUP        1 Y    ALP  0     ROOT ALP Y 8
     6 SEP2        3 GROUP        1 Y    SEP  0     **** SEP Y 9
     7 LYP4       70 GROUP        1 Y    LYP  0     **** LYP Y 11
     8 GLP5        9 GROUP        1 Y    GLP  0     **** GLP Y 13
     9 ALL1       14 GROUP        1 Z    ALL  0     ROOT ALL Z 15
    10 SEL2        2 GROUP        1 Z    SEL  0     **** SEL Z 16
    11 LYL4       69 GROUP        1 Z    LYL  0     **** LYL Z 18
    12 GLL5        8 GROUP        1 Z    GLL  0     **** GLL Z 20
@<TRIPOS>SET

