#    Name: 3pef_NAP_4_ligand
#    Modification time : Tue Mar 25 06:26:10 2014

@<TRIPOS>MOLECULE
3pef_NAP_4_ligand
   73    77     1     0     0
SMALL
NO_CHARGES


@<TRIPOS>ATOM
      1 PA         -4.1030   55.1130   14.8150 P.3       1 NAP301      0.0000 
      2 O1A        -2.7780   54.4700   14.7750 O.co2     1 NAP301      0.0000 
      3 O2A        -4.1440   56.4740   14.2320 O.co2     1 NAP301      0.0000 
      4 O5B        -4.6620   55.0860   16.3180 O.3       1 NAP301      0.0000 
      5 C5B        -4.8170   53.8770   17.0200 C.3       1 NAP301      0.0000 
      6 C4B        -5.3750   54.1460   18.4050 C.3       1 NAP301      0.0000 
      7 O4B        -5.1580   52.9980   19.2090 O.3       1 NAP301      0.0000 
      8 C3B        -4.7110   55.3230   19.1280 C.3       1 NAP301      0.0000 
      9 O3B        -5.7430   56.0020   19.8200 O.3       1 NAP301      0.0000 
     10 C2B        -3.7780   54.6470   20.1140 C.3       1 NAP301      0.0000 
     11 O2B        -3.5000   55.3690   21.2870 O.3       1 NAP301      0.0000 
     12 C1B        -4.5990   53.4080   20.4360 C.3       1 NAP301      0.0000 
     13 N9A        -3.7900   52.3710   21.0800 N.pl3     1 NAP301      0.0000 
     14 C8A        -2.8040   51.5900   20.5260 C.2       1 NAP301      0.0000 
     15 N7A        -2.3380   50.7820   21.5070 N.2       1 NAP301      0.0000 
     16 C5A        -3.0060   51.0330   22.6580 C.ar      1 NAP301      0.0000 
     17 C6A        -2.9320   50.4970   23.9400 C.ar      1 NAP301      0.0000 
     18 N6A        -2.0710   49.5210   24.2330 N.pl3     1 NAP301      0.0000 
     19 N1A        -3.7630   50.9870   24.9180 N.ar      1 NAP301      0.0000 
     20 C2A        -4.6660   51.9960   24.6510 C.ar      1 NAP301      0.0000 
     21 N3A        -4.7430   52.5150   23.3770 N.ar      1 NAP301      0.0000 
     22 C4A        -3.9200   52.0390   22.4030 C.ar      1 NAP301      0.0000 
     23 O3         -5.0360   54.1310   13.9930 O.3       1 NAP301      0.0000 
     24 PN         -6.4150   54.3180   13.2390 P.3       1 NAP301      0.0000 
     25 O1N        -6.1890   54.3800   11.7840 O.co2     1 NAP301      0.0000 
     26 O2N        -7.1960   55.3340   14.0110 O.co2     1 NAP301      0.0000 
     27 O5D        -6.9800   52.8440   13.5510 O.3       1 NAP301      0.0000 
     28 C5D        -7.7340   52.5330   14.7020 C.3       1 NAP301      0.0000 
     29 C4D        -8.5120   51.2530   14.3820 C.3       1 NAP301      0.0000 
     30 O4D        -9.3110   51.5040   13.2550 O.3       1 NAP301      0.0000 
     31 C3D        -7.5940   50.0980   13.9800 C.3       1 NAP301      0.0000 
     32 O3D        -8.1830   48.8830   14.4140 O.3       1 NAP301      0.0000 
     33 C2D        -7.5960   50.1570   12.4680 C.3       1 NAP301      0.0000 
     34 O2D        -7.3140   48.9280   11.8500 O.3       1 NAP301      0.0000 
     35 C1D        -9.0370   50.5680   12.2330 C.3       1 NAP301      0.0000 
     36 N1N        -9.3240   51.1590   10.9200 N.pl3     1 NAP301      0.0000 
     37 C2N        -8.4480   52.0490   10.3490 C.ar      1 NAP301      0.0000 
     38 C3N        -8.7710   52.5930    9.1200 C.ar      1 NAP301      0.0000 
     39 C7N        -7.9970   53.7510    8.5770 C.2       1 NAP301      0.0000 
     40 O7N        -8.2450   54.0940    7.2450 O.2       1 NAP301      0.0000 
     41 N7N        -7.1240   54.4120    9.3410 N.am      1 NAP301      0.0000 
     42 C4N        -9.9580   52.2440    8.4750 C.ar      1 NAP301      0.0000 
     43 C5N       -10.8400   51.3530    9.0680 C.ar      1 NAP301      0.0000 
     44 C6N       -10.5040   50.8200   10.3040 C.ar      1 NAP301      0.0000 
     45 P2B        -2.2990   56.4670   21.2600 P.3       1 NAP301      0.0000 
     46 O1X        -1.9530   56.7510   22.7010 O.co2     1 NAP301      0.0000 
     47 O2X        -1.0860   55.9020   20.5680 O.co2     1 NAP301      0.0000 
     48 O3X        -2.7930   57.6940   20.5300 O.co2     1 NAP301      0.0000 
     49 H          -3.8609   53.3443   17.1434 H         1 NAP301      0.0000 
     50 H          -5.5084   53.1878   16.5100 H         1 NAP301      0.0000 
     51 H          -6.4322   54.3528   18.3263 H         1 NAP301      0.0000 
     52 H          -4.1833   55.8866   18.4496 H         1 NAP301      0.0000 
     53 H          -2.9190   54.3102   19.5762 H         1 NAP301      0.0000 
     54 H          -5.3925   53.7368   21.1157 H         1 NAP301      0.0000 
     55 H          -2.5125   51.6209   19.6207 H         1 NAP301      0.0000 
     56 H          -1.4582   49.2386   23.4950 H         1 NAP301      0.0000 
     57 H          -2.1159   49.1596   25.1643 H         1 NAP301      0.0000 
     58 H          -5.2751   52.3563   25.3965 H         1 NAP301      0.0000 
     59 H          -8.4564   53.3045   14.9486 H         1 NAP301      0.0000 
     60 H          -7.1106   52.3319   15.5673 H         1 NAP301      0.0000 
     61 H          -9.0879   50.9640   15.2221 H         1 NAP301      0.0000 
     62 H          -6.6384   50.2787   14.3429 H         1 NAP301      0.0000 
     63 H          -6.9832   50.9687   12.1685 H         1 NAP301      0.0000 
     64 H          -9.6555   49.6809   12.3901 H         1 NAP301      0.0000 
     65 H          -7.5774   52.3057   10.8178 H         1 NAP301      0.0000 
     66 H          -7.0262   54.0851   10.2810 H         1 NAP301      0.0000 
     67 H          -6.6465   55.1745    8.9046 H         1 NAP301      0.0000 
     68 H         -10.1767   52.6518    7.5548 H         1 NAP301      0.0000 
     69 H         -11.7109   51.0967    8.6087 H         1 NAP301      0.0000 
     70 H         -11.1565   50.1573   10.7641 H         1 NAP301      0.0000 
     71 H          -5.2752   56.5303   20.5285 H         1 NAP301      0.0000 
     72 H          -8.2539   48.9703   15.4077 H         1 NAP301      0.0000 
     73 H          -7.9933   48.8431   11.1211 H         1 NAP301      0.0000 
@<TRIPOS>BOND
     1    2    1 ar   
     2    3    1 ar   
     3    4    1 1    
     4   23    1 1    
     5    5    4 1    
     6    6    5 1    
     7   49    5 1    
     8   50    5 1    
     9    7    6 1    
    10    8    6 1    
    11   51    6 1    
    12   12    7 1    
    13    9    8 1    
    14   10    8 1    
    15   52    8 1    
    16   71    9 1    
    17   11   10 1    
    18   12   10 1    
    19   53   10 1    
    20   45   11 1    
    21   13   12 1    
    22   54   12 1    
    23   14   13 1    
    24   22   13 1    
    25   15   14 2    
    26   55   14 1    
    27   16   15 1    
    28   17   16 ar   
    29   22   16 ar   
    30   18   17 1    
    31   19   17 ar   
    32   56   18 1    
    33   57   18 1    
    34   20   19 ar   
    35   21   20 ar   
    36   58   20 1    
    37   22   21 ar   
    38   24   23 1    
    39   25   24 ar   
    40   26   24 ar   
    41   27   24 1    
    42   28   27 1    
    43   29   28 1    
    44   59   28 1    
    45   60   28 1    
    46   30   29 1    
    47   31   29 1    
    48   61   29 1    
    49   35   30 1    
    50   32   31 1    
    51   33   31 1    
    52   62   31 1    
    53   72   32 1    
    54   34   33 1    
    55   35   33 1    
    56   63   33 1    
    57   73   34 1    
    58   36   35 1    
    59   64   35 1    
    60   37   36 ar   
    61   44   36 ar   
    62   38   37 ar   
    63   65   37 1    
    64   39   38 1    
    65   42   38 ar   
    66   40   39 2    
    67   41   39 am   
    68   66   41 1    
    69   67   41 1    
    70   43   42 ar   
    71   68   42 1    
    72   44   43 ar   
    73   69   43 1    
    74   70   44 1    
    75   46   45 ar   
    76   47   45 ar   
    77   48   45 ar   
@<TRIPOS>SUBSTRUCTURE
     1 NAP301      1 GROUP   
@<TRIPOS>SET

