#    Name: 4gk3_L87_1_INTS_M
#    Modification time : Mon Mar 24 22:18:10 2014

@<TRIPOS>MOLECULE
4gk3_L87_1_INTS_M
   61     0     9     0     0
SMALL
NO_CHARGES


@<TRIPOS>ATOM
      1 O          18.2645  -15.0730   26.5125 O.2       1 ALC1        0.0000 
      2 O          19.2540  -14.6030   25.6000 O.2       7 ALL1        0.0000 
      3 O          17.2750  -15.5430   27.4250 O.2       4 ALP1        0.0000 
      4 CA         21.0710  -15.9540   22.6135 C.3       3 GLC5        0.0000 
      5 CA         19.0580  -15.5040   22.0050 C.3       9 GLL5        0.0000 
      6 CA         23.0840  -16.4040   23.2220 C.3       6 GLP5        0.0000 
      7 CA         17.2755  -15.9590   22.9275 C.3       3 GLC5        0.0000 
      8 CA         15.4930  -16.4140   23.8500 C.3       6 GLP5        0.0000 
      9 CA         17.7150  -12.7750   22.9255 C.3       3 GLC5        0.0000 
     10 CA         19.6030  -13.4580   23.1880 C.3       9 GLL5        0.0000 
     11 CA         15.8270  -12.0920   22.6630 C.3       6 GLP5        0.0000 
     12 CA         21.2680  -11.9910   25.4360 C.3       3 GLC5        0.0000 
     13 CA         19.7960  -12.6890   24.3390 C.3       9 GLL5        0.0000 
     14 CA         22.7400  -11.2930   26.5330 C.3       6 GLP5        0.0000 
     15 CA         18.3580  -11.5410   24.2760 C.3       3 GLC5        0.0000 
     16 CA         16.9200  -10.3930   24.2130 C.3       6 GLP5        0.0000 
     17 N          19.0230  -12.9505   27.8535 N.am      2 SEC2        0.0000 
     18 N          19.7550  -12.6890   26.6630 N.am      8 SEL2        0.0000 
     19 N          18.2910  -13.2120   29.0440 N.am      5 SEP2        0.0000 
     20 CA         22.4150  -10.9930   20.0575 C.3       3 GLC5        0.0000 
     21 CA         20.5730  -10.0790   20.6410 C.3       9 GLL5        0.0000 
     22 CA         24.2570  -11.9070   19.4740 C.3       6 GLP5        0.0000 
     23 CA         22.3970   -9.1005   20.2490 C.3       3 GLC5        0.0000 
     24 CA         24.2210   -8.1220   19.8570 C.3       6 GLP5        0.0000 
     25 CA         17.5405   -9.8320   22.4095 C.3       3 GLC5        0.0000 
     26 CA         18.1610   -9.2710   20.6060 C.3       9 GLL5        0.0000 
     27 CA         14.9175   -9.1235   19.1895 C.3       3 GLC5        0.0000 
     28 CA         16.7920   -9.5260   20.0090 C.3       9 GLL5        0.0000 
     29 CA         13.0430   -8.7210   18.3700 C.3       6 GLP5        0.0000 
     30 CA         16.3095  -10.8090   21.3360 C.3       3 GLC5        0.0000 
     31 CA         16.6860   -7.7025   19.0100 C.3       3 GLC5        0.0000 
     32 CA         16.5800   -5.8790   18.0110 C.3       6 GLP5        0.0000 
     33 CA         23.0340   -9.8540   25.3285 C.3       3 GLC5        0.0000 
     34 CA         23.3280   -8.4150   24.1240 C.3       9 GLL5        0.0000 
     35 CA         25.2020   -9.2885   24.8355 C.3       3 GLC5        0.0000 
     36 CA         27.0760  -10.1620   25.5470 C.3       6 GLP5        0.0000 
     37 CA         21.6415   -3.4810   21.2215 C.3       3 GLC5        0.0000 
     38 CA         21.8570   -5.3690   22.4210 C.3       9 GLL5        0.0000 
     39 CA         21.4260   -1.5930   20.0220 C.3       6 GLP5        0.0000 
     40 CA         18.0545   -7.0285   22.3850 C.3       3 GLC5        0.0000 
     41 CA         20.2560   -7.1670   22.2450 C.3       9 GLL5        0.0000 
     42 CA         15.8530   -6.8900   22.5250 C.3       6 GLP5        0.0000 
     43 CA         16.6648   -8.1442   21.4162 C.3       3 GLC5        0.0000 
     44 CA         21.6702  -10.5418   25.1575 C.3       3 GLC5        0.0000 
     45 CA         20.7130   -9.4300   23.1730 C.3       9 GLL5        0.0000 
     46 CA         18.7602  -10.0918   23.9975 C.3       3 GLC5        0.0000 
     47 CA         20.4880  -10.1510   24.3910 C.3       9 GLL5        0.0000 
     48 CA         23.7244   -8.3421   22.3796 C.3       3 GLC5        0.0000 
     49 CA         24.9150   -8.5920   21.1190 C.3       6 GLP5        0.0000 
     50 CA         22.3354   -6.9551   24.9736 C.3       3 GLC5        0.0000 
     51 CA         22.1370   -5.8180   26.3070 C.3       6 GLP5        0.0000 
     52 CA         23.1052   -6.2180   21.3332 C.3       3 GLC5        0.0000 
     53 CA         22.7280   -6.2110   23.1080 C.3       9 GLL5        0.0000 
     54 CA         23.9180   -6.6460   19.9020 C.3       6 GLP5        0.0000 
     55 CA         23.7557   -4.7740   23.4638 C.3       3 GLC5        0.0000 
     56 CA         25.2190   -3.7580   24.1630 C.3       6 GLP5        0.0000 
     57 CA         22.2148   -5.8040   24.5358 C.3       3 GLC5        0.0000 
     58 CA         22.1788   -6.5775   21.0088 C.3       3 GLC5        0.0000 
     59 CA         20.6230   -5.8510   21.9860 C.3       9 GLL5        0.0000 
     60 CA         21.1679   -4.1438   22.9846 C.3       3 GLC5        0.0000 
     61 CA         20.8780   -2.4670   23.5940 C.3       6 GLP5        0.0000 
@<TRIPOS>BOND
@<TRIPOS>SUBSTRUCTURE
     1 ALC1        1 GROUP        1 X    ALC  0     ROOT ALC X 1
     2 SEC2       17 GROUP        1 X    SEC  0     **** SEC X 2
     3 GLC5        4 GROUP        1 X    GLC  0     **** GLC X 6
     4 ALP1        3 GROUP        1 Y    ALP  0     ROOT ALP Y 8
     5 SEP2       19 GROUP        1 Y    SEP  0     **** SEP Y 9
     6 GLP5        6 GROUP        1 Y    GLP  0     **** GLP Y 13
     7 ALL1        2 GROUP        1 Z    ALL  0     ROOT ALL Z 15
     8 SEL2       18 GROUP        1 Z    SEL  0     **** SEL Z 16
     9 GLL5        5 GROUP        1 Z    GLL  0     **** GLL Z 20
@<TRIPOS>SET

