#    Name: 4gk3_L87_1_ligand
#    Modification time : Mon Mar 24 22:18:10 2014

@<TRIPOS>MOLECULE
4gk3_L87_1_ligand
   47    50     1     0     0
SMALL
NO_CHARGES


@<TRIPOS>ATOM
      1 O2         18.7420  -16.5270   24.5080 O.2       1 L871001     0.0000 
      2 C17        19.0740  -15.3150   24.4500 C.2       1 L871001     0.0000 
      3 N4         19.2540  -14.6030   25.6000 N.am      1 L871001     0.0000 
      4 N5         19.2490  -14.7430   23.2490 N.am      1 L871001     0.0000 
      5 C18        19.0580  -15.5040   22.0050 C.3       1 L871001     0.0000 
      6 C2         19.6030  -13.4580   23.1880 C.2       1 L871001     0.0000 
      7 C3         19.7960  -12.6890   24.3390 C.2       1 L871001     0.0000 
      8 C16        19.6110  -13.2910   25.5860 C.2       1 L871001     0.0000 
      9 O3         19.7550  -12.6890   26.6630 O.2       1 L871001     0.0000 
     10 N1         19.8270  -12.7150   22.0430 N.2       1 L871001     0.0000 
     11 C1         20.1660  -11.4750   22.5910 C.2       1 L871001     0.0000 
     12 N2         20.1630  -11.4260   23.9250 N.pl3     1 L871001     0.0000 
     13 N3         20.4890  -10.2360   22.0960 N.pl3     1 L871001     0.0000 
     14 C6         20.5730  -10.0790   20.6410 C.3       1 L871001     0.0000 
     15 C7         19.1900  -10.2260   20.0040 C.3       1 L871001     0.0000 
     16 C8         18.1610   -9.2710   20.6060 C.3       1 L871001     0.0000 
     17 C9         16.7920   -9.5260   20.0090 C.3       1 L871001     0.0000 
     18 C5         20.7130   -9.4300   23.1730 C.2       1 L871001     0.0000 
     19 C4         20.4880  -10.1510   24.3910 C.2       1 L871001     0.0000 
     20 C10        21.1180   -8.0070   22.9460 C.ar      1 L871001     0.0000 
     21 C11        22.3610   -7.5320   23.3670 C.ar      1 L871001     0.0000 
     22 C26        23.3280   -8.4150   24.1240 C.3       1 L871001     0.0000 
     23 C12        22.7280   -6.2110   23.1080 C.ar      1 L871001     0.0000 
     24 C13        21.8570   -5.3690   22.4210 C.ar      1 L871001     0.0000 
     25 C14        20.6230   -5.8510   21.9860 C.ar      1 L871001     0.0000 
     26 C15        20.2560   -7.1670   22.2450 C.ar      1 L871001     0.0000 
     27 H          19.1119  -15.0850   26.5235 H         1 L871001     0.0000 
     28 H          21.2330  -10.8360   20.2057 H         1 L871001     0.0000 
     29 H          20.9680   -9.0925   20.3785 H         1 L871001     0.0000 
     30 H          18.8432  -11.2575   20.1369 H         1 L871001     0.0000 
     31 H          19.2703  -10.0349   18.9274 H         1 L871001     0.0000 
     32 H          18.4636   -8.2459   20.4011 H         1 L871001     0.0000 
     33 H          18.1233   -9.4208   21.6833 H         1 L871001     0.0000 
     34 H          20.5474   -9.8384   25.2331 H         1 L871001     0.0000 
     35 H          23.6401   -5.8609   23.4242 H         1 L871001     0.0000 
     36 H          22.1223   -4.3950   22.2348 H         1 L871001     0.0000 
     37 H          19.9835   -5.2300   21.4722 H         1 L871001     0.0000 
     38 H          19.3473   -7.5214   21.9190 H         1 L871001     0.0000 
     39 H          19.2286  -14.9418   21.1958 H         1 L871001     0.0000 
     40 H          19.6748  -16.2893   21.9516 H         1 L871001     0.0000 
     41 H          18.1259  -15.8574   21.9252 H         1 L871001     0.0000 
     42 H          16.7890   -9.3955   19.0176 H         1 L871001     0.0000 
     43 H          16.4792  -10.4598   20.1827 H         1 L871001     0.0000 
     44 H          16.1011   -8.9102   20.3878 H         1 L871001     0.0000 
     45 H          23.5869   -9.2223   23.5937 H         1 L871001     0.0000 
     46 H          24.1727   -7.9308   24.3518 H         1 L871001     0.0000 
     47 H          22.9367   -8.7423   24.9841 H         1 L871001     0.0000 
@<TRIPOS>BOND
     1    2    1 2    
     2    3    2 1    
     3    4    2 1    
     4    8    3 1    
     5   27    3 1    
     6    5    4 1    
     7    6    4 1    
     8   39    5 1    
     9   40    5 1    
    10   41    5 1    
    11    7    6 2    
    12   10    6 1    
    13    8    7 1    
    14   12    7 1    
    15    9    8 2    
    16   11   10 2    
    17   12   11 1    
    18   13   11 1    
    19   19   12 1    
    20   14   13 1    
    21   18   13 1    
    22   15   14 1    
    23   28   14 1    
    24   29   14 1    
    25   16   15 1    
    26   30   15 1    
    27   31   15 1    
    28   17   16 1    
    29   32   16 1    
    30   33   16 1    
    31   42   17 1    
    32   43   17 1    
    33   44   17 1    
    34   19   18 2    
    35   20   18 1    
    36   34   19 1    
    37   21   20 ar   
    38   26   20 ar   
    39   22   21 1    
    40   23   21 ar   
    41   45   22 1    
    42   46   22 1    
    43   47   22 1    
    44   24   23 ar   
    45   35   23 1    
    46   25   24 ar   
    47   36   24 1    
    48   26   25 ar   
    49   37   25 1    
    50   38   26 1    
@<TRIPOS>SUBSTRUCTURE
     1 L871001     1 GROUP   
@<TRIPOS>SET

