#    Name: 3CFO_1_CAVITY_N1_6.mol2
#    Modification time : Tue Mar 11 13:57:41 2014

@<TRIPOS>MOLECULE
3CFO_1_CAVITY_N1_6.mol2
   74     0     6     0     0
SMALL
NO_CHARGES


@<TRIPOS>ATOM
      1 CA          8.9605    9.8716   57.6665 C.3       5 GLY6        0.0000 
      2 CA          9.8717    8.6811   57.6163 C.3       5 GLY6        0.0000 
      3 N          10.7829    7.4907   57.5661 N.2       2 ALA2        0.0000 
      4 CZ          8.4021    9.5008   56.3246 C.ar      4 PHE5        0.0000 
      5 CZ          9.3133    8.3103   56.2744 C.ar      4 PHE5        0.0000 
      6 CZ         10.2245    7.1198   56.2242 C.ar      4 PHE5        0.0000 
      7 CA          7.8437    9.1299   54.9827 C.3       5 GLY6        0.0000 
      8 CZ          8.7549    7.9395   54.9325 C.ar      4 PHE5        0.0000 
      9 CZ          9.6661    6.7490   54.8823 C.ar      4 PHE5        0.0000 
     10 CA         10.5772    5.5585   54.8322 C.3       5 GLY6        0.0000 
     11 CZ          8.1965    7.5686   53.5906 C.ar      4 PHE5        0.0000 
     12 CZ          9.1077    6.3781   53.5405 C.ar      4 PHE5        0.0000 
     13 CZ         10.0188    5.1877   53.4903 C.ar      4 PHE5        0.0000 
     14 CA          7.6381    7.1978   52.2487 C.3       5 GLY6        0.0000 
     15 N           8.5493    6.0073   52.1986 N.2       2 ALA2        0.0000 
     16 O           3.8390    7.7269   60.3904 O.2       2 ALA2        0.0000 
     17 O           3.2806    7.3560   59.0485 O.2       2 ALA2        0.0000 
     18 CA          3.6333    5.7947   57.6564 C.3       5 GLY6        0.0000 
     19 N           5.0972   10.4928   62.4559 N.2       2 ALA2        0.0000 
     20 OG          5.4500    8.9315   61.0638 O.2       1 SER1        0.0000 
     21 NZ          3.9804    9.7512   59.7721 N.2       3 LYS4        0.0000 
     22 OG          4.8916    8.5607   59.7219 O.2       1 SER1        0.0000 
     23 DU          3.4220    9.3803   58.4302 H         6 CUB7        0.0000 
     24 DU          4.3332    8.1898   58.3801 H         6 CUB7        0.0000 
     25 O           5.2443    6.9994   58.3299 O.2       2 ALA2        0.0000 
     26 CA          6.1555    5.8089   58.2797 C.3       5 GLY6        0.0000 
     27 DU          2.8636    9.0095   57.0883 H         6 CUB7        0.0000 
     28 DU          3.7748    7.8190   57.0382 H         6 CUB7        0.0000 
     29 CA          4.6859    6.6285   56.9880 C.3       5 GLY6        0.0000 
     30 CZ          5.5971    5.4380   56.9378 C.ar      4 PHE5        0.0000 
     31 OG          3.2164    7.4482   55.6963 O.2       1 SER1        0.0000 
     32 OG          4.1275    6.2577   55.6461 O.2       1 SER1        0.0000 
     33 CZ          5.0387    5.0672   55.5959 C.ar      4 PHE5        0.0000 
     34 DU          1.7468    8.2678   54.4046 H         6 CUB7        0.0000 
     35 OG          2.6580    7.0773   54.3544 O.2       1 SER1        0.0000 
     36 NZ          6.1498   11.3266   61.7875 N.2       3 LYS4        0.0000 
     37 N           7.0609   10.1362   61.7373 N.2       2 ALA2        0.0000 
     38 NZ          6.5025    9.7653   60.3954 N.2       3 LYS4        0.0000 
     39 O           7.4137    8.5748   60.3452 O.2       2 ALA2        0.0000 
     40 NZ          5.9442    9.3945   59.0535 N.2       3 LYS4        0.0000 
     41 CA          6.8553    8.2040   59.0033 C.3       5 GLY6        0.0000 
     42 NZ          4.4746   10.2141   57.7618 N.2       3 LYS4        0.0000 
     43 NZ          5.3858    9.0236   57.7116 N.2       3 LYS4        0.0000 
     44 CA          6.2969    7.8332   57.6614 C.3       5 GLY6        0.0000 
     45 CA          7.2081    6.6427   57.6113 C.3       5 GLY6        0.0000 
     46 CA          3.9162    9.8433   56.4199 C.3       5 GLY6        0.0000 
     47 CA          4.8274    8.6528   56.3697 C.3       5 GLY6        0.0000 
     48 DU          5.7385    7.4623   56.3196 H         6 CUB7        0.0000 
     49 CZ          6.6497    6.2718   56.2694 C.ar      4 PHE5        0.0000 
     50 CA          3.3578    9.4724   55.0780 C.3       5 GLY6        0.0000 
     51 CA          4.2690    8.2820   55.0278 C.3       5 GLY6        0.0000 
     52 CA          5.1801    7.0915   54.9777 C.3       5 GLY6        0.0000 
     53 CZ          6.0913    5.9010   54.9275 C.ar      4 PHE5        0.0000 
     54 CA          2.7994    9.1016   53.7361 C.3       5 GLY6        0.0000 
     55 CA          3.7106    7.9111   53.6859 C.3       5 GLY6        0.0000 
     56 CA          4.6217    6.7206   53.6358 C.3       5 GLY6        0.0000 
     57 CZ          5.5329    5.5302   53.5856 C.ar      4 PHE5        0.0000 
     58 N           2.2410    8.7308   52.3942 N.2       2 ALA2        0.0000 
     59 OG          8.4663    9.4087   59.6768 O.2       1 SER1        0.0000 
     60 O           9.3775    8.2182   59.6266 O.2       2 ALA2        0.0000 
     61 NZ          7.9079    9.0378   58.3349 N.2       3 LYS4        0.0000 
     62 N           8.8191    7.8473   58.2847 N.2       2 ALA2        0.0000 
     63 NZ          6.4383    9.8574   57.0432 N.2       3 LYS4        0.0000 
     64 NZ          7.3495    8.6670   56.9930 N.2       3 LYS4        0.0000 
     65 N           8.2607    7.4765   56.9428 N.2       2 ALA2        0.0000 
     66 CZ          9.1719    6.2860   56.8927 C.ar      4 PHE5        0.0000 
     67 CA          6.7911    8.2961   55.6511 C.3       5 GLY6        0.0000 
     68 CZ          7.7023    7.1056   55.6009 C.ar      4 PHE5        0.0000 
     69 CZ          8.6135    5.9152   55.5508 C.ar      4 PHE5        0.0000 
     70 CA          6.2327    7.9253   54.3092 C.3       5 GLY6        0.0000 
     71 CA          7.1439    6.7348   54.2591 C.3       5 GLY6        0.0000 
     72 CZ          8.0551    5.5443   54.2089 C.ar      4 PHE5        0.0000 
     73 CA          6.5855    6.3640   52.9172 C.3       5 GLY6        0.0000 
     74 N           7.4967    5.1735   52.8670 N.2       2 ALA2        0.0000 
@<TRIPOS>BOND
@<TRIPOS>SUBSTRUCTURE
     1 SER1       20 GROUP   
     2 ALA2        3 GROUP   
     3 LYS4       21 GROUP   
     4 PHE5        4 GROUP   
     5 GLY6        1 GROUP   
     6 CUB7       23 GROUP   
@<TRIPOS>SET

