#    Name: 3cfo_GMP_1_INTS_M
#    Modification time : Mon Mar 24 21:09:21 2014

@<TRIPOS>MOLECULE
3cfo_GMP_1_INTS_M
   39     0     9     0     0
SMALL
NO_CHARGES


@<TRIPOS>ATOM
      1 CA          5.8745    5.1125   56.2925 C.3       3 GLC5        0.0000 
      2 CA          4.7520    7.0340   56.4490 C.3       9 GLL5        0.0000 
      3 CA          6.9970    3.1910   56.1360 C.3       6 GLP5        0.0000 
      4 CA          6.5685    6.5925   58.9875 C.3       3 GLC5        0.0000 
      5 CA          5.5990    7.6100   57.5870 C.3       9 GLL5        0.0000 
      6 CA          7.5380    5.5750   60.3880 C.3       6 GLP5        0.0000 
      7 O           6.3130   11.0395   57.9730 O.2       1 ALC1        0.0000 
      8 O           5.9050    9.7050   58.6020 O.2       7 ALL1        0.0000 
      9 O           6.7210   12.3740   57.3440 O.2       4 ALP1        0.0000 
     10 O           6.4140   10.9195   59.0650 O.2       1 ALC1        0.0000 
     11 O           6.9230   12.1340   59.5280 O.2       4 ALP1        0.0000 
     12 CA          8.9835    9.7245   55.4610 C.3       3 GLC5        0.0000 
     13 CA          7.3420    9.0630   56.7780 C.3       9 GLL5        0.0000 
     14 CA         10.6250   10.3860   54.1440 C.3       6 GLP5        0.0000 
     15 O           7.4090   11.2835   57.2620 O.2       1 ALC1        0.0000 
     16 O           8.0970   10.1930   57.1800 O.2       7 ALL1        0.0000 
     17 CA          7.7375    6.6680   58.8525 C.3       3 GLC5        0.0000 
     18 CA          7.9370    7.7610   57.3170 C.3       9 GLL5        0.0000 
     19 CA          8.1560    5.6020   56.7515 C.3       3 GLC5        0.0000 
     20 CA          8.3750    3.4430   56.1860 C.3       6 GLP5        0.0000 
     21 N          12.1960    6.1185   55.6980 N.am      2 SEC2        0.0000 
     22 N          10.6840    6.2000   55.5100 N.am      8 SEL2        0.0000 
     23 N          13.7080    6.0370   55.8860 N.am      5 SEP2        0.0000 
     24 CA         11.4540    4.9000   54.9680 C.3       3 GLC5        0.0000 
     25 CA          9.7240    6.0620   54.5740 C.3       9 GLL5        0.0000 
     26 CA         13.1840    3.7380   55.3620 C.3       6 GLP5        0.0000 
     27 N          11.3715    4.1040   51.8435 N.am      2 SEC2        0.0000 
     28 N          10.7880    5.0070   52.8500 N.am      8 SEL2        0.0000 
     29 N          11.9550    3.2010   50.8370 N.am      5 SEP2        0.0000 
     30 O           8.2460    4.9260   51.2930 O.2       1 ALC1        0.0000 
     31 O           8.5920    5.4820   52.5350 O.2       7 ALL1        0.0000 
     32 O           7.9000    4.3700   50.0510 O.2       4 ALP1        0.0000 
     33 O           7.1135    5.1880   51.1720 O.2       1 ALC1        0.0000 
     34 O           6.3270    6.0060   52.2930 O.2       7 ALL1        0.0000 
     35 CA          4.7547    5.5170   58.0265 C.3       3 GLC5        0.0000 
     36 CA          4.3340    3.7120   59.0350 C.3       6 GLP5        0.0000 
     37 CA          6.0492   10.1225   55.4975 C.3       3 GLC5        0.0000 
     38 CA          5.9310    9.0710   57.3460 C.3       9 GLL5        0.0000 
     39 CA          5.4620   11.1780   53.9330 C.3       6 GLP5        0.0000 
@<TRIPOS>BOND
@<TRIPOS>SUBSTRUCTURE
     1 ALC1        7 GROUP        1 X    ALC  0     ROOT ALC X 1
     2 SEC2       21 GROUP        1 X    SEC  0     **** SEC X 2
     3 GLC5        1 GROUP        1 X    GLC  0     **** GLC X 6
     4 ALP1        9 GROUP        1 Y    ALP  0     ROOT ALP Y 8
     5 SEP2       23 GROUP        1 Y    SEP  0     **** SEP Y 9
     6 GLP5        3 GROUP        1 Y    GLP  0     **** GLP Y 13
     7 ALL1        8 GROUP        1 Z    ALL  0     ROOT ALL Z 15
     8 SEL2       22 GROUP        1 Z    SEL  0     **** SEL Z 16
     9 GLL5        2 GROUP        1 Z    GLL  0     **** GLL Z 20
@<TRIPOS>SET

