#    Name: 3cfo_GMP_1_ligand
#    Modification time : Mon Mar 24 21:09:21 2014

@<TRIPOS>MOLECULE
3cfo_GMP_1_ligand
   33    35     1     0     0
SMALL
NO_CHARGES


@<TRIPOS>ATOM
      1 O5'         3.3910    7.3490   56.6370 O.3       1 GMP1000     0.0000 
      2 C5'         4.7520    7.0340   56.4490 C.3       1 GMP1000     0.0000 
      3 C4'         5.5990    7.6100   57.5870 C.3       1 GMP1000     0.0000 
      4 O4'         6.8440    6.9350   57.6990 O.3       1 GMP1000     0.0000 
      5 C3'         5.9310    9.0710   57.3460 C.3       1 GMP1000     0.0000 
      6 O3'         5.9050    9.7050   58.6020 O.3       1 GMP1000     0.0000 
      7 C2'         7.3420    9.0630   56.7780 C.3       1 GMP1000     0.0000 
      8 O2'         8.0970   10.1930   57.1800 O.3       1 GMP1000     0.0000 
      9 C1'         7.9370    7.7610   57.3170 C.3       1 GMP1000     0.0000 
     10 N9          8.8340    7.0860   56.3430 N.pl3     1 GMP1000     0.0000 
     11 C8         10.1580    6.8170   56.5870 C.2       1 GMP1000     0.0000 
     12 N7         10.6840    6.2000   55.5100 N.2       1 GMP1000     0.0000 
     13 C5          9.7240    6.0620   54.5740 C.2       1 GMP1000     0.0000 
     14 C6          9.7460    5.4950   53.2990 C.2       1 GMP1000     0.0000 
     15 O6         10.7880    5.0070   52.8500 O.2       1 GMP1000     0.0000 
     16 N1          8.5920    5.4820   52.5350 N.am      1 GMP1000     0.0000 
     17 C2          7.4290    6.0300   53.0420 C.2       1 GMP1000     0.0000 
     18 N2          6.3270    6.0060   52.2930 N.pl3     1 GMP1000     0.0000 
     19 N3          7.4190    6.5940   54.3150 N.2       1 GMP1000     0.0000 
     20 C4          8.5470    6.6130   55.0760 C.2       1 GMP1000     0.0000 
     21 H           5.1475    7.4445   55.5064 H         1 GMP1000     0.0000 
     22 H           4.9281    5.9468   56.4277 H         1 GMP1000     0.0000 
     23 H           5.0395    7.5439   58.5061 H         1 GMP1000     0.0000 
     24 H           5.2655    9.4620   56.6456 H         1 GMP1000     0.0000 
     25 H           7.2627    8.9578   55.7117 H         1 GMP1000     0.0000 
     26 H           8.5177    8.0325   58.2102 H         1 GMP1000     0.0000 
     27 H          10.6235    7.0393   57.4020 H         1 GMP1000     0.0000 
     28 H           8.6009    5.0661   51.5942 H         1 GMP1000     0.0000 
     29 H           6.4223    5.6029   51.3828 H         1 GMP1000     0.0000 
     30 H           5.5040    6.3932   52.7086 H         1 GMP1000     0.0000 
     31 H           2.9002    6.4984   56.4484 H         1 GMP1000     0.0000 
     32 H           6.3981   10.5646   58.4681 H         1 GMP1000     0.0000 
     33 H           7.6289   10.9759   56.7702 H         1 GMP1000     0.0000 
@<TRIPOS>BOND
     1    2    1 1    
     2   31    1 1    
     3    3    2 1    
     4   21    2 1    
     5   22    2 1    
     6    4    3 1    
     7    5    3 1    
     8   23    3 1    
     9    9    4 1    
    10    6    5 1    
    11    7    5 1    
    12   24    5 1    
    13   32    6 1    
    14    8    7 1    
    15    9    7 1    
    16   25    7 1    
    17   33    8 1    
    18   10    9 1    
    19   26    9 1    
    20   11   10 1    
    21   20   10 1    
    22   12   11 2    
    23   27   11 1    
    24   13   12 1    
    25   14   13 1    
    26   20   13 2    
    27   15   14 2    
    28   16   14 am   
    29   17   16 1    
    30   28   16 1    
    31   18   17 1    
    32   19   17 2    
    33   29   18 1    
    34   30   18 1    
    35   20   19 1    
@<TRIPOS>SUBSTRUCTURE
     1 GMP1000     1 GROUP   
@<TRIPOS>SET

