#    Name: 2giq_NN2_1_INTS_M
#    Modification time : Tue Mar 25 14:34:34 2014

@<TRIPOS>MOLECULE
2giq_NN2_1_INTS_M
   58     0     6     0     0
SMALL
NO_CHARGES


@<TRIPOS>ATOM
      1 CA          7.0230  -10.5330  -15.9540 C.3       2 GLC5        0.0000 
      2 CA          8.5830   -9.7160  -16.9890 C.3       6 GLL5        0.0000 
      3 CA          5.4630  -11.3500  -14.9190 C.3       4 GLP5        0.0000 
      4 CA          7.4270  -11.5910  -18.5425 C.3       2 GLC5        0.0000 
      5 CA          8.6110   -9.8500  -18.3680 C.3       6 GLL5        0.0000 
      6 CA          6.2430  -13.3320  -18.7170 C.3       4 GLP5        0.0000 
      7 CA          7.8465   -8.8625  -20.6840 C.3       2 GLC5        0.0000 
      8 CA          9.2880   -8.9100  -19.1230 C.3       6 GLL5        0.0000 
      9 CA          6.4050   -8.8150  -22.2450 C.3       4 GLP5        0.0000 
     10 CA         11.1360   -6.2635  -19.1715 C.3       2 GLC5        0.0000 
     11 CA          9.9340   -7.8340  -18.5090 C.3       6 GLL5        0.0000 
     12 CA         12.3380   -4.6930  -19.8340 C.3       4 GLP5        0.0000 
     13 CA         12.9865   -6.8475   -5.9710 C.3       2 GLC5        0.0000 
     14 CA         12.7320   -6.1220   -7.8450 C.3       6 GLL5        0.0000 
     15 CA         13.2410   -7.5730   -4.0970 C.3       4 GLP5        0.0000 
     16 N          10.6490   -4.6115  -12.8190 N.am      1 SEC2        0.0000 
     17 N          11.3940   -6.0040  -12.5980 N.am      5 SEL2        0.0000 
     18 N           9.9040   -3.2190  -13.0400 N.am      3 SEP2        0.0000 
     19 CA         12.1790   -7.7060   -6.0350 C.3       2 GLC5        0.0000 
     20 CA         11.1170   -7.8390   -7.9730 C.3       6 GLL5        0.0000 
     21 CA          8.5605   -6.9980   -9.3950 C.3       2 GLC5        0.0000 
     22 CA         10.0370   -8.3390  -10.0760 C.3       6 GLL5        0.0000 
     23 CA          7.0840   -5.6570   -8.7140 C.3       4 GLP5        0.0000 
     24 CA          7.2320  -11.2410  -11.8960 C.3       2 GLC5        0.0000 
     25 CA          8.3010  -10.1660  -10.2570 C.3       6 GLL5        0.0000 
     26 CA          6.1630  -12.3160  -13.5350 C.3       4 GLP5        0.0000 
     27 CA          7.1090   -7.5795   -9.1240 C.3       2 GLC5        0.0000 
     28 CA          7.1340   -9.5020   -9.5340 C.3       6 GLL5        0.0000 
     29 CA          5.7320   -7.5435  -11.9485 C.3       2 GLC5        0.0000 
     30 CA          5.2300   -9.3970  -11.3520 C.3       6 GLL5        0.0000 
     31 CA          6.2340   -5.6900  -12.5450 C.3       4 GLP5        0.0000 
     32 CA          3.4900   -8.2360   -8.4150 C.3       2 GLC5        0.0000 
     33 CA          4.6600   -8.9420  -10.0060 C.3       6 GLL5        0.0000 
     34 CA          2.3200   -7.5300   -6.8240 C.3       4 GLP5        0.0000 
     35 CA          5.8720   -7.2995   -9.3600 C.3       2 GLC5        0.0000 
     36 CA          4.8155   -7.0610  -11.1495 C.3       2 GLC5        0.0000 
     37 CA          4.9710   -5.1800  -12.2930 C.3       4 GLP5        0.0000 
     38 CA          6.6095   -9.5715  -17.7503 C.3       2 GLC5        0.0000 
     39 CA          4.6220   -9.3600  -17.8220 C.3       4 GLP5        0.0000 
     40 CA         13.0920   -5.3277   -6.9277 C.3       2 GLC5        0.0000 
     41 CA         11.8540   -6.8310   -8.5600 C.3       6 GLL5        0.0000 
     42 CA         13.8910   -4.1790   -5.6530 C.3       4 GLP5        0.0000 
     43 CA         10.5128   -6.0216   -7.9451 C.3       2 GLC5        0.0000 
     44 CA          9.0290   -5.5210   -6.8380 C.3       4 GLP5        0.0000 
     45 CA          8.6672   -6.1405  -12.8442 C.3       2 GLC5        0.0000 
     46 CA         10.6640   -7.0090  -12.0740 C.3       6 GLL5        0.0000 
     47 CA          7.1700   -4.9050  -13.2140 C.3       4 GLP5        0.0000 
     48 CA          9.7218   -7.4618   -7.1410 C.3       2 GLC5        0.0000 
     49 CA         10.2100   -8.5900   -8.7170 C.3       6 GLL5        0.0000 
     50 CA          8.7800   -6.7090   -5.9370 C.3       4 GLP5        0.0000 
     51 CA          8.4178  -10.8055   -8.2698 C.3       2 GLC5        0.0000 
     52 CA          9.1180  -11.7770   -6.6440 C.3       4 GLP5        0.0000 
     53 CA          5.8342  -11.0028  -12.1197 C.3       2 GLC5        0.0000 
     54 CA          3.4259  -10.0474  -10.7286 C.3       2 GLC5        0.0000 
     55 CA          5.7810   -9.9820  -10.0570 C.3       6 GLL5        0.0000 
     56 CA          1.7690  -10.7790  -11.1020 C.3       4 GLP5        0.0000 
     57 CA          4.8916  -10.4789   -8.9006 C.3       2 GLC5        0.0000 
     58 CA          4.0820  -11.5020   -7.5640 C.3       4 GLP5        0.0000 
@<TRIPOS>BOND
@<TRIPOS>SUBSTRUCTURE
     1 SEC2       16 GROUP        1 X    SEC  0     ROOT SEC X 2
     2 GLC5        1 GROUP        1 X    GLC  0     **** GLC X 6
     3 SEP2       18 GROUP        1 Y    SEP  0     ROOT SEP Y 9
     4 GLP5        3 GROUP        1 Y    GLP  0     **** GLP Y 13
     5 SEL2       17 GROUP        1 Z    SEL  0     ROOT SEL Z 16
     6 GLL5        2 GROUP        1 Z    GLL  0     **** GLL Z 20
@<TRIPOS>SET

