#    Name: 2giq_NN2_1_ligand
#    Modification time : Tue Mar 25 14:34:34 2014

@<TRIPOS>MOLECULE
2giq_NN2_1_ligand
   48    52     1     0     0
SMALL
NO_CHARGES


@<TRIPOS>ATOM
      1 C4          9.9230   -7.6980  -17.1230 C.ar      1 NN21001     0.0000 
      2 C5          9.2380   -8.6450  -16.3790 C.ar      1 NN21001     0.0000 
      3 C6          8.5830   -9.7160  -16.9890 C.ar      1 NN21001     0.0000 
      4 C7          8.6110   -9.8500  -18.3680 C.ar      1 NN21001     0.0000 
      5 C8          9.2880   -8.9100  -19.1230 C.ar      1 NN21001     0.0000 
      6 C9          9.9340   -7.8340  -18.5090 C.ar      1 NN21001     0.0000 
      7 N3          9.1810   -8.5700  -15.0510 N.2       1 NN21001     0.0000 
      8 F21        12.7320   -6.1220   -7.8450 F         1 NN21001     0.0000 
      9 C15        11.8540   -6.8310   -8.5600 C.ar      1 NN21001     0.0000 
     10 C20        11.7000   -6.5680   -9.9020 C.ar      1 NN21001     0.0000 
     11 C19        10.8010   -7.3220  -10.6440 C.ar      1 NN21001     0.0000 
     12 C22        10.6640   -7.0090  -12.0740 C.2       1 NN21001     0.0000 
     13 O23        11.3940   -6.0040  -12.5980 O.3       1 NN21001     0.0000 
     14 C16        11.1170   -7.8390   -7.9730 C.ar      1 NN21001     0.0000 
     15 C17        10.2100   -8.5900   -8.7170 C.ar      1 NN21001     0.0000 
     16 C18        10.0370   -8.3390  -10.0760 C.ar      1 NN21001     0.0000 
     17 N14         9.1180   -9.1010  -10.8520 N.am      1 NN21001     0.0000 
     18 C24         8.3010  -10.1660  -10.2570 C.3       1 NN21001     0.0000 
     19 C25         7.1340   -9.5020   -9.5340 C.3       1 NN21001     0.0000 
     20 C26         5.7810   -9.9820  -10.0570 C.3       1 NN21001     0.0000 
     21 C30         5.2300   -9.3970  -11.3520 C.3       1 NN21001     0.0000 
     22 C29         4.6600   -8.9420  -10.0060 C.3       1 NN21001     0.0000 
     23 C27         8.9420   -8.8610  -12.2340 C.2       1 NN21001     0.0000 
     24 O28         8.1200   -9.5490  -12.8890 O.2       1 NN21001     0.0000 
     25 C1          9.6650   -7.7430  -12.8750 C.2       1 NN21001     0.0000 
     26 C2          9.6810   -7.5520  -14.3190 C.2       1 NN21001     0.0000 
     27 N11        10.4810   -6.5970  -14.8290 N.pl3     1 NN21001     0.0000 
     28 S10        10.6570   -6.4520  -16.4150 S.o2      1 NN21001     0.0000 
     29 O13         9.9640   -5.2550  -16.7870 O.2       1 NN21001     0.0000 
     30 O12        12.0330   -6.3820  -16.8060 O.2       1 NN21001     0.0000 
     31 H           8.0812  -10.4028  -16.4116 H         1 NN21001     0.0000 
     32 H           8.1355  -10.6364  -18.8212 H         1 NN21001     0.0000 
     33 H           9.3202   -8.9985  -20.1518 H         1 NN21001     0.0000 
     34 H          10.4226   -7.1355  -19.0889 H         1 NN21001     0.0000 
     35 H          12.2418   -5.8231  -10.3549 H         1 NN21001     0.0000 
     36 H          11.2358   -8.0448   -6.9642 H         1 NN21001     0.0000 
     37 H           9.6647   -9.3345   -8.2599 H         1 NN21001     0.0000 
     38 H           8.8737  -10.7382   -9.5383 H         1 NN21001     0.0000 
     39 H           7.9064  -10.8242  -11.0205 H         1 NN21001     0.0000 
     40 H           7.2022   -8.4165   -9.6617 H         1 NN21001     0.0000 
     41 H           7.2020   -9.7218   -8.4633 H         1 NN21001     0.0000 
     42 H           5.3725  -10.8290   -9.9237 H         1 NN21001     0.0000 
     43 H           4.6261  -10.0259  -11.7172 H         1 NN21001     0.0000 
     44 H           5.8320   -8.7296  -11.6447 H         1 NN21001     0.0000 
     45 H           5.0550   -8.1099   -9.7987 H         1 NN21001     0.0000 
     46 H           3.8491   -9.4063   -9.8711 H         1 NN21001     0.0000 
     47 H          11.0167   -5.9194  -14.3077 H         1 NN21001     0.0000 
     48 H          12.3166   -6.1386  -12.2364 H         1 NN21001     0.0000 
@<TRIPOS>BOND
     1    2    1 ar   
     2    6    1 ar   
     3   28    1 1    
     4    3    2 ar   
     5    7    2 1    
     6    4    3 ar   
     7   31    3 1    
     8    5    4 ar   
     9   32    4 1    
    10    6    5 ar   
    11   33    5 1    
    12   34    6 1    
    13   26    7 2    
    14    9    8 1    
    15   10    9 ar   
    16   14    9 ar   
    17   11   10 ar   
    18   35   10 1    
    19   12   11 1    
    20   16   11 ar   
    21   13   12 1    
    22   25   12 2    
    23   48   13 1    
    24   15   14 ar   
    25   36   14 1    
    26   16   15 ar   
    27   37   15 1    
    28   17   16 1    
    29   18   17 1    
    30   23   17 am   
    31   19   18 1    
    32   38   18 1    
    33   39   18 1    
    34   20   19 1    
    35   40   19 1    
    36   41   19 1    
    37   21   20 1    
    38   22   20 1    
    39   42   20 1    
    40   22   21 1    
    41   43   21 1    
    42   44   21 1    
    43   45   22 1    
    44   46   22 1    
    45   24   23 2    
    46   25   23 1    
    47   26   25 1    
    48   27   26 1    
    49   28   27 1    
    50   47   27 1    
    51   29   28 2    
    52   30   28 2    
@<TRIPOS>SUBSTRUCTURE
     1 NN21001     1 GROUP   
@<TRIPOS>SET

