#    Name: 3ptz_UDX_2_INTS_M
#    Modification time : Tue Mar 25 08:29:55 2014

@<TRIPOS>MOLECULE
3ptz_UDX_2_INTS_M
   86     0    12     0     0
SMALL
NO_CHARGES


@<TRIPOS>ATOM
      1 CA        -28.6570    9.4955   26.2555 C.3       4 GLC5        0.0000 
      2 CA        -27.9800   11.5770   26.5330 C.3      12 GLL5        0.0000 
      3 CA        -29.3340    7.4140   25.9780 C.3       8 GLP5        0.0000 
      4 CA        -25.5555   12.6010   24.4600 C.3       4 GLC5        0.0000 
      5 CA        -27.3740   12.4510   25.4520 C.3      12 GLL5        0.0000 
      6 CA        -23.7370   12.7510   23.4680 C.3       8 GLP5        0.0000 
      7 N         -26.2165   14.8705   25.9450 N.am      2 SEC2        0.0000 
      8 N         -26.7050   13.5540   26.0560 N.am     10 SEL2        0.0000 
      9 N         -25.7280   16.1870   25.8340 N.am      6 SEP2        0.0000 
     10 N         -26.1420   14.6565   24.8270 N.am      2 SEC2        0.0000 
     11 N         -25.5790   15.7590   23.5980 N.am      6 SEP2        0.0000 
     12 CA        -29.6065   14.0095   25.8800 C.3       4 GLC5        0.0000 
     13 CA        -28.4430   12.9400   24.4790 C.3      12 GLL5        0.0000 
     14 CA        -30.7700   15.0790   27.2810 C.3       8 GLP5        0.0000 
     15 N         -26.7175   14.7105   23.4905 N.am      2 SEC2        0.0000 
     16 N         -27.8560   13.6620   23.3830 N.am     10 SEL2        0.0000 
     17 O         -28.8485   14.5350   23.0285 O.2       1 ALC1        0.0000 
     18 O         -27.8560   13.6620   23.3830 O.2       9 ALL1        0.0000 
     19 O         -29.8410   15.4080   22.6740 O.2       5 ALP1        0.0000 
     20 N         -29.8770   11.2170   21.9730 N.am      2 SEC2        0.0000 
     21 N         -30.2750   12.0640   23.0510 N.am     10 SEL2        0.0000 
     22 N         -29.4790   10.3700   20.8950 N.am      6 SEP2        0.0000 
     23 O         -30.9330   13.0015   23.9535 O.2       1 ALC1        0.0000 
     24 O         -30.2750   12.0640   23.0510 O.2       9 ALL1        0.0000 
     25 O         -31.5910   13.9390   24.8560 O.2       5 ALP1        0.0000 
     26 N         -31.4335   13.3000   29.1225 N.am      2 SEC2        0.0000 
     27 N         -30.6790   12.1920   29.1150 N.am     10 SEL2        0.0000 
     28 N         -32.1880   14.4080   29.1300 N.am      6 SEP2        0.0000 
     29 NZ        -27.5015   15.1685   30.8605 N.4       3 LYC4        0.0000 
     30 NZ        -26.3860   14.6300   30.0110 N.4      11 LYL4        0.0000 
     31 NZ        -28.6170   15.7070   31.7100 N.4       7 LYP4        0.0000 
     32 N         -27.5015   15.1685   30.8605 N.am      2 SEC2        0.0000 
     33 N         -26.3860   14.6300   30.0110 N.am     10 SEL2        0.0000 
     34 N         -28.6170   15.7070   31.7100 N.am      6 SEP2        0.0000 
     35 CA        -27.8035   10.5680   31.5105 C.3       4 GLC5        0.0000 
     36 CA        -26.0210   10.8630   30.6800 C.3      12 GLL5        0.0000 
     37 CA        -29.5860   10.2730   32.3410 C.3       8 GLP5        0.0000 
     38 CA        -23.9920    9.0320   31.9655 C.3       4 GLC5        0.0000 
     39 CA        -25.2730   10.2810   31.9000 C.3      12 GLL5        0.0000 
     40 CA        -22.7110    7.7830   32.0310 C.3       8 GLP5        0.0000 
     41 CA        -24.4125    9.2075   33.3680 C.3       4 GLC5        0.0000 
     42 CA        -25.8390   10.8470   33.1870 C.3      12 GLL5        0.0000 
     43 CA        -22.9860    7.5680   33.5490 C.3       8 GLP5        0.0000 
     44 N         -25.5725    8.4370   33.9500 N.am      2 SEC2        0.0000 
     45 N         -25.7980    9.8190   34.1480 N.am     10 SEL2        0.0000 
     46 N         -25.3470    7.0550   33.7520 N.am      6 SEP2        0.0000 
     47 O         -26.6540   10.1245   35.1570 O.2       1 ALC1        0.0000 
     48 O         -25.7980    9.8190   34.1480 O.2       9 ALL1        0.0000 
     49 O         -27.5100   10.4300   36.1660 O.2       5 ALP1        0.0000 
     50 N         -24.0305   12.2105   36.1460 N.am      2 SEC2        0.0000 
     51 N         -24.7930   12.1520   35.0190 N.am     10 SEL2        0.0000 
     52 N         -23.2680   12.2690   37.2730 N.am      6 SEP2        0.0000 
     53 N         -24.8035   11.4080   36.4605 N.am      2 SEC2        0.0000 
     54 N         -24.8140   10.6640   37.9020 N.am      6 SEP2        0.0000 
     55 CA        -22.1895   11.1090   31.5670 C.3       4 GLC5        0.0000 
     56 CA        -23.5120   11.3310   33.1630 C.3      12 GLL5        0.0000 
     57 CA        -20.8670   10.8870   29.9710 C.3       8 GLP5        0.0000 
     58 CA        -23.1115    9.5570   32.5970 C.3       4 GLC5        0.0000 
     59 N         -20.5290   10.8050   35.4535 N.am      2 SEC2        0.0000 
     60 N         -21.0860   11.5050   34.6190 N.am     10 SEL2        0.0000 
     61 N         -19.9720   10.1050   36.2880 N.am      6 SEP2        0.0000 
     62 O         -19.1535   13.4480   34.1225 O.2       1 ALC1        0.0000 
     63 O         -20.2730   13.2900   33.5050 O.2       9 ALL1        0.0000 
     64 O         -18.0340   13.6060   34.7400 O.2       5 ALP1        0.0000 
     65 N         -18.1870   15.4205   32.7990 N.am      2 SEC2        0.0000 
     66 N         -19.5760   15.0740   32.3850 N.am     10 SEL2        0.0000 
     67 N         -16.7980   15.7670   33.2130 N.am      6 SEP2        0.0000 
     68 CA        -28.5300   13.7995   26.8727 C.3       4 GLC5        0.0000 
     69 CA        -29.3830   15.5850   27.7530 C.3       8 GLP5        0.0000 
     70 CA        -26.3255   10.7310   25.9923 C.3       4 GLC5        0.0000 
     71 CA        -24.9740    9.4480   25.9920 C.3       8 GLP5        0.0000 
     72 CA        -30.7855    9.9838   23.6508 C.3       4 GLC5        0.0000 
     73 CA        -29.6830   10.8340   25.0100 C.3      12 GLL5        0.0000 
     74 CA        -32.1490    8.6960   22.8490 C.3       8 GLP5        0.0000 
     75 CA        -28.9550    9.5047   24.4333 C.3       4 GLC5        0.0000 
     76 CA        -28.4880    7.7380   24.4140 C.3       8 GLP5        0.0000 
     77 CA        -24.7005   10.1865   29.6695 C.3       4 GLC5        0.0000 
     78 CA        -23.7540    9.8010   28.0490 C.3       8 GLP5        0.0000 
     79 CA        -27.3485   10.0450   33.0042 C.3       4 GLC5        0.0000 
     80 CA        -29.1410    9.5260   33.4650 C.3       8 GLP5        0.0000 
     81 CA        -26.8747   12.3167   34.3597 C.3       4 GLC5        0.0000 
     82 CA        -28.4210   13.2360   35.3350 C.3       8 GLP5        0.0000 
     83 CA        -21.5092   12.3515   30.9222 C.3       4 GLC5        0.0000 
     84 CA        -22.6500   13.3530   31.9660 C.3      12 GLL5        0.0000 
     85 CA        -22.2817   13.6565   29.9847 C.3       4 GLC5        0.0000 
     86 CA        -22.4120   13.4970   28.0960 C.3       8 GLP5        0.0000 
@<TRIPOS>BOND
@<TRIPOS>SUBSTRUCTURE
     1 ALC1       17 GROUP        1 X    ALC  0     ROOT ALC X 1
     2 SEC2        7 GROUP        1 X    SEC  0     **** SEC X 2
     3 LYC4       29 GROUP        1 X    LYC  0     **** LYC X 4
     4 GLC5        1 GROUP        1 X    GLC  0     **** GLC X 6
     5 ALP1       19 GROUP        1 Y    ALP  0     ROOT ALP Y 8
     6 SEP2        9 GROUP        1 Y    SEP  0     **** SEP Y 9
     7 LYP4       31 GROUP        1 Y    LYP  0     **** LYP Y 11
     8 GLP5        3 GROUP        1 Y    GLP  0     **** GLP Y 13
     9 ALL1       18 GROUP        1 Z    ALL  0     ROOT ALL Z 15
    10 SEL2        8 GROUP        1 Z    SEL  0     **** SEL Z 16
    11 LYL4       30 GROUP        1 Z    LYL  0     **** LYL Z 18
    12 GLL5        2 GROUP        1 Z    GLL  0     **** GLL Z 20
@<TRIPOS>SET

