#    Name: 3ptz_UDX_2_ligand
#    Modification time : Tue Mar 25 08:29:56 2014

@<TRIPOS>MOLECULE
3ptz_UDX_2_ligand
   54    56     1     0     0
SMALL
NO_CHARGES


@<TRIPOS>ATOM
      1 C1'       -27.9800   11.5770   26.5330 C.3       1 UDX501      0.0000 
      2 C2'       -27.3740   12.4510   25.4520 C.3       1 UDX501      0.0000 
      3 O2'       -26.7050   13.5540   26.0560 O.3       1 UDX501      0.0000 
      4 C3'       -28.4430   12.9400   24.4790 C.3       1 UDX501      0.0000 
      5 O3'       -27.8560   13.6620   23.3830 O.3       1 UDX501      0.0000 
      6 C4'       -29.1610   11.7090   23.8950 C.3       1 UDX501      0.0000 
      7 O4'       -30.2750   12.0640   23.0510 O.3       1 UDX501      0.0000 
      8 C5'       -29.6830   10.8340   25.0100 C.3       1 UDX501      0.0000 
      9 O5'       -28.7450   10.4730   25.9740 O.3       1 UDX501      0.0000 
     10 PB        -29.1170   11.9260   28.7270 P.3       1 UDX501      0.0000 
     11 O1B       -28.5730   10.5590   28.9650 O.co2     1 UDX501      0.0000 
     12 O2B       -30.6790   12.1920   29.1150 O.co2     1 UDX501      0.0000 
     13 O3B       -28.8600   12.3630   27.2560 O.3       1 UDX501      0.0000 
     14 O3A       -28.4380   13.0400   29.7340 O.3       1 UDX501      0.0000 
     15 PA        -26.7940   13.2270   29.7310 P.3       1 UDX501      0.0000 
     16 O1A       -26.3860   14.6300   30.0110 O.co2     1 UDX501      0.0000 
     17 O2A       -26.1500   12.7980   28.3260 O.co2     1 UDX501      0.0000 
     18 O5D       -26.2380   12.2370   30.8820 O.3       1 UDX501      0.0000 
     19 C5D       -26.0210   10.8630   30.6800 C.3       1 UDX501      0.0000 
     20 C4D       -25.2730   10.2810   31.9000 C.3       1 UDX501      0.0000 
     21 O4D       -23.7850   10.6510   31.9080 O.3       1 UDX501      0.0000 
     22 C3D       -25.8390   10.8470   33.1870 C.3       1 UDX501      0.0000 
     23 O3D       -25.7980    9.8190   34.1480 O.3       1 UDX501      0.0000 
     24 C2D       -24.8180   11.9480   33.5820 C.3       1 UDX501      0.0000 
     25 O2D       -24.7930   12.1520   35.0190 O.3       1 UDX501      0.0000 
     26 C1D       -23.5120   11.3310   33.1630 C.3       1 UDX501      0.0000 
     27 N1        -22.4840   12.3660   32.9380 N.am      1 UDX501      0.0000 
     28 C6        -22.6500   13.3530   31.9660 C.2       1 UDX501      0.0000 
     29 C2        -21.2690   12.3380   33.7230 C.2       1 UDX501      0.0000 
     30 O2        -21.0860   11.5050   34.6190 O.2       1 UDX501      0.0000 
     31 N3        -20.2730   13.2900   33.5050 N.am      1 UDX501      0.0000 
     32 C4        -20.4790   14.2530   32.5600 C.2       1 UDX501      0.0000 
     33 O4        -19.5760   15.0740   32.3850 O.2       1 UDX501      0.0000 
     34 C5        -21.6530   14.2790   31.7810 C.2       1 UDX501      0.0000 
     35 H         -27.1854   11.2051   27.1519 H         1 UDX501      0.0000 
     36 H         -26.6679   11.8395   24.8888 H         1 UDX501      0.0000 
     37 H         -29.1613   13.5211   25.0054 H         1 UDX501      0.0000 
     38 H         -28.4307   11.1292   23.3362 H         1 UDX501      0.0000 
     39 H         -30.1483    9.9295   24.5263 H         1 UDX501      0.0000 
     40 H         -30.5594   11.3737   25.4672 H         1 UDX501      0.0000 
     41 H         -25.4041   10.6585   29.7981 H         1 UDX501      0.0000 
     42 H         -26.9545   10.2991   30.5773 H         1 UDX501      0.0000 
     43 H         -25.3678    9.2207   31.9157 H         1 UDX501      0.0000 
     44 H         -26.7574   11.2721   33.0184 H         1 UDX501      0.0000 
     45 H         -25.0035   12.8003   33.0251 H         1 UDX501      0.0000 
     46 H         -23.2003   10.6345   33.9014 H         1 UDX501      0.0000 
     47 H         -23.5053   13.3779   31.4047 H         1 UDX501      0.0000 
     48 H         -19.4079   13.2551   34.0512 H         1 UDX501      0.0000 
     49 H         -21.7509   15.0167   31.0593 H         1 UDX501      0.0000 
     50 H         -26.9341   13.4950   27.0276 H         1 UDX501      0.0000 
     51 H         -28.2908   14.5624   23.4039 H         1 UDX501      0.0000 
     52 H         -31.0233   12.2675   23.6823 H         1 UDX501      0.0000 
     53 H         -26.4545   10.0948   34.8500 H         1 UDX501      0.0000 
     54 H         -24.8449   13.1432   35.1405 H         1 UDX501      0.0000 
@<TRIPOS>BOND
     1    2    1 1    
     2    9    1 1    
     3   13    1 1    
     4   35    1 1    
     5    3    2 1    
     6    4    2 1    
     7   36    2 1    
     8   50    3 1    
     9    5    4 1    
    10    6    4 1    
    11   37    4 1    
    12   51    5 1    
    13    7    6 1    
    14    8    6 1    
    15   38    6 1    
    16   52    7 1    
    17    9    8 1    
    18   39    8 1    
    19   40    8 1    
    20   11   10 ar   
    21   12   10 ar   
    22   13   10 1    
    23   14   10 1    
    24   15   14 1    
    25   16   15 ar   
    26   17   15 ar   
    27   18   15 1    
    28   19   18 1    
    29   20   19 1    
    30   41   19 1    
    31   42   19 1    
    32   21   20 1    
    33   22   20 1    
    34   43   20 1    
    35   26   21 1    
    36   23   22 1    
    37   24   22 1    
    38   44   22 1    
    39   53   23 1    
    40   25   24 1    
    41   26   24 1    
    42   45   24 1    
    43   54   25 1    
    44   27   26 1    
    45   46   26 1    
    46   28   27 1    
    47   29   27 1    
    48   34   28 2    
    49   47   28 1    
    50   30   29 2    
    51   31   29 1    
    52   32   31 1    
    53   48   31 1    
    54   33   32 2    
    55   34   32 1    
    56   49   34 1    
@<TRIPOS>SUBSTRUCTURE
     1 UDX501      1 GROUP   
@<TRIPOS>SET

