#    Name: 2par_TMP_1_INTS_M
#    Modification time : Mon Mar 24 18:38:22 2014

@<TRIPOS>MOLECULE
2par_TMP_1_INTS_M
   53     0    15     0     0
SMALL
NO_CHARGES


@<TRIPOS>ATOM
      1 N         -22.7785   -9.5675    5.4680 N.am      2 SEC2        0.0000 
      2 N         -22.9310   -8.2640    6.1470 N.am     12 SEL2        0.0000 
      3 N         -22.6260  -10.8710    4.7890 N.am      7 SEP2        0.0000 
      4 NZ        -19.3910   -8.8690    5.6695 N.4       3 LYC4        0.0000 
      5 NZ        -20.6710   -9.3680    5.9670 N.4      13 LYL4        0.0000 
      6 NZ        -17.0220   -8.2770    6.1170 N.4       8 LYP4        0.0000 
      7 Zn        -20.7155  -10.3715    5.5190 Zn        4 ZIC7        0.0000 
      8 Zn        -20.6710   -9.3680    5.9670 Zn       14 ZIL7        0.0000 
      9 Zn        -20.7600  -11.3750    5.0710 Zn        9 ZIP7        0.0000 
     10 N         -19.3910   -8.8690    5.6695 N.am      2 SEC2        0.0000 
     11 N         -20.6710   -9.3680    5.9670 N.am     12 SEL2        0.0000 
     12 N         -18.1110   -8.3700    5.3720 N.am      7 SEP2        0.0000 
     13 N         -20.0710   -9.5520    7.5230 N.am      2 SEC2        0.0000 
     14 N         -19.4710   -9.7360    9.0790 N.am      7 SEP2        0.0000 
     15 N         -19.4425   -7.6555    6.0020 N.am      2 SEC2        0.0000 
     16 N         -20.7740   -6.9410    6.6320 N.am     12 SEL2        0.0000 
     17 CA        -21.1180   -2.7535    5.9490 C.3       5 GLC5        0.0000 
     18 CA        -20.3460   -4.5740    6.1100 C.3      15 GLL5        0.0000 
     19 CA        -21.8900   -0.9330    5.7880 C.3      10 GLP5        0.0000 
     20 N         -22.0300   -3.0545    7.4230 N.am      2 SEC2        0.0000 
     21 N         -20.7270   -4.1480    7.4100 N.am     12 SEL2        0.0000 
     22 N         -23.3330   -1.9610    7.4360 N.am      7 SEP2        0.0000 
     23 CA        -16.9605   -5.0230    5.4330 C.3       5 GLC5        0.0000 
     24 CA        -18.8330   -4.7440    6.1740 C.3      15 GLL5        0.0000 
     25 CA        -15.0880   -5.3020    4.6920 C.3      10 GLP5        0.0000 
     26 N         -16.7300   -3.1450    5.9225 N.am      2 SEC2        0.0000 
     27 N         -18.1240   -3.5970    5.7030 N.am     12 SEL2        0.0000 
     28 N         -15.3360   -2.6930    6.1420 N.am      7 SEP2        0.0000 
     29 O         -18.5605   -3.9100    4.3705 O.2       1 ALC1        0.0000 
     30 O         -18.1240   -3.5970    5.7030 O.2      11 ALL1        0.0000 
     31 O         -18.9970   -4.2230    3.0380 O.2       6 ALP1        0.0000 
     32 O         -18.2560   -2.9070    4.6575 O.2       1 ALC1        0.0000 
     33 O         -18.3880   -2.2170    3.6120 O.2       6 ALP1        0.0000 
     34 CA        -17.0370   -5.1045    8.8340 C.3       5 GLC5        0.0000 
     35 CA        -18.4700   -4.8530    7.6530 C.3      15 GLL5        0.0000 
     36 CA        -15.6040   -5.3560   10.0150 C.3      10 GLP5        0.0000 
     37 CA        -17.8680   -3.5785    9.5575 C.3       5 GLC5        0.0000 
     38 CA        -19.5800   -4.0370    8.2900 C.3      15 GLL5        0.0000 
     39 CA        -16.1560   -3.1200   10.8250 C.3      10 GLP5        0.0000 
     40 CA        -21.7535   -4.3215    8.3535 C.3       5 GLC5        0.0000 
     41 CA        -23.9270   -4.6060    8.4170 C.3      10 GLP5        0.0000 
     42 CA        -21.0420   -8.1455   13.0630 C.3       5 GLC5        0.0000 
     43 CA        -21.3770   -7.5930   11.3100 C.3      15 GLL5        0.0000 
     44 CA        -20.7070   -8.6980   14.8160 C.3      10 GLP5        0.0000 
     45 CA        -22.3432   -4.9072    7.1870 C.3       5 GLC5        0.0000 
     46 CA        -21.1730   -5.8430    5.8040 C.3      15 GLL5        0.0000 
     47 CA        -18.8445   -5.5467   11.1493 C.3       5 GLC5        0.0000 
     48 CA        -20.4340   -5.7700    9.7980 C.3      15 GLL5        0.0000 
     49 CA        -17.0190   -5.1240   11.8820 C.3      10 GLP5        0.0000 
     50 CA        -22.2985   -5.2877    9.4168 C.3       5 GLC5        0.0000 
     51 CA        -19.6093   -7.9905   11.5672 C.3       5 GLC5        0.0000 
     52 CA        -20.9060   -6.1690   11.0350 C.3      15 GLL5        0.0000 
     53 CA        -18.0770   -9.1000   11.9620 C.3      10 GLP5        0.0000 
@<TRIPOS>BOND
@<TRIPOS>SUBSTRUCTURE
     1 ALC1       29 GROUP        1 X    ALC  0     ROOT ALC X 1
     2 SEC2        1 GROUP        1 X    SEC  0     **** SEC X 2
     3 LYC4        4 GROUP        1 X    LYC  0     **** LYC X 4
     4 ZIC7        7 GROUP        1 X    ZIC  0     **** ZIC X 5
     5 GLC5       17 GROUP        1 X    GLC  0     **** GLC X 6
     6 ALP1       31 GROUP        1 Y    ALP  0     ROOT ALP Y 8
     7 SEP2        3 GROUP        1 Y    SEP  0     **** SEP Y 9
     8 LYP4        6 GROUP        1 Y    LYP  0     **** LYP Y 11
     9 ZIP7        9 GROUP        1 Y    ZIP  0     **** ZIP Y 12
    10 GLP5       19 GROUP        1 Y    GLP  0     **** GLP Y 13
    11 ALL1       30 GROUP        1 Z    ALL  0     ROOT ALL Z 15
    12 SEL2        2 GROUP        1 Z    SEL  0     **** SEL Z 16
    13 LYL4        5 GROUP        1 Z    LYL  0     **** LYL Z 18
    14 ZIL7        8 GROUP        1 Z    ZIL  0     **** ZIL Z 19
    15 GLL5       18 GROUP        1 Z    GLL  0     **** GLL Z 20
@<TRIPOS>SET

