#    Name: 2par_TMP_1_ligand
#    Modification time : Mon Mar 24 18:38:22 2014

@<TRIPOS>MOLECULE
2par_TMP_1_ligand
   34    35     1     0     0
SMALL
NO_CHARGES


@<TRIPOS>ATOM
      1 P         -21.5220   -8.3930    6.7390 P.3       1 TMP301      0.0000 
      2 O1P       -22.9310   -8.2640    6.1470 O.co2     1 TMP301      0.0000 
      3 O2P       -21.4390   -8.6770    8.2760 O.co2     1 TMP301      0.0000 
      4 O3P       -20.6710   -9.3680    5.9670 O.co2     1 TMP301      0.0000 
      5 O5'       -20.7740   -6.9410    6.6320 O.3       1 TMP301      0.0000 
      6 C5'       -21.1730   -5.8430    5.8040 C.3       1 TMP301      0.0000 
      7 C4'       -20.3460   -4.5740    6.1100 C.3       1 TMP301      0.0000 
      8 O4'       -20.7270   -4.1480    7.4100 O.3       1 TMP301      0.0000 
      9 C3'       -18.8330   -4.7440    6.1740 C.3       1 TMP301      0.0000 
     10 O3'       -18.1240   -3.5970    5.7030 O.3       1 TMP301      0.0000 
     11 C2'       -18.4700   -4.8530    7.6530 C.3       1 TMP301      0.0000 
     12 C1'       -19.5800   -4.0370    8.2900 C.3       1 TMP301      0.0000 
     13 N1        -20.0170   -4.5000    9.6170 N.am      1 TMP301      0.0000 
     14 C2        -20.0810   -3.5440   10.6760 C.2       1 TMP301      0.0000 
     15 O2        -19.6970   -2.3500   10.4970 O.2       1 TMP301      0.0000 
     16 N3        -20.5260   -3.9010   11.8890 N.am      1 TMP301      0.0000 
     17 C4        -20.9320   -5.1540   12.1210 C.2       1 TMP301      0.0000 
     18 O4        -21.3020   -5.4850   13.2560 O.2       1 TMP301      0.0000 
     19 C5        -20.9060   -6.1690   11.0350 C.2       1 TMP301      0.0000 
     20 C5M       -21.3770   -7.5930   11.3100 C.3       1 TMP301      0.0000 
     21 C6        -20.4340   -5.7700    9.7980 C.2       1 TMP301      0.0000 
     22 H         -22.2332   -5.5847    5.9516 H         1 TMP301      0.0000 
     23 H         -21.0399   -6.0689    4.7345 H         1 TMP301      0.0000 
     24 H         -20.5893   -3.8156    5.3914 H         1 TMP301      0.0000 
     25 H         -18.5440   -5.6364    5.6986 H         1 TMP301      0.0000 
     26 H         -17.5386   -4.3962    7.8261 H         1 TMP301      0.0000 
     27 H         -18.5335   -5.8561    7.9627 H         1 TMP301      0.0000 
     28 H         -19.2738   -3.0048    8.3324 H         1 TMP301      0.0000 
     29 H         -20.5555   -3.1916   12.6608 H         1 TMP301      0.0000 
     30 H         -20.4069   -6.4556    9.0227 H         1 TMP301      0.0000 
     31 H         -21.3076   -8.1707   10.4967 H         1 TMP301      0.0000 
     32 H         -20.8358   -8.0311   12.0277 H         1 TMP301      0.0000 
     33 H         -22.3317   -7.6177   11.6065 H         1 TMP301      0.0000 
     34 H         -18.5723   -3.3506    4.8438 H         1 TMP301      0.0000 
@<TRIPOS>BOND
     1    2    1 ar   
     2    3    1 ar   
     3    4    1 ar   
     4    5    1 1    
     5    6    5 1    
     6    7    6 1    
     7   22    6 1    
     8   23    6 1    
     9    8    7 1    
    10    9    7 1    
    11   24    7 1    
    12   12    8 1    
    13   10    9 1    
    14   11    9 1    
    15   25    9 1    
    16   34   10 1    
    17   12   11 1    
    18   26   11 1    
    19   27   11 1    
    20   13   12 1    
    21   28   12 1    
    22   14   13 am   
    23   21   13 1    
    24   15   14 2    
    25   16   14 1    
    26   17   16 am   
    27   29   16 1    
    28   18   17 2    
    29   19   17 1    
    30   20   19 1    
    31   21   19 2    
    32   31   20 1    
    33   32   20 1    
    34   33   20 1    
    35   30   21 1    
@<TRIPOS>SUBSTRUCTURE
     1 TMP301      1 GROUP   
@<TRIPOS>SET

