#    Name: 4lsj_LSJ_1_INTS_M
#    Modification time : Tue Apr  8 00:07:49 2014

@<TRIPOS>MOLECULE
4lsj_LSJ_1_INTS_M
   79     0     9     0     0
SMALL
NO_CHARGES


@<TRIPOS>ATOM
      1 CA        -10.4300   13.4935  -15.0195 C.3       3 GLC5        0.0000 
      2 CA         -9.1740   14.2250  -16.5000 C.3       9 GLL5        0.0000 
      3 CA        -11.6860   12.7620  -13.5390 C.3       6 GLP5        0.0000 
      4 CA         -7.9535   14.5265  -14.7460 C.3       3 GLC5        0.0000 
      5 CA         -6.7330   14.8280  -12.9920 C.3       6 GLP5        0.0000 
      6 CA         -9.7565   16.2155  -15.6515 C.3       3 GLC5        0.0000 
      7 CA        -10.3390   18.2060  -14.8030 C.3       6 GLP5        0.0000 
      8 CA         -7.4595   15.5755  -17.8340 C.3       3 GLC5        0.0000 
      9 CA         -6.8020   14.0170  -16.4910 C.3       9 GLL5        0.0000 
     10 CA         -8.1170   17.1340  -19.1770 C.3       6 GLP5        0.0000 
     11 CA         -3.3900   13.9345  -14.3645 C.3       3 GLC5        0.0000 
     12 CA         -4.4110   13.9790  -16.2880 C.3       9 GLL5        0.0000 
     13 CA         -2.3690   13.8900  -12.4410 C.3       6 GLP5        0.0000 
     14 CA         -7.3120   13.0480  -18.7210 C.3       3 GLC5        0.0000 
     15 CA         -7.9600   11.9160  -16.9820 C.3       9 GLL5        0.0000 
     16 CA         -6.6640   14.1800  -20.4600 C.3       6 GLP5        0.0000 
     17 CA        -11.2335    7.2630  -15.5040 C.3       3 GLC5        0.0000 
     18 CA        -10.2680    7.8450  -17.2070 C.3       9 GLL5        0.0000 
     19 CA        -12.1990    6.6810  -13.8010 C.3       6 GLP5        0.0000 
     20 O          -8.6255    6.1395  -17.0160 O.2       1 ALC1        0.0000 
     21 O          -9.8420    6.5160  -17.3460 O.2       7 ALL1        0.0000 
     22 O          -7.4090    5.7630  -16.6860 O.2       4 ALP1        0.0000 
     23 N          -8.3855    3.8965  -17.5675 N.am      2 SEC2        0.0000 
     24 N          -9.7070    4.2270  -18.3310 N.am      8 SEL2        0.0000 
     25 N          -7.0640    3.5660  -16.8040 N.am      5 SEP2        0.0000 
     26 N         -12.5790    4.4605  -19.0620 N.am      2 SEC2        0.0000 
     27 N         -11.7420    5.4420  -18.6400 N.am      8 SEL2        0.0000 
     28 N         -13.4160    3.4790  -19.4840 N.am      5 SEP2        0.0000 
     29 CA         -9.4750    5.3110  -21.6510 C.3       3 GLC5        0.0000 
     30 CA         -9.6480    6.2070  -19.8930 C.3       9 GLL5        0.0000 
     31 CA         -9.3020    4.4150  -23.4090 C.3       6 GLP5        0.0000 
     32 CA        -11.2335    6.8450  -20.6845 C.3       3 GLC5        0.0000 
     33 CA        -12.8190    7.4830  -21.4760 C.3       6 GLP5        0.0000 
     34 CA         -9.2610   10.0470  -12.4405 C.3       3 GLC5        0.0000 
     35 CA         -8.3450    9.7840  -14.0500 C.3       9 GLL5        0.0000 
     36 CA        -10.1770   10.3100  -10.8310 C.3       6 GLP5        0.0000 
     37 CA        -10.2960   10.4690  -13.9090 C.3       3 GLC5        0.0000 
     38 CA        -12.2470   11.1540  -13.7680 C.3       6 GLP5        0.0000 
     39 CA         -8.2685    8.5100  -12.2655 C.3       3 GLC5        0.0000 
     40 CA         -8.1920    7.2360  -10.4810 C.3       6 GLP5        0.0000 
     41 CA         -9.6125   11.2560  -22.0970 C.3       3 GLC5        0.0000 
     42 CA         -9.8020   12.2530  -20.1960 C.3       9 GLL5        0.0000 
     43 CA         -9.4230   10.2590  -23.9980 C.3       6 GLP5        0.0000 
     44 CA         -7.3395   10.9020  -20.5440 C.3       3 GLC5        0.0000 
     45 CA         -8.9740   11.7180  -19.2510 C.3       9 GLL5        0.0000 
     46 CA         -5.7050   10.0860  -21.8370 C.3       6 GLP5        0.0000 
     47 CA         -7.3310    9.9610  -21.1505 C.3       3 GLC5        0.0000 
     48 CA         -8.9570    9.8360  -20.4640 C.3       9 GLL5        0.0000 
     49 CA         -9.1900   10.0475  -22.2310 C.3       3 GLC5        0.0000 
     50 CA         -8.7078   15.5150  -18.1668 C.3       3 GLC5        0.0000 
     51 CA         -9.4230   13.5670  -17.8130 C.3       9 GLL5        0.0000 
     52 CA         -4.4002   11.7115  -18.5463 C.3       3 GLC5        0.0000 
     53 CA         -5.5940   12.0100  -16.7190 C.3       9 GLL5        0.0000 
     54 CA         -3.8020   11.0990  -20.4790 C.3       6 GLP5        0.0000 
     55 CA         -4.5747   11.3145  -14.9552 C.3       3 GLC5        0.0000 
     56 CA         -4.1510   10.3050  -13.2970 C.3       6 GLP5        0.0000 
     57 CA         -2.5980   13.1393  -16.9000 C.3       3 GLC5        0.0000 
     58 CA         -4.4030   12.6380  -16.5080 C.3       9 GLL5        0.0000 
     59 CA         -0.7890   12.9700  -17.4020 C.3       6 GLP5        0.0000 
     60 CA         -6.0541   12.7604  -14.8115 C.3       3 GLC5        0.0000 
     61 CA         -6.8120   13.0330  -13.0140 C.3       6 GLP5        0.0000 
     62 CA         -6.0201   14.4909  -14.6646 C.3       3 GLC5        0.0000 
     63 CA         -7.4742   12.1988  -14.8290 C.3       3 GLC5        0.0000 
     64 CA        -11.5941   10.5429  -15.3553 C.3       3 GLC5        0.0000 
     65 CA        -11.7690    9.6150  -17.1540 C.3       9 GLL5        0.0000 
     66 CA        -12.6280    8.0905  -16.0240 C.3       3 GLC5        0.0000 
     67 CA        -13.5940    7.2320  -14.7930 C.3       6 GLP5        0.0000 
     68 CA         -6.0412   10.1565  -13.9645 C.3       3 GLC5        0.0000 
     69 CA         -7.3718   11.5205  -13.8230 C.3       3 GLC5        0.0000 
     70 CA         -7.5180   10.2320  -15.2140 C.3       9 GLL5        0.0000 
     71 CA         -9.2318   15.4435  -19.2718 C.3       3 GLC5        0.0000 
     72 CA        -10.2500   14.0790  -18.7730 C.3       9 GLL5        0.0000 
     73 CA        -11.0053   15.5670  -19.8732 C.3       3 GLC5        0.0000 
     74 CA        -11.6640   17.3810  -20.3800 C.3       6 GLP5        0.0000 
     75 CA        -12.0027   12.6035  -21.0075 C.3       3 GLC5        0.0000 
     76 CA        -10.4430   13.4270  -19.9600 C.3       9 GLL5        0.0000 
     77 CA        -13.8830   12.3670  -21.9370 C.3       6 GLP5        0.0000 
     78 CA        -11.9169   13.6690  -18.7623 C.3       3 GLC5        0.0000 
     79 CA        -13.6940   13.7130  -18.3980 C.3       6 GLP5        0.0000 
@<TRIPOS>BOND
@<TRIPOS>SUBSTRUCTURE
     1 ALC1       20 GROUP        1 X    ALC  0     ROOT ALC X 1
     2 SEC2       23 GROUP        1 X    SEC  0     **** SEC X 2
     3 GLC5        1 GROUP        1 X    GLC  0     **** GLC X 6
     4 ALP1       22 GROUP        1 Y    ALP  0     ROOT ALP Y 8
     5 SEP2       25 GROUP        1 Y    SEP  0     **** SEP Y 9
     6 GLP5        3 GROUP        1 Y    GLP  0     **** GLP Y 13
     7 ALL1       21 GROUP        1 Z    ALL  0     ROOT ALL Z 15
     8 SEL2       24 GROUP        1 Z    SEL  0     **** SEL Z 16
     9 GLL5        2 GROUP        1 Z    GLL  0     **** GLL Z 20
@<TRIPOS>SET

