#    Name: 4lsj_LSJ_1_ligand
#    Modification time : Tue Apr  8 00:07:50 2014

@<TRIPOS>MOLECULE
4lsj_LSJ_1_ligand
   56    59     1     0     0
SMALL
NO_CHARGES


@<TRIPOS>ATOM
      1 C1         -9.1740   14.2250  -16.5000 C.3       1 LSJ801      0.0000 
      2 O2         -7.9120   14.8410  -16.4530 O.3       1 LSJ801      0.0000 
      3 C3         -6.8020   14.0170  -16.4910 C.ar      1 LSJ801      0.0000 
      4 C4         -6.7850   12.6650  -16.7010 C.ar      1 LSJ801      0.0000 
      5 C5         -5.5940   12.0100  -16.7190 C.ar      1 LSJ801      0.0000 
      6 C6         -4.4030   12.6380  -16.5080 C.ar      1 LSJ801      0.0000 
      7 C7         -4.4110   13.9790  -16.2880 C.ar      1 LSJ801      0.0000 
      8 C8         -5.6050   14.6400  -16.2820 C.ar      1 LSJ801      0.0000 
      9 C9         -7.9600   11.9160  -16.9820 C.2       1 LSJ801      0.0000 
     10 C10        -8.3130   10.8130  -16.3060 C.2       1 LSJ801      0.0000 
     11 C11        -9.4730   10.0280  -16.6560 C.ar      1 LSJ801      0.0000 
     12 C12       -10.7540   10.4690  -16.8060 C.ar      1 LSJ801      0.0000 
     13 C13       -11.7690    9.6150  -17.1540 C.ar      1 LSJ801      0.0000 
     14 C14       -11.5550    8.2830  -17.3560 C.ar      1 LSJ801      0.0000 
     15 C15       -10.2680    7.8450  -17.2070 C.ar      1 LSJ801      0.0000 
     16 C16        -9.2700    8.7030  -16.8690 C.ar      1 LSJ801      0.0000 
     17 N17        -9.8420    6.5160  -17.3460 N.pl3     1 LSJ801      0.0000 
     18 S18       -10.3490    5.4460  -18.5130 S.o2      1 LSJ801      0.0000 
     19 O19        -9.7070    4.2270  -18.3310 O.2       1 LSJ801      0.0000 
     20 O20       -11.7420    5.4420  -18.6400 O.2       1 LSJ801      0.0000 
     21 C21        -9.6480    6.2070  -19.8930 C.3       1 LSJ801      0.0000 
     22 C22        -7.5180   10.2320  -15.2140 C.3       1 LSJ801      0.0000 
     23 C23        -8.3450    9.7840  -14.0500 C.3       1 LSJ801      0.0000 
     24 C24        -8.7940   12.3780  -18.0620 C.ar      1 LSJ801      0.0000 
     25 C25        -9.4230   13.5670  -17.8130 C.ar      1 LSJ801      0.0000 
     26 C26       -10.2500   14.0790  -18.7730 C.ar      1 LSJ801      0.0000 
     27 C27       -10.4430   13.4270  -19.9600 C.ar      1 LSJ801      0.0000 
     28 C28        -9.8020   12.2530  -20.1960 C.ar      1 LSJ801      0.0000 
     29 C29        -8.9740   11.7180  -19.2510 C.ar      1 LSJ801      0.0000 
     30 O30        -8.3090   10.5560  -19.4850 O.3       1 LSJ801      0.0000 
     31 C31        -8.9570    9.8360  -20.4640 C.3       1 LSJ801      0.0000 
     32 H          -9.9908   14.9579  -16.3215 H         1 LSJ801      0.0000 
     33 H          -9.2810   13.4564  -15.7037 H         1 LSJ801      0.0000 
     34 H          -5.5898   10.9690  -16.9045 H         1 LSJ801      0.0000 
     35 H          -3.5227   12.1095  -16.5154 H         1 LSJ801      0.0000 
     36 H          -3.5311   14.4910  -16.1280 H         1 LSJ801      0.0000 
     37 H          -5.6034   15.6833  -16.1074 H         1 LSJ801      0.0000 
     38 H         -10.9714   11.4809  -16.6530 H         1 LSJ801      0.0000 
     39 H         -12.7384   10.0008  -17.2676 H         1 LSJ801      0.0000 
     40 H         -12.3064    7.6519  -17.6027 H         1 LSJ801      0.0000 
     41 H          -8.2871    8.3188  -16.7671 H         1 LSJ801      0.0000 
     42 H          -9.1544    6.0709  -16.7161 H         1 LSJ801      0.0000 
     43 H          -6.7710   10.9712  -14.8580 H         1 LSJ801      0.0000 
     44 H          -6.9351    9.3668  -15.5921 H         1 LSJ801      0.0000 
     45 H         -10.7427   14.9822  -18.5982 H         1 LSJ801      0.0000 
     46 H         -11.0763   13.8306  -20.6732 H         1 LSJ801      0.0000 
     47 H          -9.9402   11.7568  -21.0994 H         1 LSJ801      0.0000 
     48 H          -8.6521    6.1169  -19.9010 H         1 LSJ801      0.0000 
     49 H          -9.9850    5.8106  -20.7470 H         1 LSJ801      0.0000 
     50 H          -9.8541    7.1851  -19.9225 H         1 LSJ801      0.0000 
     51 H          -7.7812    9.3938  -13.3221 H         1 LSJ801      0.0000 
     52 H          -8.8607   10.5405  -13.6477 H         1 LSJ801      0.0000 
     53 H          -9.0089    9.0841  -14.3136 H         1 LSJ801      0.0000 
     54 H          -9.0093   10.3427  -21.3245 H         1 LSJ801      0.0000 
     55 H          -8.4914    8.9730  -20.6599 H         1 LSJ801      0.0000 
     56 H          -9.8945    9.6098  -20.1996 H         1 LSJ801      0.0000 
@<TRIPOS>BOND
     1    2    1 1    
     2   25    1 1    
     3   32    1 1    
     4   33    1 1    
     5    3    2 1    
     6    4    3 ar   
     7    8    3 ar   
     8    5    4 ar   
     9    9    4 1    
    10    6    5 ar   
    11   34    5 1    
    12    7    6 ar   
    13   35    6 1    
    14    8    7 ar   
    15   36    7 1    
    16   37    8 1    
    17   10    9 2    
    18   24    9 1    
    19   11   10 1    
    20   22   10 1    
    21   12   11 ar   
    22   16   11 ar   
    23   13   12 ar   
    24   38   12 1    
    25   14   13 ar   
    26   39   13 1    
    27   15   14 ar   
    28   40   14 1    
    29   16   15 ar   
    30   17   15 1    
    31   41   16 1    
    32   18   17 1    
    33   42   17 1    
    34   19   18 2    
    35   20   18 2    
    36   21   18 1    
    37   48   21 1    
    38   49   21 1    
    39   50   21 1    
    40   23   22 1    
    41   43   22 1    
    42   44   22 1    
    43   51   23 1    
    44   52   23 1    
    45   53   23 1    
    46   25   24 ar   
    47   29   24 ar   
    48   26   25 ar   
    49   27   26 ar   
    50   45   26 1    
    51   28   27 ar   
    52   46   27 1    
    53   29   28 ar   
    54   47   28 1    
    55   30   29 1    
    56   31   30 1    
    57   54   31 1    
    58   55   31 1    
    59   56   31 1    
@<TRIPOS>SUBSTRUCTURE
     1 LSJ801      1 GROUP   
@<TRIPOS>SET

