#    Name: 3fzh_3BH_1_INTS_M
#    Modification time : Tue Mar 25 06:47:42 2014

@<TRIPOS>MOLECULE
3fzh_3BH_1_INTS_M
   51     0     9     0     0
SMALL
NO_CHARGES


@<TRIPOS>ATOM
      1 N          14.9260   -6.1590    2.6105 N.am      2 SEC2        0.0000 
      2 N          15.9160   -5.3510    3.1300 N.am      8 SEL2        0.0000 
      3 N          13.9360   -6.9670    2.0910 N.am      5 SEP2        0.0000 
      4 O          16.8255   -6.0645    3.8020 O.2       1 ALC1        0.0000 
      5 O          15.9160   -5.3510    3.1300 O.2       7 ALL1        0.0000 
      6 O          17.7350   -6.7780    4.4740 O.2       4 ALP1        0.0000 
      7 N          13.7345   -5.4785    2.9140 N.am      2 SEC2        0.0000 
      8 N          13.5330   -3.9900    3.7370 N.am      8 SEL2        0.0000 
      9 O          13.5820   -4.9810    4.5900 O.2       1 ALC1        0.0000 
     10 O          13.5330   -3.9900    3.7370 O.2       7 ALL1        0.0000 
     11 O          13.6310   -5.9720    5.4430 O.2       4 ALP1        0.0000 
     12 CA         15.4680   -0.7755    1.4790 C.3       3 GLC5        0.0000 
     13 CA         14.6390   -1.8890    3.2480 C.3       9 GLL5        0.0000 
     14 CA         16.2970    0.3380   -0.2900 C.3       6 GLP5        0.0000 
     15 CA         13.3495   -1.1250    4.2935 C.3       3 GLC5        0.0000 
     16 CA         15.2800   -0.7010    4.0290 C.3       9 GLL5        0.0000 
     17 CA         11.4190   -1.5490    4.5580 C.3       6 GLP5        0.0000 
     18 CA         16.0120   -1.4770    0.7370 C.3       3 GLC5        0.0000 
     19 CA         15.7270   -3.2920    1.7640 C.3       9 GLL5        0.0000 
     20 CA         14.6960   -2.6440   -0.0255 C.3       3 GLC5        0.0000 
     21 CA         13.6650   -1.9960   -1.8150 C.3       6 GLP5        0.0000 
     22 CA         16.0395   -5.8515    0.5575 C.3       3 GLC5        0.0000 
     23 CA         17.0630   -4.1270   -0.1340 C.3       9 GLL5        0.0000 
     24 CA         15.0160   -7.5760    1.2490 C.3       6 GLP5        0.0000 
     25 CA         15.3640   -3.0615   -0.9745 C.3       3 GLC5        0.0000 
     26 CA         15.9525   -7.3680   -1.2410 C.3       3 GLC5        0.0000 
     27 CA         16.4810   -5.6110   -1.8150 C.3       9 GLL5        0.0000 
     28 CA         15.4240   -9.1250   -0.6670 C.3       6 GLP5        0.0000 
     29 CA         18.2025   -6.9485   -1.4135 C.3       3 GLC5        0.0000 
     30 CA         19.9240   -8.2860   -1.0120 C.3       6 GLP5        0.0000 
     31 CA         15.2620   -5.7200   -3.1515 C.3       3 GLC5        0.0000 
     32 CA         14.0430   -5.8290   -4.4880 C.3       6 GLP5        0.0000 
     33 N          17.9145   -6.0665   -3.5705 N.am      2 SEC2        0.0000 
     34 N          17.7620   -5.4950   -2.3750 N.am      8 SEL2        0.0000 
     35 N          18.0670   -6.6380   -4.7660 N.am      5 SEP2        0.0000 
     36 CA         19.0170   -5.6350   -3.6145 C.3       3 GLC5        0.0000 
     37 CA         18.7110   -4.6560   -1.7980 C.3       9 GLL5        0.0000 
     38 CA         19.3230   -6.6140   -5.4310 C.3       6 GLP5        0.0000 
     39 CA         18.4940   -3.5300   -3.2310 C.3       3 GLC5        0.0000 
     40 CA         18.2770   -2.4040   -4.6640 C.3       6 GLP5        0.0000 
     41 CA         19.2790   -2.7290   -1.9920 C.3       3 GLC5        0.0000 
     42 CA         18.3500   -3.9550   -0.6520 C.3       9 GLL5        0.0000 
     43 CA         20.2080   -1.5030   -3.3320 C.3       6 GLP5        0.0000 
     44 N          19.4515   -1.5665   -0.3910 N.am      2 SEC2        0.0000 
     45 N          18.9780   -3.0870    0.1330 N.am      8 SEL2        0.0000 
     46 N          19.9250   -0.0460   -0.9150 N.am      5 SEP2        0.0000 
     47 CA         15.4265   -5.5867    1.8533 C.3       3 GLC5        0.0000 
     48 CA         13.0638   -2.0660    4.0695 C.3       3 GLC5        0.0000 
     49 CA         14.7780   -3.2770    3.9140 C.3       9 GLL5        0.0000 
     50 CA         18.9819   -5.6043    0.0167 C.3       3 GLC5        0.0000 
     51 CA         19.7550   -6.8600    1.1290 C.3       6 GLP5        0.0000 
@<TRIPOS>BOND
@<TRIPOS>SUBSTRUCTURE
     1 ALC1        4 GROUP        1 X    ALC  0     ROOT ALC X 1
     2 SEC2        1 GROUP        1 X    SEC  0     **** SEC X 2
     3 GLC5       12 GROUP        1 X    GLC  0     **** GLC X 6
     4 ALP1        6 GROUP        1 Y    ALP  0     ROOT ALP Y 8
     5 SEP2        3 GROUP        1 Y    SEP  0     **** SEP Y 9
     6 GLP5       14 GROUP        1 Y    GLP  0     **** GLP Y 13
     7 ALL1        5 GROUP        1 Z    ALL  0     ROOT ALL Z 15
     8 SEL2        2 GROUP        1 Z    SEL  0     **** SEL Z 16
     9 GLL5       13 GROUP        1 Z    GLL  0     **** GLL Z 20
@<TRIPOS>SET

