#    Name: 3fzh_3BH_1_ligand
#    Modification time : Tue Mar 25 06:47:42 2014

@<TRIPOS>MOLECULE
3fzh_3BH_1_ligand
   33    35     1     0     0
SMALL
NO_CHARGES


@<TRIPOS>ATOM
      1 O15        15.9160   -5.3510    3.1300 O.3       1 3BH401      0.0000 
      2 C8         15.9470   -3.9030    3.1510 C.3       1 3BH401      0.0000 
      3 C14        14.7780   -3.2770    3.9140 C.3       1 3BH401      0.0000 
      4 O19        13.5330   -3.9900    3.7370 O.3       1 3BH401      0.0000 
      5 C13        14.6390   -1.8890    3.2480 C.3       1 3BH401      0.0000 
      6 C18        15.2800   -0.7010    4.0290 C.3       1 3BH401      0.0000 
      7 O20        16.6750   -0.9280    4.1560 O.3       1 3BH401      0.0000 
      8 O7         15.3510   -1.9280    1.9970 O.3       1 3BH401      0.0000 
      9 C3         15.7270   -3.2920    1.7640 C.3       1 3BH401      0.0000 
     10 N1         16.9620   -3.3650    0.9470 N.pl3     1 3BH401      0.0000 
     11 C2         17.0630   -4.1270   -0.1340 C.ar      1 3BH401      0.0000 
     12 N6         16.1600   -4.9360   -0.7340 N.ar      1 3BH401      0.0000 
     13 C12        16.4810   -5.6110   -1.8150 C.ar      1 3BH401      0.0000 
     14 N16        17.7620   -5.4950   -2.3750 N.ar      1 3BH401      0.0000 
     15 C11        18.7110   -4.6560   -1.7980 C.ar      1 3BH401      0.0000 
     16 N17        19.9280   -4.5680   -2.3410 N.pl3     1 3BH401      0.0000 
     17 C5         18.3500   -3.9550   -0.6520 C.ar      1 3BH401      0.0000 
     18 N9         18.9780   -3.0870    0.1330 N.2       1 3BH401      0.0000 
     19 C4         18.1310   -2.7340    1.1000 C.2       1 3BH401      0.0000 
     20 N10        18.4350   -1.8760    2.0790 N.pl3     1 3BH401      0.0000 
     21 H          16.8462   -3.4921    3.5412 H         1 3BH401      0.0000 
     22 H          15.0508   -3.1262    4.9147 H         1 3BH401      0.0000 
     23 H          13.6098   -1.6687    3.0791 H         1 3BH401      0.0000 
     24 H          14.7746   -0.6468    4.9952 H         1 3BH401      0.0000 
     25 H          15.0527    0.2073    3.4677 H         1 3BH401      0.0000 
     26 H          14.9295   -3.8305    1.2932 H         1 3BH401      0.0000 
     27 H          15.8053   -6.2490   -2.2902 H         1 3BH401      0.0000 
     28 H          20.5811   -3.9796   -1.8642 H         1 3BH401      0.0000 
     29 H          20.0768   -5.0984   -3.1756 H         1 3BH401      0.0000 
     30 H          16.6913   -5.6346    3.6944 H         1 3BH401      0.0000 
     31 H          13.5633   -4.7332    4.4053 H         1 3BH401      0.0000 
     32 H          17.0613   -0.0372    4.3951 H         1 3BH401      0.0000 
     33 H          17.5918   -1.7772    2.6075 H         1 3BH401      0.0000 
@<TRIPOS>BOND
     1    2    1 1    
     2   30    1 1    
     3    3    2 1    
     4    9    2 1    
     5   21    2 1    
     6    4    3 1    
     7    5    3 1    
     8   22    3 1    
     9   31    4 1    
    10    6    5 1    
    11    8    5 1    
    12   23    5 1    
    13    7    6 1    
    14   24    6 1    
    15   25    6 1    
    16   32    7 1    
    17    9    8 1    
    18   10    9 1    
    19   26    9 1    
    20   11   10 1    
    21   19   10 1    
    22   12   11 ar   
    23   17   11 ar   
    24   13   12 ar   
    25   14   13 ar   
    26   27   13 1    
    27   15   14 ar   
    28   16   15 1    
    29   17   15 ar   
    30   28   16 1    
    31   29   16 1    
    32   18   17 1    
    33   19   18 2    
    34   20   19 1    
    35   33   20 1    
@<TRIPOS>SUBSTRUCTURE
     1 3BH401      1 GROUP   
@<TRIPOS>SET

