#    Name: 3V9L_2_CAVITY_N1_6.mol2
#    Modification time : Tue Mar 11 10:29:22 2014

@<TRIPOS>MOLECULE
3V9L_2_CAVITY_N1_6.mol2
   94     0     7     0     0
SMALL
NO_CHARGES


@<TRIPOS>ATOM
      1 CZ        -12.3665    3.8352   24.4910 C.ar      5 PHE5        0.0000 
      2 N         -10.9757    3.5345   24.0164 N.2       2 ALA2        0.0000 
      3 N         -14.3027    3.7169   23.6326 N.2       2 ALA2        0.0000 
      4 N         -12.9120    3.4162   23.1580 N.2       2 ALA2        0.0000 
      5 CA        -11.5212    3.1155   22.6834 C.3       6 GLY6        0.0000 
      6 CA        -13.4574    2.9972   21.8250 C.3       6 GLY6        0.0000 
      7 N         -12.7773    4.8248   22.6601 N.2       2 ALA2        0.0000 
      8 CA        -11.3865    4.5241   22.1855 C.3       6 GLY6        0.0000 
      9 DU        -12.0833   -3.7780   30.1441 H         7 CUB7        0.0000 
     10 NZ        -19.2830   -3.8323   28.0436 N.2       4 LYS4        0.0000 
     11 NZ        -19.8285   -4.2513   26.7106 N.2       4 LYS4        0.0000 
     12 N         -12.7940   -1.6498   31.4539 N.2       2 ALA2        0.0000 
     13 N         -11.4032   -1.9505   30.9793 N.2       2 ALA2        0.0000 
     14 DU        -10.0124   -2.2512   30.5047 H         7 CUB7        0.0000 
     15 OG         -8.6216   -2.5519   30.0300 O.2       1 SER1        0.0000 
     16 OD1       -13.3395   -2.0688   30.1209 O.3       3 ASP3        0.0000 
     17 DU        -11.9487   -2.3695   29.6463 H         7 CUB7        0.0000 
     18 CA        -10.5579   -2.6702   29.1717 C.3       6 GLY6        0.0000 
     19 CA         -9.1671   -2.9709   28.6971 C.3       6 GLY6        0.0000 
     20 O         -15.2758   -2.1871   29.2625 O.2       2 ALA2        0.0000 
     21 DU        -13.8850   -2.4878   28.7879 H         7 CUB7        0.0000 
     22 CA        -12.4942   -2.7885   28.3133 C.3       6 GLY6        0.0000 
     23 O         -18.6029   -2.0047   28.8788 O.2       2 ALA2        0.0000 
     24 O         -17.2121   -2.3054   28.4041 O.2       2 ALA2        0.0000 
     25 O         -15.8213   -2.6061   27.9295 O.2       2 ALA2        0.0000 
     26 DU        -14.4305   -2.9068   27.4549 H         7 CUB7        0.0000 
     27 CA        -13.0397   -3.2075   26.9803 C.3       6 GLY6        0.0000 
     28 NZ        -19.1483   -2.4237   27.5458 N.2       4 LYS4        0.0000 
     29 DU        -17.7575   -2.7244   27.0712 H         7 CUB7        0.0000 
     30 DU        -16.3668   -3.0251   26.5965 H         7 CUB7        0.0000 
     31 DU        -14.9760   -3.3258   26.1219 H         7 CUB7        0.0000 
     32 CA        -13.5852   -3.6265   25.6473 C.3       6 GLY6        0.0000 
     33 NZ        -19.6938   -2.8427   26.2128 N.2       4 LYS4        0.0000 
     34 DU        -18.3030   -3.1434   25.7382 H         7 CUB7        0.0000 
     35 NZ        -20.2393   -3.2617   24.8798 N.2       4 LYS4        0.0000 
     36 NZ        -11.2686   -0.5419   30.4814 N.2       4 LYS4        0.0000 
     37 NZ         -9.8778   -0.8426   30.0068 N.2       4 LYS4        0.0000 
     38 OG         -8.4870   -1.1433   29.5322 O.2       1 SER1        0.0000 
     39 CA        -14.5957   -0.3595   30.0977 C.3       6 GLY6        0.0000 
     40 NZ        -13.2049   -0.6602   29.6230 N.2       4 LYS4        0.0000 
     41 NZ        -11.8141   -0.9609   29.1484 N.2       4 LYS4        0.0000 
     42 NZ        -10.4233   -1.2616   28.6738 N.2       4 LYS4        0.0000 
     43 O          -9.0325   -1.5623   28.1992 O.2       2 ALA2        0.0000 
     44 O         -15.1411   -0.7785   28.7647 O.2       2 ALA2        0.0000 
     45 DU        -13.7503   -1.0792   28.2900 H         7 CUB7        0.0000 
     46 CA        -12.3595   -1.3799   27.8154 C.3       6 GLY6        0.0000 
     47 O         -18.4682   -0.5962   28.3809 O.2       2 ALA2        0.0000 
     48 O         -17.0774   -0.8969   27.9063 O.2       2 ALA2        0.0000 
     49 DU        -15.6866   -1.1976   27.4317 H         7 CUB7        0.0000 
     50 DU        -14.2958   -1.4983   26.9571 H         7 CUB7        0.0000 
     51 CA        -12.9050   -1.7990   26.4824 C.3       6 GLY6        0.0000 
     52 CZ        -19.0137   -1.0152   27.0479 C.ar      5 PHE5        0.0000 
     53 CZ        -17.6229   -1.3159   26.5733 C.ar      5 PHE5        0.0000 
     54 CZ        -16.2321   -1.6166   26.0987 C.ar      5 PHE5        0.0000 
     55 DU        -14.8413   -1.9173   25.6241 H         7 CUB7        0.0000 
     56 CA        -13.4505   -2.2180   25.1494 C.3       6 GLY6        0.0000 
     57 CZ        -19.5592   -1.4342   25.7149 C.ar      5 PHE5        0.0000 
     58 CZ        -18.1684   -1.7349   25.2403 C.ar      5 PHE5        0.0000 
     59 CZ        -16.7776   -2.0356   24.7657 C.ar      5 PHE5        0.0000 
     60 DU        -15.3868   -2.3363   24.2911 H         7 CUB7        0.0000 
     61 CZ        -20.1047   -1.8532   24.3819 C.ar      5 PHE5        0.0000 
     62 NZ        -13.0702    0.7483   29.1252 N.2       4 LYS4        0.0000 
     63 CZ        -13.6157    0.3293   27.7922 C.ar      5 PHE5        0.0000 
     64 NZ        -12.2249    0.0286   27.3176 N.2       4 LYS4        0.0000 
     65 NZ        -10.8341   -0.2721   26.8430 N.2       4 LYS4        0.0000 
     66 CZ        -16.9428    0.5117   27.4084 C.ar      5 PHE5        0.0000 
     67 CZ        -15.5520    0.2110   26.9338 C.ar      5 PHE5        0.0000 
     68 CZ        -14.1612   -0.0897   26.4592 C.ar      5 PHE5        0.0000 
     69 CA        -12.7704   -0.3904   25.9846 C.3       6 GLY6        0.0000 
     70 CZ        -16.0975   -0.2080   25.6008 C.ar      5 PHE5        0.0000 
     71 DU        -14.7067   -0.5087   25.1262 H         7 CUB7        0.0000 
     72 O         -13.3159   -0.8094   24.6516 O.2       2 ALA2        0.0000 
     73 CZ        -16.6430   -0.6270   24.2678 C.ar      5 PHE5        0.0000 
     74 CZ        -15.2522   -0.9277   23.7932 C.ar      5 PHE5        0.0000 
     75 CA        -13.8614   -1.2284   23.3186 C.3       6 GLY6        0.0000 
     76 CZ        -13.4811    1.7379   27.2943 C.ar      5 PHE5        0.0000 
     77 NZ        -12.0903    1.4372   26.8197 N.2       4 LYS4        0.0000 
     78 NZ        -10.6995    1.1364   26.3451 N.2       4 LYS4        0.0000 
     79 CZ        -14.0265    1.3188   25.9613 C.ar      5 PHE5        0.0000 
     80 N         -12.6357    1.0181   25.4867 N.2       2 ALA2        0.0000 
     81 N         -11.2450    0.7174   25.0121 N.2       2 ALA2        0.0000 
     82 CZ        -14.5720    0.8998   24.6283 C.ar      5 PHE5        0.0000 
     83 CA        -13.1812    0.5991   24.1537 C.3       6 GLY6        0.0000 
     84 CA        -15.1175    0.4808   23.2953 C.3       6 GLY6        0.0000 
     85 CA        -13.7267    0.1801   22.8207 C.3       6 GLY6        0.0000 
     86 CA        -14.2722   -0.2389   21.4877 C.3       6 GLY6        0.0000 
     87 CZ        -11.9556    2.8457   26.3218 C.ar      5 PHE5        0.0000 
     88 CA        -10.5648    2.5450   25.8472 C.3       6 GLY6        0.0000 
     89 CZ        -12.5011    2.4267   24.9889 C.ar      5 PHE5        0.0000 
     90 N         -11.1103    2.1260   24.5142 N.2       2 ALA2        0.0000 
     91 CZ        -14.4374    2.3084   24.1305 C.ar      5 PHE5        0.0000 
     92 CA        -13.0466    2.0077   23.6559 C.3       6 GLY6        0.0000 
     93 CA        -14.9829    1.8894   22.7975 C.3       6 GLY6        0.0000 
     94 CA        -13.5921    1.5887   22.3229 C.3       6 GLY6        0.0000 
@<TRIPOS>BOND
@<TRIPOS>SUBSTRUCTURE
     1 SER1       15 GROUP   
     2 ALA2        2 GROUP   
     3 ASP3       16 GROUP   
     4 LYS4       10 GROUP   
     5 PHE5        1 GROUP   
     6 GLY6        5 GROUP   
     7 CUB7        9 GROUP   
@<TRIPOS>SET

