#    Name: 3v9l_NAD_2_INTS_M
#    Modification time : Tue Mar 25 00:20:22 2014

@<TRIPOS>MOLECULE
3v9l_NAD_2_INTS_M
  106     0     9     0     0
SMALL
NO_CHARGES


@<TRIPOS>ATOM
      1 N         -11.5085   -2.9850   23.0950 N.am      2 SEC2        0.0000 
      2 N         -12.3800   -4.1610   22.7850 N.am      8 SEL2        0.0000 
      3 N         -10.6370   -1.8090   23.4050 N.am      5 SEP2        0.0000 
      4 N         -11.4160   -4.3250   23.8290 N.am      2 SEC2        0.0000 
      5 N         -10.4520   -4.4890   24.8730 N.am      5 SEP2        0.0000 
      6 N         -11.6005   -5.4760   22.6800 N.am      2 SEC2        0.0000 
      7 N         -10.8210   -6.7910   22.5750 N.am      5 SEP2        0.0000 
      8 CA        -12.8040   -1.6255   21.1330 C.3       3 GLC5        0.0000 
      9 CA        -14.1100   -2.9440   20.5570 C.3       9 GLL5        0.0000 
     10 CA        -11.4980   -0.3070   21.7090 C.3       6 GLP5        0.0000 
     11 N         -16.9475   -4.8145   16.9515 N.am      2 SEC2        0.0000 
     12 N         -16.3120   -3.8010   17.8120 N.am      8 SEL2        0.0000 
     13 N         -17.5830   -5.8280   16.0910 N.am      5 SEP2        0.0000 
     14 O         -16.3065   -2.4210   17.6085 O.2       1 ALC1        0.0000 
     15 O         -16.3120   -3.8010   17.8120 O.2       7 ALL1        0.0000 
     16 O         -16.3010   -1.0410   17.4050 O.2       4 ALP1        0.0000 
     17 CA        -13.7000   -4.9095   17.2985 C.3       3 GLC5        0.0000 
     18 CA        -14.4600   -5.7770   18.6650 C.3       9 GLL5        0.0000 
     19 CA        -12.9400   -4.0420   15.9320 C.3       6 GLP5        0.0000 
     20 CA        -13.7540  -10.5855   18.9675 C.3       3 GLC5        0.0000 
     21 CA        -12.4470   -8.8510   18.7560 C.3       9 GLL5        0.0000 
     22 CA        -15.0610  -12.3200   19.1790 C.3       6 GLP5        0.0000 
     23 CA        -12.4970  -11.4300   17.8410 C.3       3 GLC5        0.0000 
     24 CA        -11.6330   -9.7060   18.0430 C.3       9 GLL5        0.0000 
     25 CA        -13.3610  -13.1540   17.6390 C.3       6 GLP5        0.0000 
     26 CA        -11.0925  -10.4490   15.9935 C.3       3 GLC5        0.0000 
     27 CA        -10.5520  -11.1920   13.9440 C.3       6 GLP5        0.0000 
     28 CA         -9.7915   -9.3600   16.8965 C.3       3 GLC5        0.0000 
     29 CA         -7.9500   -9.0140   15.7500 C.3       6 GLP5        0.0000 
     30 O         -10.3420  -11.8135   17.7770 O.2       1 ALC1        0.0000 
     31 O         -11.0300  -10.8540   18.6490 O.2       7 ALL1        0.0000 
     32 O          -9.6540  -12.7730   16.9050 O.2       4 ALP1        0.0000 
     33 CA        -11.3700   -7.0035   15.0995 C.3       3 GLC5        0.0000 
     34 CA        -11.8930   -8.4000   16.0980 C.3       9 GLL5        0.0000 
     35 CA        -10.8470   -5.6070   14.1010 C.3       6 GLP5        0.0000 
     36 CA        -13.7740   -9.2655   16.7095 C.3       3 GLC5        0.0000 
     37 CA        -15.6550  -10.1310   17.3210 C.3       6 GLP5        0.0000 
     38 CA        -11.2225   -9.7960   15.0210 C.3       3 GLC5        0.0000 
     39 CA         -9.9215   -8.7070   15.9240 C.3       3 GLC5        0.0000 
     40 CA        -12.9600   -5.8880   16.9975 C.3       3 GLC5        0.0000 
     41 CA        -12.9800   -7.7340   18.0630 C.3       9 GLL5        0.0000 
     42 N         -12.2790   -2.0380   23.4815 N.am      2 SEC2        0.0000 
     43 N         -13.9210   -2.2670   23.5580 N.am      8 SEL2        0.0000 
     44 CA        -16.3860    0.8985   25.2250 C.3       3 GLC5        0.0000 
     45 CA        -14.3360    0.5070   25.1000 C.3       9 GLL5        0.0000 
     46 CA        -18.4360    1.2900   25.3500 C.3       6 GLP5        0.0000 
     47 CA        -15.1190    2.0070   26.0410 C.3       3 GLC5        0.0000 
     48 CA        -15.9020    3.5070   26.9820 C.3       6 GLP5        0.0000 
     49 CA        -11.3225   -0.7525   24.7960 C.3       3 GLC5        0.0000 
     50 CA        -12.8290    0.6520   25.0270 C.3       9 GLL5        0.0000 
     51 CA         -9.8160   -2.1570   24.5650 C.3       6 GLP5        0.0000 
     52 CA        -13.7595    2.4045   25.9280 C.3       3 GLC5        0.0000 
     53 CA        -14.6900    4.1570   26.8290 C.3       6 GLP5        0.0000 
     54 O         -10.7965    1.2450   27.9215 O.2       1 ALC1        0.0000 
     55 O         -11.1090    0.8650   26.6670 O.2       7 ALL1        0.0000 
     56 O         -10.4840    1.6250   29.1760 O.2       4 ALP1        0.0000 
     57 O         -10.7995    2.5385   27.7420 O.2       1 ALC1        0.0000 
     58 O         -11.1150    3.4520   26.3080 O.2       7 ALL1        0.0000 
     59 O         -10.8805    3.6305   27.7075 O.2       1 ALC1        0.0000 
     60 O         -10.6460    3.8090   29.1070 O.2       4 ALP1        0.0000 
     61 CA        -11.5570    1.0440   22.9670 C.3       3 GLC5        0.0000 
     62 CA        -11.6160    2.3950   24.2250 C.3       9 GLL5        0.0000 
     63 CA         -9.4565    2.2670   23.8035 C.3       3 GLC5        0.0000 
     64 CA         -7.2970    2.1390   23.3820 C.3       6 GLP5        0.0000 
     65 CA        -13.1530    3.2760   25.5270 C.3       3 GLC5        0.0000 
     66 CA         -8.9120    3.2005   23.1785 C.3       3 GLC5        0.0000 
     67 CA        -10.5270    4.2620   22.9750 C.3       9 GLL5        0.0000 
     68 CA        -10.6160    5.4440   24.1120 C.3       3 GLC5        0.0000 
     69 CA        -10.7050    6.6260   25.2490 C.3       6 GLP5        0.0000 
     70 O          -6.4520    6.2015   22.1660 O.2       1 ALC1        0.0000 
     71 O          -8.1120    5.8650   22.4100 O.2       7 ALL1        0.0000 
     72 O          -4.7920    6.5380   21.9220 O.2       4 ALP1        0.0000 
     73 O          -7.9440    5.0590   23.3995 O.2       1 ALC1        0.0000 
     74 O          -7.7760    4.2530   24.3890 O.2       4 ALP1        0.0000 
     75 CA        -13.9800    3.9730   20.6020 C.3       3 GLC5        0.0000 
     76 CA        -13.0300    5.0320   21.9270 C.3       9 GLL5        0.0000 
     77 CA        -14.9300    2.9140   19.2770 C.3       6 GLP5        0.0000 
     78 CA        -14.0910    2.8620   21.5165 C.3       3 GLC5        0.0000 
     79 CA        -12.9500    3.9320   22.7910 C.3       9 GLL5        0.0000 
     80 CA        -15.2320    1.7920   20.2420 C.3       6 GLP5        0.0000 
     81 CA        -12.3295   -3.3708   19.3260 C.3       3 GLC5        0.0000 
     82 CA        -10.3890   -3.4730   18.7600 C.3       6 GLP5        0.0000 
     83 CA        -14.0410   -3.9305   17.5460 C.3       3 GLC5        0.0000 
     84 CA        -14.4300   -3.5930   19.2270 C.3       9 GLL5        0.0000 
     85 CA        -15.7246   -5.7676   17.1690 C.3       3 GLC5        0.0000 
     86 CA        -16.3200   -6.2620   15.3930 C.3       6 GLP5        0.0000 
     87 CA        -14.0825   -9.3186   17.7761 C.3       3 GLC5        0.0000 
     88 CA        -11.3595   -7.5921   19.2406 C.3       3 GLC5        0.0000 
     89 CA        -10.2090   -6.6780   20.2500 C.3       6 GLP5        0.0000 
     90 CA        -12.5403    0.1363   23.3863 C.3       3 GLC5        0.0000 
     91 CA        -12.9752    3.1220   26.8848 C.3       3 GLC5        0.0000 
     92 CA        -12.0550    2.7420   25.6050 C.3       9 GLL5        0.0000 
     93 CA        -13.7820    4.1690   27.8730 C.3       6 GLP5        0.0000 
     94 CA        -11.2702    4.5973   25.0820 C.3       3 GLC5        0.0000 
     95 CA        -10.0661    2.6920   25.9759 C.3       3 GLC5        0.0000 
     96 CA         -8.2400    3.1490   26.8910 C.3       6 GLP5        0.0000 
     97 CA        -10.8645    4.2052   20.9997 C.3       3 GLC5        0.0000 
     98 CA        -11.1610    3.5980   19.4570 C.3       6 GLP5        0.0000 
     99 CA        -10.9567    6.7992   22.9947 C.3       3 GLC5        0.0000 
    100 CA        -10.6090    5.3630   22.1100 C.3       9 GLL5        0.0000 
    101 CA        -10.6780    8.0410   24.1420 C.3       6 GLP5        0.0000 
    102 CA        -12.9875    6.2345   20.2895 C.3       3 GLC5        0.0000 
    103 CA        -11.8620    5.7520   21.5850 C.3       9 GLL5        0.0000 
    104 CA        -13.5290    7.0770   18.8230 C.3       6 GLP5        0.0000 
    105 CA        -11.8475    5.5540   23.8040 C.3       3 GLC5        0.0000 
    106 CA        -11.9295    4.1300   20.8653 C.3       3 GLC5        0.0000 
@<TRIPOS>BOND
@<TRIPOS>SUBSTRUCTURE
     1 ALC1       14 GROUP        1 X    ALC  0     ROOT ALC X 1
     2 SEC2        1 GROUP        1 X    SEC  0     **** SEC X 2
     3 GLC5        8 GROUP        1 X    GLC  0     **** GLC X 6
     4 ALP1       16 GROUP        1 Y    ALP  0     ROOT ALP Y 8
     5 SEP2        3 GROUP        1 Y    SEP  0     **** SEP Y 9
     6 GLP5       10 GROUP        1 Y    GLP  0     **** GLP Y 13
     7 ALL1       15 GROUP        1 Z    ALL  0     ROOT ALL Z 15
     8 SEL2        2 GROUP        1 Z    SEL  0     **** SEL Z 16
     9 GLL5        9 GROUP        1 Z    GLL  0     **** GLL Z 20
@<TRIPOS>SET

