#    Name: 3v9l_NAD_2_ligand
#    Modification time : Tue Mar 25 00:20:22 2014

@<TRIPOS>MOLECULE
3v9l_NAD_2_ligand
   70    74     1     0     0
SMALL
NO_CHARGES


@<TRIPOS>ATOM
      1 PA        -13.8740   -3.7570   22.9860 P.3       1 NAD1517     0.0000 
      2 O1A       -12.3800   -4.1610   22.7850 O.co2     1 NAD1517     0.0000 
      3 O2A       -14.5870   -4.7590   23.9310 O.co2     1 NAD1517     0.0000 
      4 O5B       -14.5670   -3.8050   21.5680 O.3       1 NAD1517     0.0000 
      5 C5B       -14.1100   -2.9440   20.5570 C.3       1 NAD1517     0.0000 
      6 C4B       -14.4300   -3.5930   19.2270 C.3       1 NAD1517     0.0000 
      7 O4B       -13.5930   -4.7150   19.0370 O.3       1 NAD1517     0.0000 
      8 C3B       -15.8540   -4.0450   19.0930 C.3       1 NAD1517     0.0000 
      9 O3B       -16.3120   -3.8010   17.8120 O.3       1 NAD1517     0.0000 
     10 C2B       -15.7430   -5.4940   19.3570 C.3       1 NAD1517     0.0000 
     11 O2B       -16.7690   -6.2350   18.8000 O.3       1 NAD1517     0.0000 
     12 C1B       -14.4600   -5.7770   18.6650 C.3       1 NAD1517     0.0000 
     13 N9A       -13.7770   -7.0200   18.9890 N.pl3     1 NAD1517     0.0000 
     14 C8A       -13.6920   -7.6850   20.2000 C.2       1 NAD1517     0.0000 
     15 N7A       -12.9200   -8.7800   20.0710 N.2       1 NAD1517     0.0000 
     16 C5A       -12.4470   -8.8510   18.7560 C.ar      1 NAD1517     0.0000 
     17 C6A       -11.6330   -9.7060   18.0430 C.ar      1 NAD1517     0.0000 
     18 N6A       -11.0300  -10.8540   18.6490 N.pl3     1 NAD1517     0.0000 
     19 N1A       -11.3730   -9.4600   16.7440 N.ar      1 NAD1517     0.0000 
     20 C2A       -11.8930   -8.4000   16.0980 C.ar      1 NAD1517     0.0000 
     21 N3A       -12.7070   -7.5340   16.7580 N.ar      1 NAD1517     0.0000 
     22 C4A       -12.9800   -7.7340   18.0630 C.ar      1 NAD1517     0.0000 
     23 O3        -13.9210   -2.2670   23.5580 O.3       1 NAD1517     0.0000 
     24 PN        -15.2360   -1.3630   23.5210 P.3       1 NAD1517     0.0000 
     25 O1N       -16.2750   -1.8690   24.4640 O.co2     1 NAD1517     0.0000 
     26 O2N       -15.9550   -1.4660   22.2180 O.co2     1 NAD1517     0.0000 
     27 O5D       -14.8630    0.1580   23.8400 O.3       1 NAD1517     0.0000 
     28 C5D       -14.3360    0.5070   25.1000 C.3       1 NAD1517     0.0000 
     29 C4D       -12.8290    0.6520   25.0270 C.3       1 NAD1517     0.0000 
     30 O4D       -12.4400    1.3140   23.8420 O.3       1 NAD1517     0.0000 
     31 C3D       -12.2820    1.4080   26.1880 C.3       1 NAD1517     0.0000 
     32 O3D       -11.1090    0.8650   26.6670 O.3       1 NAD1517     0.0000 
     33 C2D       -12.0550    2.7420   25.6050 C.3       1 NAD1517     0.0000 
     34 O2D       -11.1150    3.4520   26.3080 O.3       1 NAD1517     0.0000 
     35 C1D       -11.6160    2.3950   24.2250 C.3       1 NAD1517     0.0000 
     36 N1N       -11.7000    3.5400   23.3200 N.pl3     1 NAD1517     0.0000 
     37 C2N       -10.5270    4.2620   22.9750 C.ar      1 NAD1517     0.0000 
     38 C3N       -10.6090    5.3630   22.1100 C.ar      1 NAD1517     0.0000 
     39 C7N        -9.3530    6.1310   21.7430 C.2       1 NAD1517     0.0000 
     40 O7N        -9.4000    6.9860   20.8700 O.2       1 NAD1517     0.0000 
     41 N7N        -8.1120    5.8650   22.4100 N.am      1 NAD1517     0.0000 
     42 C4N       -11.8620    5.7520   21.5850 C.ar      1 NAD1517     0.0000 
     43 C5N       -13.0300    5.0320   21.9270 C.ar      1 NAD1517     0.0000 
     44 C6N       -12.9500    3.9320   22.7910 C.ar      1 NAD1517     0.0000 
     45 H         -13.0310   -2.7854   20.6023 H         1 NAD1517     0.0000 
     46 H         -14.6050   -1.9716   20.5839 H         1 NAD1517     0.0000 
     47 H         -14.2344   -2.8550   18.4374 H         1 NAD1517     0.0000 
     48 H         -16.4190   -3.5919   19.8646 H         1 NAD1517     0.0000 
     49 H         -15.5900   -5.6408   20.3981 H         1 NAD1517     0.0000 
     50 H         -14.6257   -5.7115   17.5850 H         1 NAD1517     0.0000 
     51 H         -14.1327   -7.3877   21.0114 H         1 NAD1517     0.0000 
     52 H         -10.4542  -11.4144   18.0537 H         1 NAD1517     0.0000 
     53 H         -11.2351  -10.9994   19.6169 H         1 NAD1517     0.0000 
     54 H         -11.6756   -8.2378   15.0930 H         1 NAD1517     0.0000 
     55 H         -14.5622   -0.2540   25.8662 H         1 NAD1517     0.0000 
     56 H         -14.7466    1.4627   25.4679 H         1 NAD1517     0.0000 
     57 H         -12.3963   -0.3567   25.0504 H         1 NAD1517     0.0000 
     58 H         -13.0609    1.4937   26.9214 H         1 NAD1517     0.0000 
     59 H         -13.0135    3.2309   25.5261 H         1 NAD1517     0.0000 
     60 H         -10.5767    2.0550   24.2990 H         1 NAD1517     0.0000 
     61 H          -9.6262    3.9732   23.3612 H         1 NAD1517     0.0000 
     62 H          -7.3222    6.3923   22.0967 H         1 NAD1517     0.0000 
     63 H          -8.1401    5.1745   23.1327 H         1 NAD1517     0.0000 
     64 H         -11.9246    6.5553   20.9568 H         1 NAD1517     0.0000 
     65 H         -13.9327    5.3195   21.5397 H         1 NAD1517     0.0000 
     66 H         -13.7927    3.4099   23.0417 H         1 NAD1517     0.0000 
     67 H         -16.3067   -2.8052   17.7207 H         1 NAD1517     0.0000 
     68 H         -17.1159   -5.6730   18.0491 H         1 NAD1517     0.0000 
     69 H         -11.0185    1.2234   27.5962 H         1 NAD1517     0.0000 
     70 H         -11.3252    3.2776   27.2700 H         1 NAD1517     0.0000 
@<TRIPOS>BOND
     1    2    1 ar   
     2    3    1 ar   
     3    4    1 1    
     4   23    1 1    
     5    5    4 1    
     6    6    5 1    
     7   45    5 1    
     8   46    5 1    
     9    7    6 1    
    10    8    6 1    
    11   47    6 1    
    12   12    7 1    
    13    9    8 1    
    14   10    8 1    
    15   48    8 1    
    16   67    9 1    
    17   11   10 1    
    18   12   10 1    
    19   49   10 1    
    20   68   11 1    
    21   13   12 1    
    22   50   12 1    
    23   14   13 1    
    24   22   13 1    
    25   15   14 2    
    26   51   14 1    
    27   16   15 1    
    28   17   16 ar   
    29   22   16 ar   
    30   18   17 1    
    31   19   17 ar   
    32   52   18 1    
    33   53   18 1    
    34   20   19 ar   
    35   21   20 ar   
    36   54   20 1    
    37   22   21 ar   
    38   24   23 1    
    39   25   24 ar   
    40   26   24 ar   
    41   27   24 1    
    42   28   27 1    
    43   29   28 1    
    44   55   28 1    
    45   56   28 1    
    46   30   29 1    
    47   31   29 1    
    48   57   29 1    
    49   35   30 1    
    50   32   31 1    
    51   33   31 1    
    52   58   31 1    
    53   69   32 1    
    54   34   33 1    
    55   35   33 1    
    56   59   33 1    
    57   70   34 1    
    58   36   35 1    
    59   60   35 1    
    60   37   36 ar   
    61   44   36 ar   
    62   38   37 ar   
    63   61   37 1    
    64   39   38 1    
    65   42   38 ar   
    66   40   39 2    
    67   41   39 am   
    68   62   41 1    
    69   63   41 1    
    70   43   42 ar   
    71   64   42 1    
    72   44   43 ar   
    73   65   43 1    
    74   66   44 1    
@<TRIPOS>SUBSTRUCTURE
     1 NAD1517     1 GROUP   
@<TRIPOS>SET

