#    Name: 3rm7_19Z_1_INTS_M
#    Modification time : Tue Mar 25 11:41:30 2014

@<TRIPOS>MOLECULE
3rm7_19Z_1_INTS_M
   45     0     9     0     0
SMALL
NO_CHARGES


@<TRIPOS>ATOM
      1 O         -63.0195  -46.9695  -49.1735 O.2       1 ALC1        0.0000 
      2 O         -63.9220  -46.1280  -48.2900 O.2       7 ALL1        0.0000 
      3 O         -62.1170  -47.8110  -50.0570 O.2       4 ALP1        0.0000 
      4 O         -66.7970  -46.4730  -52.6385 O.2       1 ALC1        0.0000 
      5 O         -66.8050  -45.8720  -51.2240 O.2       7 ALL1        0.0000 
      6 O         -66.7890  -47.0740  -54.0530 O.2       4 ALP1        0.0000 
      7 CA        -66.6285  -47.7400  -47.9925 C.3       3 GLC5        0.0000 
      8 CA        -66.1940  -45.7450  -48.9240 C.3       9 GLL5        0.0000 
      9 CA        -67.0630  -49.7350  -47.0610 C.3       6 GLP5        0.0000 
     10 CA        -64.2135  -43.6840  -47.8790 C.3       3 GLC5        0.0000 
     11 CA        -65.3480  -45.0120  -46.7030 C.3       9 GLL5        0.0000 
     12 CA        -63.0790  -42.3560  -49.0550 C.3       6 GLP5        0.0000 
     13 CA        -62.8820  -44.1425  -48.2625 C.3       3 GLC5        0.0000 
     14 CA        -62.6850  -45.9290  -47.4700 C.3       9 GLL5        0.0000 
     15 CA        -61.0590  -48.5840  -48.1805 C.3       3 GLC5        0.0000 
     16 CA        -62.5370  -48.3710  -46.7610 C.3       9 GLL5        0.0000 
     17 CA        -59.5810  -48.7970  -49.6000 C.3       6 GLP5        0.0000 
     18 N         -64.2310  -47.5870  -51.4075 N.am      2 SEC2        0.0000 
     19 N         -65.2470  -47.2220  -50.3610 N.am      8 SEL2        0.0000 
     20 N         -63.2150  -47.9520  -52.4540 N.am      5 SEP2        0.0000 
     21 N         -71.0380  -43.5265  -47.2370 N.am      2 SEC2        0.0000 
     22 N         -69.8730  -44.2150  -47.8860 N.am      8 SEL2        0.0000 
     23 N         -72.2030  -42.8380  -46.5880 N.am      5 SEP2        0.0000 
     24 N         -70.6445  -43.1910  -46.2200 N.am      2 SEC2        0.0000 
     25 N         -69.0860  -43.5440  -45.8520 N.am      8 SEL2        0.0000 
     26 CA        -68.8713  -46.1683  -47.1202 C.3       3 GLC5        0.0000 
     27 CA        -67.7050  -44.5920  -47.3100 C.3       9 GLL5        0.0000 
     28 CA        -70.1530  -47.4320  -46.2990 C.3       6 GLP5        0.0000 
     29 CA        -67.8315  -46.9690  -49.6437 C.3       3 GLC5        0.0000 
     30 CA        -67.4740  -45.2170  -48.5730 C.3       9 GLL5        0.0000 
     31 CA        -68.8290  -48.4570  -50.5390 C.3       6 GLP5        0.0000 
     32 CA        -65.6333  -46.6275  -46.1328 C.3       3 GLC5        0.0000 
     33 CA        -65.1030  -45.6480  -47.9800 C.3       9 GLL5        0.0000 
     34 CA        -66.0410  -47.9250  -44.9240 C.3       6 GLP5        0.0000 
     35 CA        -65.1937  -44.4603  -49.6471 C.3       3 GLC5        0.0000 
     36 CA        -64.4190  -43.3560  -50.9300 C.3       6 GLP5        0.0000 
     37 CA        -66.6040  -46.2342  -45.8843 C.3       3 GLC5        0.0000 
     38 CA        -60.6685  -46.0547  -47.2955 C.3       3 GLC5        0.0000 
     39 CA        -62.5850  -46.9900  -46.4040 C.3       9 GLL5        0.0000 
     40 CA        -58.7020  -45.6500  -47.6540 C.3       6 GLP5        0.0000 
     41 CA        -64.3010  -47.8027  -45.7533 C.3       3 GLC5        0.0000 
     42 CA        -64.2387  -48.5487  -44.9937 C.3       3 GLC5        0.0000 
     43 CA        -62.4540  -49.3640  -45.7480 C.3       9 GLL5        0.0000 
     44 CA        -64.2740  -47.5147  -44.7248 C.3       3 GLC5        0.0000 
     45 CA        -62.4660  -47.6010  -44.0200 C.3       9 GLL5        0.0000 
@<TRIPOS>BOND
@<TRIPOS>SUBSTRUCTURE
     1 ALC1        1 GROUP        1 X    ALC  0     ROOT ALC X 1
     2 SEC2       18 GROUP        1 X    SEC  0     **** SEC X 2
     3 GLC5        7 GROUP        1 X    GLC  0     **** GLC X 6
     4 ALP1        3 GROUP        1 Y    ALP  0     ROOT ALP Y 8
     5 SEP2       20 GROUP        1 Y    SEP  0     **** SEP Y 9
     6 GLP5        9 GROUP        1 Y    GLP  0     **** GLP Y 13
     7 ALL1        2 GROUP        1 Z    ALL  0     ROOT ALL Z 15
     8 SEL2       19 GROUP        1 Z    SEL  0     **** SEL Z 16
     9 GLL5        8 GROUP        1 Z    GLL  0     **** GLL Z 20
@<TRIPOS>SET

