#    Name: 3rm7_19Z_1_ligand
#    Modification time : Tue Mar 25 11:41:31 2014

@<TRIPOS>MOLECULE
3rm7_19Z_1_ligand
   34    35     1     0     0
SMALL
NO_CHARGES


@<TRIPOS>ATOM
      1 N01       -63.9220  -46.1280  -48.2900 N.pl3     1 19Z654      0.0000 
      2 N02       -66.8050  -45.8720  -51.2240 N.am      1 19Z654      0.0000 
      3 N03       -68.8660  -44.1250  -47.0200 N.pl3     1 19Z654      0.0000 
      4 C04       -67.4740  -45.2170  -48.5730 C.ar      1 19Z654      0.0000 
      5 C05       -66.1940  -45.7450  -48.9240 C.ar      1 19Z654      0.0000 
      6 C06       -65.1030  -45.6480  -47.9800 C.ar      1 19Z654      0.0000 
      7 C07       -65.3480  -45.0120  -46.7030 C.ar      1 19Z654      0.0000 
      8 C08       -66.6290  -44.4950  -46.3790 C.ar      1 19Z654      0.0000 
      9 C09       -67.7050  -44.5920  -47.3100 C.ar      1 19Z654      0.0000 
     10 C10       -66.0440  -46.3280  -50.1700 C.2       1 19Z654      0.0000 
     11 C11       -62.6850  -45.9290  -47.4700 C.3       1 19Z654      0.0000 
     12 C12       -62.5850  -46.9900  -46.4040 C.ar      1 19Z654      0.0000 
     13 C13       -62.5370  -48.3710  -46.7610 C.ar      1 19Z654      0.0000 
     14 C14       -62.4540  -49.3640  -45.7480 C.ar      1 19Z654      0.0000 
     15 C15       -62.4190  -48.9810  -44.3790 C.ar      1 19Z654      0.0000 
     16 C16       -62.4660  -47.6010  -44.0200 C.ar      1 19Z654      0.0000 
     17 C17       -62.5480  -46.6080  -45.0310 C.ar      1 19Z654      0.0000 
     18 O18       -65.2470  -47.2220  -50.3610 O.2       1 19Z654      0.0000 
     19 O19       -62.3430  -49.9270  -43.4180 O.3       1 19Z654      0.0000 
     20 O20       -69.8730  -44.2150  -47.8860 O.2       1 19Z654      0.0000 
     21 O21       -69.0860  -43.5440  -45.8520 O.2       1 19Z654      0.0000 
     22 H         -63.7556  -46.7038  -49.1625 H         1 19Z654      0.0000 
     23 H         -67.4285  -45.1167  -51.0222 H         1 19Z654      0.0000 
     24 H         -66.6676  -46.3360  -52.0991 H         1 19Z654      0.0000 
     25 H         -68.2471  -45.2887  -49.2457 H         1 19Z654      0.0000 
     26 H         -64.5799  -44.9404  -46.0341 H         1 19Z654      0.0000 
     27 H         -66.7849  -44.0496  -45.4735 H         1 19Z654      0.0000 
     28 H         -62.7103  -44.9440  -46.9980 H         1 19Z654      0.0000 
     29 H         -61.8039  -45.9798  -48.1140 H         1 19Z654      0.0000 
     30 H         -62.5624  -48.6415  -47.7411 H         1 19Z654      0.0000 
     31 H         -62.4196  -50.3490  -46.0017 H         1 19Z654      0.0000 
     32 H         -62.4406  -47.3321  -43.0394 H         1 19Z654      0.0000 
     33 H         -62.5805  -45.6227  -44.7785 H         1 19Z654      0.0000 
     34 H         -61.3992  -50.2556  -43.4525 H         1 19Z654      0.0000 
@<TRIPOS>BOND
     1    6    1 1    
     2   11    1 1    
     3   22    1 1    
     4   10    2 am   
     5   23    2 1    
     6   24    2 1    
     7    9    3 1    
     8   20    3 2    
     9   21    3 2    
    10    5    4 ar   
    11    9    4 ar   
    12   25    4 1    
    13    6    5 ar   
    14   10    5 1    
    15    7    6 ar   
    16    8    7 ar   
    17   26    7 1    
    18    9    8 ar   
    19   27    8 1    
    20   18   10 2    
    21   12   11 1    
    22   28   11 1    
    23   29   11 1    
    24   13   12 ar   
    25   17   12 ar   
    26   14   13 ar   
    27   30   13 1    
    28   15   14 ar   
    29   31   14 1    
    30   16   15 ar   
    31   19   15 1    
    32   17   16 ar   
    33   32   16 1    
    34   33   17 1    
    35   34   19 1    
@<TRIPOS>SUBSTRUCTURE
     1 19Z654      1 GROUP   
@<TRIPOS>SET

