#    Name: 2jhr_PBQ_1_INTS_M
#    Modification time : Tue Mar 25 20:47:54 2014

@<TRIPOS>MOLECULE
2jhr_PBQ_1_INTS_M
   37     0     6     0     0
SMALL
NO_CHARGES


@<TRIPOS>ATOM
      1 CA         22.2320   48.5100   29.7355 C.3       2 GLC5        0.0000 
      2 CA         23.4360   49.6030   28.2370 C.3       6 GLL5        0.0000 
      3 CA         21.0280   47.4170   31.2340 C.3       4 GLP5        0.0000 
      4 N          21.3905   48.9670   29.7545 N.am      1 SEC2        0.0000 
      5 N          22.5730   49.7830   29.2710 N.am      5 SEL2        0.0000 
      6 N          20.2080   48.1510   30.2380 N.am      3 SEP2        0.0000 
      7 CA         22.9745   47.5610   31.4820 C.3       2 GLC5        0.0000 
      8 CA         24.9210   47.7050   31.7300 C.3       6 GLL5        0.0000 
      9 CA         27.1245   47.2160   23.8520 C.3       2 GLC5        0.0000 
     10 CA         26.3890   48.8020   24.6500 C.3       6 GLL5        0.0000 
     11 CA         27.8600   45.6300   23.0540 C.3       4 GLP5        0.0000 
     12 CA         21.3560   51.3100   27.2185 C.3       2 GLC5        0.0000 
     13 CA         21.1810   50.0480   26.5170 C.3       6 GLL5        0.0000 
     14 CA         21.5310   52.5720   27.9200 C.3       4 GLP5        0.0000 
     15 CA         20.7875   50.8125   24.7220 C.3       2 GLC5        0.0000 
     16 CA         20.3940   51.5770   22.9270 C.3       4 GLP5        0.0000 
     17 CA         29.2330   48.9775   30.8050 C.3       2 GLC5        0.0000 
     18 CA         28.1250   48.8520   29.4610 C.3       6 GLL5        0.0000 
     19 CA         30.3410   49.1030   32.1490 C.3       4 GLP5        0.0000 
     20 CA         29.9365   49.9275   29.1645 C.3       2 GLC5        0.0000 
     21 CA         31.7480   51.0030   28.8680 C.3       4 GLP5        0.0000 
     22 CA         28.8560   47.2690   33.3020 C.3       2 GLC5        0.0000 
     23 CA         27.6340   47.0500   32.5910 C.3       6 GLL5        0.0000 
     24 CA         30.0780   47.4880   34.0130 C.3       4 GLP5        0.0000 
     25 CA         22.4620   47.4375   32.8755 C.3       2 GLC5        0.0000 
     26 CA         23.9990   46.8610   33.1290 C.3       6 GLL5        0.0000 
     27 CA         20.9250   48.0140   32.6220 C.3       4 GLP5        0.0000 
     28 CA         23.9695   48.8220   33.4860 C.3       2 GLC5        0.0000 
     29 CA         23.9400   50.7830   33.8430 C.3       4 GLP5        0.0000 
     30 CA         25.8083   50.8907   29.5793 C.3       2 GLC5        0.0000 
     31 CA         24.7920   49.3320   28.4700 C.3       6 GLL5        0.0000 
     32 CA         26.6070   52.6690   30.0130 C.3       4 GLP5        0.0000 
     33 CA         22.5362   51.0553   27.3110 C.3       2 GLC5        0.0000 
     34 CA         24.7713   49.2668   32.7308 C.3       2 GLC5        0.0000 
     35 CA         28.3600   48.6320   31.5275 C.3       2 GLC5        0.0000 
     36 CA         26.2840   47.7960   31.5070 C.3       6 GLL5        0.0000 
     37 CA         26.9533   50.6790   29.9480 C.3       2 GLC5        0.0000 
@<TRIPOS>BOND
@<TRIPOS>SUBSTRUCTURE
     1 SEC2        4 GROUP        1 X    SEC  0     ROOT SEC X 2
     2 GLC5        1 GROUP        1 X    GLC  0     **** GLC X 6
     3 SEP2        6 GROUP        1 Y    SEP  0     ROOT SEP Y 9
     4 GLP5        3 GROUP        1 Y    GLP  0     **** GLP Y 13
     5 SEL2        5 GROUP        1 Z    SEL  0     ROOT SEL Z 16
     6 GLL5        2 GROUP        1 Z    GLL  0     **** GLL Z 20
@<TRIPOS>SET

