#    Name: 2jhr_PBQ_1_ligand
#    Modification time : Tue Mar 25 20:47:54 2014

@<TRIPOS>MOLECULE
2jhr_PBQ_1_ligand
   21    22     1     0     0
SMALL
NO_CHARGES


@<TRIPOS>ATOM
      1 CH         22.9960   49.6670   26.9030 C.ar      1 PBQ1780     0.0000 
      2 CG         24.7920   49.3320   28.4700 C.ar      1 PBQ1780     0.0000 
      3 CD1        25.2270   48.8930   29.8210 C.2       1 PBQ1780     0.0000 
      4 CD2        25.6620   49.0720   27.4040 C.ar      1 PBQ1780     0.0000 
      5 CE2        25.2010   49.1330   26.0840 C.ar      1 PBQ1780     0.0000 
      6 CR         23.4360   49.6030   28.2370 C.ar      1 PBQ1780     0.0000 
      7 O          22.5730   49.7830   29.2710 O.3       1 PBQ1780     0.0000 
      8 C3         23.8670   49.4420   25.8340 C.ar      1 PBQ1780     0.0000 
      9 C7         24.9210   47.7050   31.7300 C.2       1 PBQ1780     0.0000 
     10 C8         26.2840   47.7960   31.5070 C.2       1 PBQ1780     0.0000 
     11 C9         26.4740   48.5260   30.3050 C.2       1 PBQ1780     0.0000 
     12 N11        24.3110   48.3570   30.6930 N.pl3     1 PBQ1780     0.0000 
     13 BR13       26.3890   48.8020   24.6500 Br        1 PBQ1780     0.0000 
     14 BR14       21.1810   50.0480   26.5170 Br        1 PBQ1780     0.0000 
     15 BR17       28.1250   48.8520   29.4610 Br        1 PBQ1780     0.0000 
     16 BR18       27.6340   47.0500   32.5910 Br        1 PBQ1780     0.0000 
     17 BR19       23.9990   46.8610   33.1290 Br        1 PBQ1780     0.0000 
     18 H          26.6441   48.8352   27.5923 H         1 PBQ1780     0.0000 
     19 H          23.5229   49.5048   24.8705 H         1 PBQ1780     0.0000 
     20 H          23.3414   48.4336   30.5836 H         1 PBQ1780     0.0000 
     21 H          23.1547   49.9054   30.0752 H         1 PBQ1780     0.0000 
@<TRIPOS>BOND
     1    6    1 ar   
     2    8    1 ar   
     3   14    1 1    
     4    3    2 1    
     5    4    2 ar   
     6    6    2 ar   
     7   11    3 2    
     8   12    3 1    
     9    5    4 ar   
    10   18    4 1    
    11    8    5 ar   
    12   13    5 1    
    13    7    6 1    
    14   21    7 1    
    15   19    8 1    
    16   10    9 2    
    17   12    9 1    
    18   17    9 1    
    19   11   10 1    
    20   16   10 1    
    21   15   11 1    
    22   20   12 1    
@<TRIPOS>SUBSTRUCTURE
     1 PBQ1780     1 GROUP   
@<TRIPOS>SET

