#    Name: 2wuz_TPF_2_INTS_M
#    Modification time : Tue Mar 25 04:42:24 2014

@<TRIPOS>MOLECULE
2wuz_TPF_2_INTS_M
   25     0     3     0     0
SMALL
NO_CHARGES


@<TRIPOS>ATOM
      1 CA         -0.5215   -6.0165    6.1370 C.3       1 GLC5        0.0000 
      2 CA         -1.9860   -5.0980    7.0530 C.3       3 GLL5        0.0000 
      3 CA          0.9430   -6.9350    5.2210 C.3       2 GLP5        0.0000 
      4 CA         -2.2060   -5.5530    4.8900 C.3       1 GLC5        0.0000 
      5 CA         -2.4260   -6.0080    2.7270 C.3       2 GLP5        0.0000 
      6 CA         -1.5780   -6.5165    8.2755 C.3       1 GLC5        0.0000 
      7 CA         -1.1700   -7.9350    9.4980 C.3       2 GLP5        0.0000 
      8 CA          0.4130   -2.8110    2.9665 C.3       1 GLC5        0.0000 
      9 CA          0.2540   -1.8670    4.1510 C.3       3 GLL5        0.0000 
     10 CA          0.5720   -3.7550    1.7820 C.3       2 GLP5        0.0000 
     11 CA         -0.4965   -6.1015    8.5990 C.3       1 GLC5        0.0000 
     12 CA          0.1770   -4.2680    7.7000 C.3       3 GLL5        0.0000 
     13 CA          2.3090   -1.4640    9.0400 C.3       1 GLC5        0.0000 
     14 CA          2.8130   -0.7400    6.9920 C.3       3 GLL5        0.0000 
     15 CA          1.8050   -2.1880   11.0880 C.3       2 GLP5        0.0000 
     16 CA          2.4845    1.0505    6.4305 C.3       1 GLC5        0.0000 
     17 CA          2.1560    2.8410    5.8690 C.3       2 GLP5        0.0000 
     18 CA          4.2740   -4.3510    5.4850 C.3       1 GLC5        0.0000 
     19 CA          3.6770   -2.7290    5.6510 C.3       3 GLL5        0.0000 
     20 CA          4.8710   -5.9730    5.3190 C.3       2 GLP5        0.0000 
     21 CA          4.9575   -3.6340    6.9695 C.3       1 GLC5        0.0000 
     22 CA          6.2380   -4.5390    8.2880 C.3       2 GLP5        0.0000 
     23 CA          0.5413   -3.0780    9.1750 C.3       1 GLC5        0.0000 
     24 CA          1.3100   -3.5060    7.4400 C.3       3 GLL5        0.0000 
     25 CA          0.3390   -2.2690   10.7800 C.3       2 GLP5        0.0000 
@<TRIPOS>BOND
@<TRIPOS>SUBSTRUCTURE
     1 GLC5        1 GROUP        1 X    GLC  0     ROOT GLC X 6
     2 GLP5        3 GROUP        1 Y    GLP  0     ROOT GLP Y 13
     3 GLL5        2 GROUP        1 Z    GLL  0     ROOT GLL Z 20
@<TRIPOS>SET

