#    Name: 2wuz_TPF_2_ligand
#    Modification time : Tue Mar 25 04:42:24 2014

@<TRIPOS>MOLECULE
2wuz_TPF_2_ligand
   34    36     1     0     0
SMALL
NO_CHARGES


@<TRIPOS>ATOM
      1 F1         -1.9860   -5.0980    7.0530 F         1 TPF1460     0.0000 
      2 C11        -0.9100   -4.2690    6.8010 C.ar      1 TPF1460     0.0000 
      3 C12        -0.9190   -3.4720    5.6380 C.ar      1 TPF1460     0.0000 
      4 C13         0.1960   -2.6850    5.3040 C.ar      1 TPF1460     0.0000 
      5 F2          0.2540   -1.8670    4.1510 F         1 TPF1460     0.0000 
      6 C10         0.1770   -4.2680    7.7000 C.ar      1 TPF1460     0.0000 
      7 C9          1.3100   -3.5060    7.4400 C.ar      1 TPF1460     0.0000 
      8 C8          1.3350   -2.7240    6.2760 C.ar      1 TPF1460     0.0000 
      9 C1          2.4960   -1.8360    5.9880 C.3       1 TPF1460     0.0000 
     10 O           2.1690   -0.9210    4.9340 O.3       1 TPF1460     0.0000 
     11 C2          2.8130   -0.7400    6.9920 C.3       1 TPF1460     0.0000 
     12 N1          1.6600   -0.1220    7.6360 N.pl3     1 TPF1460     0.0000 
     13 N3          1.9870    0.3580    8.9040 N.2       1 TPF1460     0.0000 
     14 C4          0.8360    0.8850    9.3720 C.2       1 TPF1460     0.0000 
     15 N2         -0.1500    0.7130    8.4720 N.2       1 TPF1460     0.0000 
     16 C3          0.3730    0.0710    7.3750 C.2       1 TPF1460     0.0000 
     17 C5          3.6770   -2.7290    5.6510 C.3       1 TPF1460     0.0000 
     18 N4          4.5930   -1.9020    4.8880 N.pl3     1 TPF1460     0.0000 
     19 N6          5.9210   -2.0040    5.3180 N.2       1 TPF1460     0.0000 
     20 C7          6.5410   -1.1100    4.5350 C.2       1 TPF1460     0.0000 
     21 N5          5.6410   -0.5110    3.6970 N.2       1 TPF1460     0.0000 
     22 C6          4.4050   -0.9980    3.9200 C.2       1 TPF1460     0.0000 
     23 H          -1.7473   -3.4681    5.0322 H         1 TPF1460     0.0000 
     24 H           0.1219   -4.8400    8.5541 H         1 TPF1460     0.0000 
     25 H           2.1031   -3.5114    8.0735 H         1 TPF1460     0.0000 
     26 H           3.4241    0.0364    6.4678 H         1 TPF1460     0.0000 
     27 H           3.4998   -1.1713    7.7623 H         1 TPF1460     0.0000 
     28 H           0.7353    1.3263   10.2376 H         1 TPF1460     0.0000 
     29 H          -0.1154   -0.1744    6.5959 H         1 TPF1460     0.0000 
     30 H           3.3232   -3.5657    5.0699 H         1 TPF1460     0.0000 
     31 H           4.1258   -3.0704    6.5701 H         1 TPF1460     0.0000 
     32 H           7.4946   -0.9051    4.5489 H         1 TPF1460     0.0000 
     33 H           3.6048   -0.7562    3.4937 H         1 TPF1460     0.0000 
     34 H           2.6313   -1.6430    4.4191 H         1 TPF1460     0.0000 
@<TRIPOS>BOND
     1    2    1 1    
     2    3    2 ar   
     3    6    2 ar   
     4    4    3 ar   
     5   23    3 1    
     6    5    4 1    
     7    8    4 ar   
     8    7    6 ar   
     9   24    6 1    
    10    8    7 ar   
    11   25    7 1    
    12    9    8 1    
    13   10    9 1    
    14   11    9 1    
    15   17    9 1    
    16   34   10 1    
    17   12   11 1    
    18   26   11 1    
    19   27   11 1    
    20   13   12 1    
    21   16   12 1    
    22   14   13 2    
    23   15   14 1    
    24   28   14 1    
    25   16   15 2    
    26   29   16 1    
    27   18   17 1    
    28   30   17 1    
    29   31   17 1    
    30   19   18 1    
    31   22   18 1    
    32   20   19 2    
    33   21   20 1    
    34   32   20 1    
    35   22   21 2    
    36   33   22 1    
@<TRIPOS>SUBSTRUCTURE
     1 TPF1460     1 GROUP   
@<TRIPOS>SET

