#    Name: 1lf2_R37_1_INTS_M
#    Modification time : Mon Apr  7 14:00:04 2014

@<TRIPOS>MOLECULE
1lf2_R37_1_INTS_M
   88     0     9     0     0
SMALL
NO_CHARGES


@<TRIPOS>ATOM
      1 CA         38.5715   29.6555   10.1530 C.3       3 GLC5        0.0000 
      2 CA         36.7600   29.5670    9.2490 C.3       9 GLL5        0.0000 
      3 CA         40.3830   29.7440   11.0570 C.3       6 GLP5        0.0000 
      4 CA         37.6370   26.7300    9.1335 C.3       3 GLC5        0.0000 
      5 CA         36.4420   28.3600    8.6640 C.3       9 GLL5        0.0000 
      6 CA         38.8320   25.1000    9.6030 C.3       6 GLP5        0.0000 
      7 CA         34.9365   33.3285    9.8715 C.3       3 GLC5        0.0000 
      8 CA         36.1130   31.6830   10.4710 C.3       9 GLL5        0.0000 
      9 CA         33.7600   34.9740    9.2720 C.3       6 GLP5        0.0000 
     10 CA         38.0425   32.7410   10.3195 C.3       3 GLC5        0.0000 
     11 CA         39.9720   33.7990   10.1680 C.3       6 GLP5        0.0000 
     12 CA         37.3010   31.9470   12.1245 C.3       3 GLC5        0.0000 
     13 CA         38.4890   32.2110   13.7780 C.3       6 GLP5        0.0000 
     14 CA         29.5310   37.0290   17.5045 C.3       3 GLC5        0.0000 
     15 CA         30.2110   38.8700   16.6540 C.3       9 GLL5        0.0000 
     16 CA         28.8510   35.1880   18.3550 C.3       6 GLP5        0.0000 
     17 CA         30.6025   38.6010   18.5660 C.3       3 GLC5        0.0000 
     18 CA         30.9940   38.3320   20.4780 C.3       6 GLP5        0.0000 
     19 O          28.4735   40.4405   18.3335 O.2       1 ALC1        0.0000 
     20 O          28.5020   40.7120   16.9060 O.2       7 ALL1        0.0000 
     21 O          28.4450   40.1690   19.7610 O.2       4 ALP1        0.0000 
     22 CA         33.1890   33.1990    9.5555 C.3       3 GLC5        0.0000 
     23 CA         32.6180   31.4240    9.8390 C.3       9 GLL5        0.0000 
     24 CA         31.2290   32.3120    8.6075 C.3       3 GLC5        0.0000 
     25 CA         29.8400   33.2000    7.3760 C.3       6 GLP5        0.0000 
     26 N          31.2300   34.3595    8.9470 N.am      2 SEC2        0.0000 
     27 N          31.3740   33.4380   10.3640 N.am      8 SEL2        0.0000 
     28 N          31.0860   35.2810    7.5300 N.am      5 SEP2        0.0000 
     29 N          31.0995   32.8430    9.0190 N.am      2 SEC2        0.0000 
     30 N          30.8250   32.2480    7.6740 N.am      5 SEP2        0.0000 
     31 N          32.2930   30.7235   16.1190 N.am      2 SEC2        0.0000 
     32 N          31.7720   31.5180   14.9670 N.am      8 SEL2        0.0000 
     33 N          32.8140   29.9290   17.2710 N.am      5 SEP2        0.0000 
     34 O          32.9425   31.2360   15.4095 O.2       1 ALC1        0.0000 
     35 O          31.7720   31.5180   14.9670 O.2       7 ALL1        0.0000 
     36 O          34.1130   30.9540   15.8520 O.2       4 ALP1        0.0000 
     37 CA         35.0765   36.0985   11.4730 C.3       3 GLC5        0.0000 
     38 CA         35.7850   34.9700   12.8550 C.3       9 GLL5        0.0000 
     39 CA         34.3680   37.2270   10.0910 C.3       6 GLP5        0.0000 
     40 CA         35.6580   36.8570   16.5455 C.3       3 GLC5        0.0000 
     41 CA         36.4740   36.0300   14.9950 C.3       9 GLL5        0.0000 
     42 CA         34.8420   37.6840   18.0960 C.3       6 GLP5        0.0000 
     43 CA         37.8945   35.4915   16.5940 C.3       3 GLC5        0.0000 
     44 CA         39.3150   34.9530   18.1930 C.3       6 GLP5        0.0000 
     45 CA         38.2175   36.4320   14.8270 C.3       3 GLC5        0.0000 
     46 CA         39.9610   36.8340   14.6590 C.3       6 GLP5        0.0000 
     47 O          31.5010   35.2765   15.8275 O.2       1 ALC1        0.0000 
     48 O          31.6080   35.6450   14.3040 O.2       7 ALL1        0.0000 
     49 O          31.3940   34.9080   17.3510 O.2       4 ALP1        0.0000 
     50 N          31.3930   36.9830   10.9410 N.am      2 SEC2        0.0000 
     51 N          31.3480   36.9550   12.4870 N.am      8 SEL2        0.0000 
     52 N          31.4380   37.0110    9.3950 N.am      5 SEP2        0.0000 
     53 CA         27.9065   28.9250   12.7240 C.3       3 GLC5        0.0000 
     54 CA         29.0460   30.0930   11.2140 C.3       9 GLL5        0.0000 
     55 CA         26.7670   27.7570   14.2340 C.3       6 GLP5        0.0000 
     56 CA         38.2230   29.2858    7.9238 C.3       3 GLC5        0.0000 
     57 CA         39.8450   29.6080    6.8910 C.3       6 GLP5        0.0000 
     58 CA         36.2725   28.1140   10.6283 C.3       3 GLC5        0.0000 
     59 CA         36.7530   28.1010   12.5670 C.3       6 GLP5        0.0000 
     60 CA         36.4719   29.4570   11.2945 C.3       3 GLC5        0.0000 
     61 CA         35.7770   30.3190    9.8970 C.3       9 GLL5        0.0000 
     62 CA         33.9156   28.1279   11.3133 C.3       3 GLC5        0.0000 
     63 CA         34.1440   28.6370    9.3600 C.3       9 GLL5        0.0000 
     64 CA         34.3250   27.5700   13.0970 C.3       6 GLP5        0.0000 
     65 CA         29.3865   36.4748   16.1007 C.3       3 GLC5        0.0000 
     66 CA         30.5510   37.7260   14.5130 C.3       9 GLL5        0.0000 
     67 CA         28.0580   35.1340   17.0110 C.3       6 GLP5        0.0000 
     68 CA         29.6020   37.8280   12.2425 C.3       3 GLC5        0.0000 
     69 CA         29.1560   37.5250   10.2450 C.3       6 GLP5        0.0000 
     70 CA         32.0243   33.0100   16.4150 C.3       3 GLC5        0.0000 
     71 CA         32.8010   33.4970   14.2870 C.3       9 GLL5        0.0000 
     72 CA         31.9090   32.8740   18.4840 C.3       6 GLP5        0.0000 
     73 CA         34.6123   35.8850   16.3648 C.3       3 GLC5        0.0000 
     74 CA         34.0810   35.7040   14.4990 C.3       9 GLL5        0.0000 
     75 CA         34.4440   36.3730   18.2980 C.3       6 GLP5        0.0000 
     76 CA         37.2711   33.8705   14.0401 C.3       3 GLC5        0.0000 
     77 CA         35.4800   35.0900   14.3640 C.3       9 GLL5        0.0000 
     78 CA         28.9855   33.8070   12.7392 C.3       3 GLC5        0.0000 
     79 CA         30.8170   32.5980   12.9980 C.3       9 GLL5        0.0000 
     80 CA         27.7720   35.4730   12.4240 C.3       6 GLP5        0.0000 
     81 CA         26.6262   31.8230   11.6303 C.3       3 GLC5        0.0000 
     82 CA         28.1970   32.3300   11.1050 C.3       9 GLL5        0.0000 
     83 CA         24.6930   31.7970   11.8170 C.3       6 GLP5        0.0000 
     84 CA         28.2577   34.1343   10.3143 C.3       3 GLC5        0.0000 
     85 CA         28.6180   36.0900   10.1400 C.3       6 GLP5        0.0000 
     86 CA         26.1790   31.5945   10.7033 C.3       3 GLC5        0.0000 
     87 CA         27.5980   32.0270    9.8720 C.3       9 GLL5        0.0000 
     88 CA         28.8274   32.3339    8.6369 C.3       3 GLC5        0.0000 
@<TRIPOS>BOND
@<TRIPOS>SUBSTRUCTURE
     1 ALC1       19 GROUP        1 X    ALC  0     ROOT ALC X 1
     2 SEC2       26 GROUP        1 X    SEC  0     **** SEC X 2
     3 GLC5        1 GROUP        1 X    GLC  0     **** GLC X 6
     4 ALP1       21 GROUP        1 Y    ALP  0     ROOT ALP Y 8
     5 SEP2       28 GROUP        1 Y    SEP  0     **** SEP Y 9
     6 GLP5        3 GROUP        1 Y    GLP  0     **** GLP Y 13
     7 ALL1       20 GROUP        1 Z    ALL  0     ROOT ALL Z 15
     8 SEL2       27 GROUP        1 Z    SEL  0     **** SEL Z 16
     9 GLL5        2 GROUP        1 Z    GLL  0     **** GLL Z 20
@<TRIPOS>SET

