#    Name: 1lf2_R37_1_ligand
#    Modification time : Mon Apr  7 14:00:04 2014

@<TRIPOS>MOLECULE
1lf2_R37_1_ligand
   80    82     1     0     0
SMALL
NO_CHARGES


@<TRIPOS>ATOM
      1 C          34.1440   28.6370    9.3600 C.ar      1 R37330      0.0000 
      2 C8         34.4550   29.8420    9.9500 C.ar      1 R37330      0.0000 
      3 C9         35.7770   30.3190    9.8970 C.ar      1 R37330      0.0000 
      4 C10        36.7600   29.5670    9.2490 C.ar      1 R37330      0.0000 
      5 C13        36.4420   28.3600    8.6640 C.ar      1 R37330      0.0000 
      6 C14        35.1420   27.8940    8.7150 C.ar      1 R37330      0.0000 
      7 C3         36.1130   31.6830   10.4710 C.3       1 R37330      0.0000 
      8 C2         32.7130   28.1320    9.4040 C.3       1 R37330      0.0000 
      9 C16        30.5510   37.7260   14.5130 C.ar      1 R37330      0.0000 
     10 C26        30.8790   37.9050   15.8680 C.ar      1 R37330      0.0000 
     11 C27        30.2110   38.8700   16.6540 C.ar      1 R37330      0.0000 
     12 C28        29.2110   39.6630   16.0890 C.ar      1 R37330      0.0000 
     13 C29        28.8810   39.4870   14.7410 C.ar      1 R37330      0.0000 
     14 N1         28.5020   40.7120   16.9060 N.pl3     1 R37330      0.0000 
     15 C30        29.5450   38.5360   13.9670 C.ar      1 R37330      0.0000 
     16 O1         33.3890   30.5060   10.5520 O.3       1 R37330      0.0000 
     17 C34        32.6180   31.4240    9.8390 C.3       1 R37330      0.0000 
     18 C25        31.8510   32.3740   10.7840 C.2       1 R37330      0.0000 
     19 O26        31.3740   33.4380   10.3640 O.2       1 R37330      0.0000 
     20 N16        31.7520   31.9970   12.0620 N.am      1 R37330      0.0000 
     21 C15        31.4780   32.7950   14.4050 C.3       1 R37330      0.0000 
     22 O14        31.7720   31.5180   14.9670 O.3       1 R37330      0.0000 
     23 C12        32.8010   33.4970   14.2870 C.3       1 R37330      0.0000 
     24 C4         32.8490   34.9690   13.9220 C.3       1 R37330      0.0000 
     25 C5         34.0810   35.7040   14.4990 C.3       1 R37330      0.0000 
     26 C6         35.4800   35.0900   14.3640 C.3       1 R37330      0.0000 
     27 C11        35.7850   34.9700   12.8550 C.3       1 R37330      0.0000 
     28 C7         36.4740   36.0300   14.9950 C.3       1 R37330      0.0000 
     29 N3         31.6080   35.6450   14.3040 N.am      1 R37330      0.0000 
     30 C1         31.2080   36.7690   13.7090 C.2       1 R37330      0.0000 
     31 O2         31.3480   36.9550   12.4870 O.2       1 R37330      0.0000 
     32 C17        30.8170   32.5980   12.9980 C.3       1 R37330      0.0000 
     33 C18        29.5810   31.6840   13.1110 C.3       1 R37330      0.0000 
     34 C19        28.9220   31.3680   11.7820 C.ar      1 R37330      0.0000 
     35 C20        28.1970   32.3300   11.1050 C.ar      1 R37330      0.0000 
     36 C21        27.5980   32.0270    9.8720 C.ar      1 R37330      0.0000 
     37 C22        27.7320   30.7570    9.3070 C.ar      1 R37330      0.0000 
     38 C23        28.4590   29.7790    9.9750 C.ar      1 R37330      0.0000 
     39 C24        29.0460   30.0930   11.2140 C.ar      1 R37330      0.0000 
     40 H          37.7275   29.9243    9.2125 H         1 R37330      0.0000 
     41 H          37.1698   27.8061    8.1900 H         1 R37330      0.0000 
     42 H          34.8955   26.9928    8.2773 H         1 R37330      0.0000 
     43 H          31.6145   37.3274   16.2956 H         1 R37330      0.0000 
     44 H          30.4664   38.9823   17.6399 H         1 R37330      0.0000 
     45 H          28.1410   40.0658   14.3184 H         1 R37330      0.0000 
     46 H          28.3620   40.4967   17.8725 H         1 R37330      0.0000 
     47 H          28.2278   41.5399   16.4166 H         1 R37330      0.0000 
     48 H          29.2928   38.4232   12.9697 H         1 R37330      0.0000 
     49 H          31.8604   30.9356    9.1974 H         1 R37330      0.0000 
     50 H          33.2267   32.0637    9.1723 H         1 R37330      0.0000 
     51 H          32.3576   31.2340   12.4556 H         1 R37330      0.0000 
     52 H          30.8232   33.3561   15.0154 H         1 R37330      0.0000 
     53 H          33.4422   32.9321   13.5416 H         1 R37330      0.0000 
     54 H          33.3681   33.3605   15.2594 H         1 R37330      0.0000 
     55 H          32.9443   35.0270   12.8126 H         1 R37330      0.0000 
     56 H          33.8846   35.8975   15.5936 H         1 R37330      0.0000 
     57 H          34.1052   36.7395   14.0501 H         1 R37330      0.0000 
     58 H          35.5042   34.1482   14.8098 H         1 R37330      0.0000 
     59 H          31.0632   35.1923   15.0656 H         1 R37330      0.0000 
     60 H          30.4876   33.5615   12.6498 H         1 R37330      0.0000 
     61 H          28.8483   32.1698   13.7764 H         1 R37330      0.0000 
     62 H          29.8863   30.7445   13.6006 H         1 R37330      0.0000 
     63 H          28.0900   33.2754   11.4980 H         1 R37330      0.0000 
     64 H          27.0545   32.7515    9.3813 H         1 R37330      0.0000 
     65 H          27.2946   30.5499    8.4029 H         1 R37330      0.0000 
     66 H          28.5695   28.8466    9.5798 H         1 R37330      0.0000 
     67 H          29.5816   29.3637   11.7162 H         1 R37330      0.0000 
     68 H          37.0845   31.8984   10.3722 H         1 R37330      0.0000 
     69 H          35.6031   32.4132   10.0162 H         1 R37330      0.0000 
     70 H          35.8981   31.7388   11.4460 H         1 R37330      0.0000 
     71 H          32.6169   27.2480    8.9465 H         1 R37330      0.0000 
     72 H          32.3899   28.0128   10.3428 H         1 R37330      0.0000 
     73 H          32.0820   28.7646    8.9549 H         1 R37330      0.0000 
     74 H          36.6897   34.5777   12.6890 H         1 R37330      0.0000 
     75 H          35.1218   34.3856   12.3874 H         1 R37330      0.0000 
     76 H          35.7635   35.8601   12.3998 H         1 R37330      0.0000 
     77 H          37.4078   35.6768   14.9370 H         1 R37330      0.0000 
     78 H          36.4714   36.9260   14.5510 H         1 R37330      0.0000 
     79 H          36.2779   36.1823   15.9637 H         1 R37330      0.0000 
     80 H          32.7705   31.4730   14.9987 H         1 R37330      0.0000 
@<TRIPOS>BOND
     1    2    1 ar   
     2    6    1 ar   
     3    8    1 1    
     4    3    2 ar   
     5   16    2 1    
     6    4    3 ar   
     7    7    3 1    
     8    5    4 ar   
     9   40    4 1    
    10    6    5 ar   
    11   41    5 1    
    12   42    6 1    
    13   68    7 1    
    14   69    7 1    
    15   70    7 1    
    16   71    8 1    
    17   72    8 1    
    18   73    8 1    
    19   10    9 ar   
    20   15    9 ar   
    21   30    9 1    
    22   11   10 ar   
    23   43   10 1    
    24   12   11 ar   
    25   44   11 1    
    26   13   12 ar   
    27   14   12 1    
    28   15   13 ar   
    29   45   13 1    
    30   46   14 1    
    31   47   14 1    
    32   48   15 1    
    33   17   16 1    
    34   18   17 1    
    35   49   17 1    
    36   50   17 1    
    37   19   18 2    
    38   20   18 am   
    39   32   20 1    
    40   51   20 1    
    41   22   21 1    
    42   23   21 1    
    43   32   21 1    
    44   52   21 1    
    45   80   22 1    
    46   24   23 1    
    47   53   23 1    
    48   54   23 1    
    49   25   24 1    
    50   29   24 1    
    51   55   24 1    
    52   26   25 1    
    53   56   25 1    
    54   57   25 1    
    55   27   26 1    
    56   28   26 1    
    57   58   26 1    
    58   74   27 1    
    59   75   27 1    
    60   76   27 1    
    61   77   28 1    
    62   78   28 1    
    63   79   28 1    
    64   30   29 am   
    65   59   29 1    
    66   31   30 2    
    67   33   32 1    
    68   60   32 1    
    69   34   33 1    
    70   61   33 1    
    71   62   33 1    
    72   35   34 ar   
    73   39   34 ar   
    74   36   35 ar   
    75   63   35 1    
    76   37   36 ar   
    77   64   36 1    
    78   38   37 ar   
    79   65   37 1    
    80   39   38 ar   
    81   66   38 1    
    82   67   39 1    
@<TRIPOS>SUBSTRUCTURE
     1 R37330      1 GROUP   
@<TRIPOS>SET

