#    Name: 4jq7_KJQ_1_INTS_M
#    Modification time : Tue Mar 25 06:12:32 2014

@<TRIPOS>MOLECULE
4jq7_KJQ_1_INTS_M
   78     0     9     0     0
SMALL
NO_CHARGES


@<TRIPOS>ATOM
      1 CA        -53.9015    2.7300  -23.4790 C.3       3 GLC5        0.0000 
      2 CA        -54.8850    1.3640  -23.2920 C.3       9 GLL5        0.0000 
      3 CA        -52.9180    4.0960  -23.6660 C.3       6 GLP5        0.0000 
      4 CA        -55.6920    3.1780  -22.2730 C.3       3 GLC5        0.0000 
      5 CA        -56.4990    4.9920  -21.2540 C.3       6 GLP5        0.0000 
      6 CA        -56.5865    0.9280  -22.4040 C.3       3 GLC5        0.0000 
      7 CA        -58.2880    0.4920  -21.5160 C.3       6 GLP5        0.0000 
      8 CA        -55.2850   -0.3395  -23.0735 C.3       3 GLC5        0.0000 
      9 CA        -55.6850   -2.0430  -22.8550 C.3       6 GLP5        0.0000 
     10 CA        -53.7130    2.9000  -20.5020 C.3       3 GLC5        0.0000 
     11 CA        -53.5950    0.8790  -21.3710 C.3       9 GLL5        0.0000 
     12 CA        -53.8310    4.9210  -19.6330 C.3       6 GLP5        0.0000 
     13 CA        -55.6205    0.6715  -20.7530 C.3       3 GLC5        0.0000 
     14 CA        -57.6460    0.4640  -20.1350 C.3       6 GLP5        0.0000 
     15 CA        -54.1620    2.9785  -27.3850 C.3       3 GLC5        0.0000 
     16 CA        -52.0140    2.3450  -27.1940 C.3       9 GLL5        0.0000 
     17 CA        -56.3100    3.6120  -27.5760 C.3       6 GLP5        0.0000 
     18 CA        -50.5500    1.7490  -24.9490 C.3       3 GLC5        0.0000 
     19 CA        -51.9760    1.3260  -26.2400 C.3       9 GLL5        0.0000 
     20 CA        -49.1240    2.1720  -23.6580 C.3       6 GLP5        0.0000 
     21 CA        -54.0545   -1.5450  -24.2405 C.3       3 GLC5        0.0000 
     22 CA        -52.4240   -1.0470  -25.6260 C.3       9 GLL5        0.0000 
     23 CA        -50.2845   -1.1815  -27.4430 C.3       3 GLC5        0.0000 
     24 CA        -51.4420   -2.1050  -26.1200 C.3       9 GLL5        0.0000 
     25 CA        -49.1270   -0.2580  -28.7660 C.3       6 GLP5        0.0000 
     26 O         -51.7520   -4.5710  -26.1380 O.2       1 ALC1        0.0000 
     27 O         -51.6530   -3.2570  -25.2920 O.2       7 ALL1        0.0000 
     28 O         -51.8510   -5.8850  -26.9840 O.2       4 ALP1        0.0000 
     29 N         -55.7960    2.1425  -21.1085 N.am      2 SEC2        0.0000 
     30 N         -54.6630    1.4770  -21.9260 N.am      8 SEL2        0.0000 
     31 N         -56.9290    2.8080  -20.2910 N.am      5 SEP2        0.0000 
     32 CA        -49.4065    0.7585  -18.7645 C.3       3 GLC5        0.0000 
     33 CA        -50.7470   -0.9200  -18.3030 C.3       9 GLL5        0.0000 
     34 CA        -48.0660    2.4370  -19.2260 C.3       6 GLP5        0.0000 
     35 CA        -46.4975   -0.9145  -20.8070 C.3       3 GLC5        0.0000 
     36 CA        -48.3300   -1.4010  -21.5370 C.3       9 GLL5        0.0000 
     37 CA        -44.6650   -0.4280  -20.0770 C.3       6 GLP5        0.0000 
     38 CA        -52.8995   -3.0425  -21.5160 C.3       3 GLC5        0.0000 
     39 CA        -50.9150   -2.3680  -21.8520 C.3       9 GLL5        0.0000 
     40 CA        -54.8840   -3.7170  -21.1800 C.3       6 GLP5        0.0000 
     41 CA        -51.1233    1.7428  -20.1407 C.3       3 GLC5        0.0000 
     42 CA        -51.7920   -0.2730  -21.1710 C.3       9 GLL5        0.0000 
     43 CA        -50.2700    3.5220  -19.7180 C.3       6 GLP5        0.0000 
     44 CA        -50.8545    1.0788  -23.0945 C.3       3 GLC5        0.0000 
     45 CA        -53.0611    2.2908  -22.8657 C.3       3 GLC5        0.0000 
     46 CA        -52.7060    0.1530  -22.0870 C.3       9 GLL5        0.0000 
     47 CA        -54.4446   -0.7788  -22.4602 C.3       3 GLC5        0.0000 
     48 CA        -54.4073    0.1180  -29.7423 C.3       3 GLC5        0.0000 
     49 CA        -52.9010   -0.2000  -27.8520 C.3       9 GLL5        0.0000 
     50 CA        -55.9000   -0.0710  -31.1550 C.3       6 GLP5        0.0000 
     51 CA        -51.9990    2.3868  -30.1955 C.3       3 GLC5        0.0000 
     52 CA        -52.9280    0.8140  -28.8070 C.3       9 GLL5        0.0000 
     53 CA        -51.2920    3.3210  -31.7480 C.3       6 GLP5        0.0000 
     54 CA        -54.5200    2.2728  -28.8160 C.3       3 GLC5        0.0000 
     55 CA        -52.4840    2.0910  -28.4790 C.3       9 GLL5        0.0000 
     56 CA        -56.3340    3.0930  -28.9890 C.3       6 GLP5        0.0000 
     57 CA        -52.4565    2.9658  -25.1915 C.3       3 GLC5        0.0000 
     58 CA        -50.5222    1.9780  -27.7236 C.3       3 GLC5        0.0000 
     59 CA        -48.9320    2.1840  -28.4090 C.3       6 GLP5        0.0000 
     60 CA        -50.8981   -0.0435  -28.1044 C.3       3 GLC5        0.0000 
     61 CA        -52.4240    0.0350  -26.5560 C.3       9 GLL5        0.0000 
     62 CA        -51.0748    2.0240  -18.9725 C.3       3 GLC5        0.0000 
     63 CA        -51.6490    0.0740  -18.7130 C.3       9 GLL5        0.0000 
     64 CA        -52.3642   -1.5447  -17.2510 C.3       3 GLC5        0.0000 
     65 CA        -54.2040   -2.1390  -16.8620 C.3       6 GLP5        0.0000 
     66 CA        -50.2692    2.0383  -16.8203 C.3       3 GLC5        0.0000 
     67 CA        -50.7600   -0.0640  -16.0340 C.3       9 GLL5        0.0000 
     68 CA        -49.3250    3.6500  -17.4130 C.3       6 GLP5        0.0000 
     69 CA        -52.7088   -0.8562  -16.5448 C.3       3 GLC5        0.0000 
     70 CA        -51.6670    0.9170  -16.4210 C.3       9 GLL5        0.0000 
     71 CA        -53.1058   -0.7907  -17.6999 C.3       3 GLC5        0.0000 
     72 CA        -52.1100    0.9780  -17.7410 C.3       9 GLL5        0.0000 
     73 CA        -49.5978    0.6825  -22.5040 C.3       3 GLC5        0.0000 
     74 CA        -50.7230   -1.0460  -21.4300 C.3       9 GLL5        0.0000 
     75 CA        -48.4705    0.7262  -20.3147 C.3       3 GLC5        0.0000 
     76 CA        -49.4200   -0.5680  -21.2700 C.3       9 GLL5        0.0000 
     77 CA        -48.0870   -0.8408  -23.2305 C.3       3 GLC5        0.0000 
     78 CA        -47.7450    0.3750  -24.7090 C.3       6 GLP5        0.0000 
@<TRIPOS>BOND
@<TRIPOS>SUBSTRUCTURE
     1 ALC1       26 GROUP        1 X    ALC  0     ROOT ALC X 1
     2 SEC2       29 GROUP        1 X    SEC  0     **** SEC X 2
     3 GLC5        1 GROUP        1 X    GLC  0     **** GLC X 6
     4 ALP1       28 GROUP        1 Y    ALP  0     ROOT ALP Y 8
     5 SEP2       31 GROUP        1 Y    SEP  0     **** SEP Y 9
     6 GLP5        3 GROUP        1 Y    GLP  0     **** GLP Y 13
     7 ALL1       27 GROUP        1 Z    ALL  0     ROOT ALL Z 15
     8 SEL2       30 GROUP        1 Z    SEL  0     **** SEL Z 16
     9 GLL5        2 GROUP        1 Z    GLL  0     **** GLL Z 20
@<TRIPOS>SET

