#    Name: 4jq7_KJQ_1_ligand
#    Modification time : Tue Mar 25 06:12:32 2014

@<TRIPOS>MOLECULE
4jq7_KJQ_1_ligand
   52    56     1     0     0
SMALL
NO_CHARGES


@<TRIPOS>ATOM
      1 C3        -52.7060    0.1530  -22.0870 C.ar      1 KJQ1001     0.0000 
      2 C2        -51.7920   -0.2730  -21.1710 C.2       1 KJQ1001     0.0000 
      3 N8        -53.9750    0.6220  -24.0290 N.ar      1 KJQ1001     0.0000 
      4 C9        -54.8850    1.3640  -23.2920 C.ar      1 KJQ1001     0.0000 
      5 C6        -52.9210    0.0310  -23.4330 C.ar      1 KJQ1001     0.0000 
      6 C4        -53.5950    0.8790  -21.3710 C.ar      1 KJQ1001     0.0000 
      7 C1        -52.1610    0.2000  -19.9560 C.2       1 KJQ1001     0.0000 
      8 C23       -52.9010   -0.2000  -27.8520 C.ar      1 KJQ1001     0.0000 
      9 C25       -52.9280    0.8140  -28.8070 C.ar      1 KJQ1001     0.0000 
     10 C27       -52.4840    2.0910  -28.4790 C.ar      1 KJQ1001     0.0000 
     11 C26       -52.0140    2.3450  -27.1940 C.ar      1 KJQ1001     0.0000 
     12 C24       -51.9760    1.3260  -26.2400 C.ar      1 KJQ1001     0.0000 
     13 C22       -52.4240    0.0350  -26.5560 C.ar      1 KJQ1001     0.0000 
     14 CA        -52.4240   -1.0470  -25.6260 C.3       1 KJQ1001     0.0000 
     15 C         -51.4420   -2.1050  -26.1200 C.3       1 KJQ1001     0.0000 
     16 O         -51.6530   -3.2570  -25.2920 O.3       1 KJQ1001     0.0000 
     17 N         -52.0700   -0.6560  -24.2260 N.pl3     1 KJQ1001     0.0000 
     18 N7        -54.6630    1.4770  -21.9260 N.ar      1 KJQ1001     0.0000 
     19 O5        -53.2450    0.8810  -20.1220 O.3       1 KJQ1001     0.0000 
     20 C10       -51.6490    0.0740  -18.7130 C.ar      1 KJQ1001     0.0000 
     21 C14       -50.7470   -0.9200  -18.3030 C.ar      1 KJQ1001     0.0000 
     22 C17       -50.3020   -0.9810  -16.9770 C.ar      1 KJQ1001     0.0000 
     23 C21       -50.7600   -0.0640  -16.0340 C.ar      1 KJQ1001     0.0000 
     24 C18       -51.6670    0.9170  -16.4210 C.ar      1 KJQ1001     0.0000 
     25 C15       -52.1100    0.9780  -17.7410 C.ar      1 KJQ1001     0.0000 
     26 C11       -50.7230   -1.0460  -21.4300 C.ar      1 KJQ1001     0.0000 
     27 C13       -49.4200   -0.5680  -21.2700 C.ar      1 KJQ1001     0.0000 
     28 C16       -48.3300   -1.4010  -21.5370 C.ar      1 KJQ1001     0.0000 
     29 C20       -48.5280   -2.7120  -21.9670 C.ar      1 KJQ1001     0.0000 
     30 C19       -49.8250   -3.1950  -22.1270 C.ar      1 KJQ1001     0.0000 
     31 C12       -50.9150   -2.3680  -21.8520 C.ar      1 KJQ1001     0.0000 
     32 H         -55.6813    1.8070  -23.7319 H         1 KJQ1001     0.0000 
     33 H         -53.2390   -1.1458  -28.1015 H         1 KJQ1001     0.0000 
     34 H         -53.2762    0.6177  -29.7540 H         1 KJQ1001     0.0000 
     35 H         -52.5028    2.8395  -29.1786 H         1 KJQ1001     0.0000 
     36 H         -51.6914    3.2907  -26.9427 H         1 KJQ1001     0.0000 
     37 H         -51.6163    1.5214  -25.2953 H         1 KJQ1001     0.0000 
     38 H         -53.4099   -1.5343  -25.6098 H         1 KJQ1001     0.0000 
     39 H         -50.4410   -1.7115  -26.0178 H         1 KJQ1001     0.0000 
     40 H         -51.6583   -2.3085  -27.1588 H         1 KJQ1001     0.0000 
     41 H         -51.1284   -0.9498  -23.9114 H         1 KJQ1001     0.0000 
     42 H         -50.4092   -1.6122  -18.9870 H         1 KJQ1001     0.0000 
     43 H         -49.6304   -1.7112  -16.6997 H         1 KJQ1001     0.0000 
     44 H         -50.4319   -0.1122  -15.0658 H         1 KJQ1001     0.0000 
     45 H         -52.0120    1.5990  -15.7329 H         1 KJQ1001     0.0000 
     46 H         -52.7949    1.7048  -18.0168 H         1 KJQ1001     0.0000 
     47 H         -49.2627    0.3967  -20.9558 H         1 KJQ1001     0.0000 
     48 H         -47.3720   -1.0412  -21.4144 H         1 KJQ1001     0.0000 
     49 H         -47.7247   -3.3164  -22.1641 H         1 KJQ1001     0.0000 
     50 H         -49.9798   -4.1581  -22.4468 H         1 KJQ1001     0.0000 
     51 H         -51.8737   -2.7320  -21.9600 H         1 KJQ1001     0.0000 
     52 H         -51.6911   -4.0285  -25.9270 H         1 KJQ1001     0.0000 
@<TRIPOS>BOND
     1    2    1 1    
     2    5    1 ar   
     3    6    1 ar   
     4    7    2 2    
     5   26    2 1    
     6    4    3 ar   
     7    5    3 ar   
     8   18    4 ar   
     9   32    4 1    
    10   17    5 1    
    11   18    6 ar   
    12   19    6 1    
    13   19    7 1    
    14   20    7 1    
    15    9    8 ar   
    16   13    8 ar   
    17   33    8 1    
    18   10    9 ar   
    19   34    9 1    
    20   11   10 ar   
    21   35   10 1    
    22   12   11 ar   
    23   36   11 1    
    24   13   12 ar   
    25   37   12 1    
    26   14   13 1    
    27   15   14 1    
    28   17   14 1    
    29   38   14 1    
    30   16   15 1    
    31   39   15 1    
    32   40   15 1    
    33   52   16 1    
    34   41   17 1    
    35   21   20 ar   
    36   25   20 ar   
    37   22   21 ar   
    38   42   21 1    
    39   23   22 ar   
    40   43   22 1    
    41   24   23 ar   
    42   44   23 1    
    43   25   24 ar   
    44   45   24 1    
    45   46   25 1    
    46   27   26 ar   
    47   31   26 ar   
    48   28   27 ar   
    49   47   27 1    
    50   29   28 ar   
    51   48   28 1    
    52   30   29 ar   
    53   49   29 1    
    54   31   30 ar   
    55   50   30 1    
    56   51   31 1    
@<TRIPOS>SUBSTRUCTURE
     1 KJQ1001     1 GROUP   
@<TRIPOS>SET

