#    Name: 2zeu_B71_2_INTS_M
#    Modification time : Tue Mar 25 10:39:21 2014

@<TRIPOS>MOLECULE
2zeu_B71_2_INTS_M
   77     0     9     0     0
SMALL
NO_CHARGES


@<TRIPOS>ATOM
      1 CA         26.8070   33.4485   39.9165 C.3       3 GLC5        0.0000 
      2 CA         24.8890   33.8300   39.9520 C.3       9 GLL5        0.0000 
      3 CA         28.7250   33.0670   39.8810 C.3       6 GLP5        0.0000 
      4 CA         25.7095   35.6180   40.4180 C.3       3 GLC5        0.0000 
      5 CA         26.5300   37.4060   40.8840 C.3       6 GLP5        0.0000 
      6 CA         21.4765   33.0290   37.8270 C.3       3 GLC5        0.0000 
      7 CA         23.2300   32.9670   38.2310 C.3       9 GLL5        0.0000 
      8 CA         19.7230   33.0910   37.4230 C.3       6 GLP5        0.0000 
      9 CA         21.3975   31.9105   37.2670 C.3       3 GLC5        0.0000 
     10 CA         23.0720   30.7300   37.1110 C.3       9 GLL5        0.0000 
     11 CA         23.5160   27.5795   36.2180 C.3       3 GLC5        0.0000 
     12 CA         23.8160   29.6060   36.3870 C.3       9 GLL5        0.0000 
     13 CA         23.2160   25.5530   36.0490 C.3       6 GLP5        0.0000 
     14 CA         24.8760   32.1995   35.1425 C.3       3 GLC5        0.0000 
     15 CA         24.6790   30.1720   35.2590 C.3       9 GLL5        0.0000 
     16 CA         25.0730   34.2270   35.0260 C.3       6 GLP5        0.0000 
     17 CA         24.9345   27.3025   35.0790 C.3       3 GLC5        0.0000 
     18 CA         25.2840   29.0700   34.3850 C.3       9 GLL5        0.0000 
     19 CA         24.5850   25.5350   35.7730 C.3       6 GLP5        0.0000 
     20 N          27.4745   30.6865   33.7595 N.am      1 SEC2        0.0000 
     21 N          26.1830   29.7220   33.4750 N.am      7 SEL2        0.0000 
     22 N          28.7660   31.6510   34.0440 N.am      4 SEP2        0.0000 
     23 CA         28.9045   28.8050   33.1335 C.3       3 GLC5        0.0000 
     24 CA         27.4700   29.2670   31.5400 C.3       9 GLL5        0.0000 
     25 CA         30.3390   28.3430   34.7270 C.3       6 GLP5        0.0000 
     26 CA         28.1380   26.7230   29.7200 C.3       3 GLC5        0.0000 
     27 CA         26.5550   27.9690   29.7320 C.3       9 GLL5        0.0000 
     28 CA         29.7210   25.4770   29.7080 C.3       6 GLP5        0.0000 
     29 CA         22.7670   28.2885   29.9025 C.3       3 GLC5        0.0000 
     30 CA         24.2600   27.0140   29.8850 C.3       9 GLL5        0.0000 
     31 CA         21.2740   29.5630   29.9200 C.3       6 GLP5        0.0000 
     32 N          21.4320   25.9140   27.9170 N.am      1 SEC2        0.0000 
     33 N          22.5960   24.8370   28.3890 N.am      7 SEL2        0.0000 
     34 N          20.2680   26.9910   27.4450 N.am      4 SEP2        0.0000 
     35 NZ         20.2435   26.1115   29.9640 N.4       2 LYC4        0.0000 
     36 NZ         21.3850   25.5580   30.5550 N.4       8 LYL4        0.0000 
     37 NZ         19.1530   27.1180   28.1260 N.4       5 LYP4        0.0000 
     38 N          20.2435   26.1115   29.9640 N.am      1 SEC2        0.0000 
     39 N          21.3850   25.5580   30.5550 N.am      7 SEL2        0.0000 
     40 N          19.1020   26.6650   29.3730 N.am      4 SEP2        0.0000 
     41 NZ         25.8685   22.2275   29.6545 N.4       2 LYC4        0.0000 
     42 NZ         25.2740   23.1380   30.8080 N.4       8 LYL4        0.0000 
     43 NZ         26.4630   21.3170   28.5010 N.4       5 LYP4        0.0000 
     44 N          26.3090   22.6920   31.6650 N.am      1 SEC2        0.0000 
     45 N          25.2740   23.1380   30.8080 N.am      7 SEL2        0.0000 
     46 N          27.3440   22.2460   32.5220 N.am      4 SEP2        0.0000 
     47 NZ         26.0905   22.8630   28.5490 N.4       2 LYC4        0.0000 
     48 NZ         25.7180   24.4090   28.5970 N.4       8 LYL4        0.0000 
     49 N          26.0905   22.8630   28.5490 N.am      1 SEC2        0.0000 
     50 N          25.7180   24.4090   28.5970 N.am      7 SEL2        0.0000 
     51 N          26.4630   21.3170   28.5010 N.am      4 SEP2        0.0000 
     52 NZ         28.2625   24.5555   30.1870 N.4       2 LYC4        0.0000 
     53 NZ         26.8240   25.1730   30.7830 N.4       8 LYL4        0.0000 
     54 NZ         29.7010   23.9380   29.5910 N.4       5 LYP4        0.0000 
     55 CA         23.8288   32.4387   42.9910 C.3       3 GLC5        0.0000 
     56 CA         23.9160   33.7790   41.1310 C.3       9 GLL5        0.0000 
     57 CA         23.3590   31.1360   44.1900 C.3       6 GLP5        0.0000 
     58 CA         25.6383   32.1278   41.4310 C.3       3 GLC5        0.0000 
     59 CA         24.6810   33.7040   42.4530 C.3       9 GLL5        0.0000 
     60 CA         26.9780   30.5140   41.0700 C.3       6 GLP5        0.0000 
     61 CA         24.8863   35.7588   41.8220 C.3       3 GLC5        0.0000 
     62 CA         25.4740   37.7760   41.8520 C.3       6 GLP5        0.0000 
     63 CA         22.9105   35.2332   38.1675 C.3       3 GLC5        0.0000 
     64 CA         24.1420   34.1220   38.6490 C.3       9 GLL5        0.0000 
     65 CA         22.1350   36.9220   37.8950 C.3       6 GLP5        0.0000 
     66 CA         24.4648   33.4446   36.5443 C.3       3 GLC5        0.0000 
     67 CA         24.6932   30.0440   38.5820 C.3       3 GLC5        0.0000 
     68 CA         24.0270   31.7800   37.6850 C.3       9 GLL5        0.0000 
     69 CA         25.8370   28.8330   39.7660 C.3       6 GLP5        0.0000 
     70 CA         22.2080   29.2560   38.0360 C.3       3 GLC5        0.0000 
     71 CA         20.9720   28.3440   39.3230 C.3       6 GLP5        0.0000 
     72 CA         25.5452   29.4200   37.3080 C.3       3 GLC5        0.0000 
     73 CA         26.8430   28.9510   38.7930 C.3       6 GLP5        0.0000 
     74 CA         28.7993   30.5845   30.6685 C.3       3 GLC5        0.0000 
     75 CA         30.0640   32.1790   30.4320 C.3       6 GLP5        0.0000 
     76 CA         29.3532   28.2290   30.6790 C.3       3 GLC5        0.0000 
     77 CA         31.1720   27.4680   30.4530 C.3       6 GLP5        0.0000 
@<TRIPOS>BOND
@<TRIPOS>SUBSTRUCTURE
     1 SEC2       20 GROUP        1 X    SEC  0     ROOT SEC X 2
     2 LYC4       35 GROUP        1 X    LYC  0     **** LYC X 4
     3 GLC5        1 GROUP        1 X    GLC  0     **** GLC X 6
     4 SEP2       22 GROUP        1 Y    SEP  0     ROOT SEP Y 9
     5 LYP4       37 GROUP        1 Y    LYP  0     **** LYP Y 11
     6 GLP5        3 GROUP        1 Y    GLP  0     **** GLP Y 13
     7 SEL2       21 GROUP        1 Z    SEL  0     ROOT SEL Z 16
     8 LYL4       36 GROUP        1 Z    LYL  0     **** LYL Z 18
     9 GLL5        2 GROUP        1 Z    GLL  0     **** GLL Z 20
@<TRIPOS>SET

