#    Name: 2zeu_B71_2_ligand
#    Modification time : Tue Mar 25 10:39:21 2014

@<TRIPOS>MOLECULE
2zeu_B71_2_ligand
   55    55     1     0     0
SMALL
NO_CHARGES


@<TRIPOS>ATOM
      1 CAA        24.6810   33.7040   42.4530 C.3       1 B711202     0.0000 
      2 CAL        23.9160   33.7790   41.1310 C.3       1 B711202     0.0000 
      3 CAM        24.8890   33.8300   39.9520 C.3       1 B711202     0.0000 
      4 CAN        24.1420   34.1220   38.6490 C.3       1 B711202     0.0000 
      5 CAO        23.2300   32.9670   38.2310 C.3       1 B711202     0.0000 
      6 CAP        24.0270   31.7800   37.6850 C.3       1 B711202     0.0000 
      7 CAQ        23.0720   30.7300   37.1110 C.3       1 B711202     0.0000 
      8 CAR        23.8160   29.6060   36.3870 C.3       1 B711202     0.0000 
      9 CAS        24.6790   30.1720   35.2590 C.3       1 B711202     0.0000 
     10 CAT        25.2840   29.0700   34.3850 C.3       1 B711202     0.0000 
     11 OAV        26.1830   29.7220   33.4750 O.3       1 B711202     0.0000 
     12 CAW        26.3040   29.0880   32.2760 C.ar      1 B711202     0.0000 
     13 CAK        25.2560   28.3410   31.7510 C.ar      1 B711202     0.0000 
     14 CAI        27.4700   29.2670   31.5400 C.ar      1 B711202     0.0000 
     15 CAH        27.5990   28.7130   30.2700 C.ar      1 B711202     0.0000 
     16 CAJ        26.5550   27.9690   29.7320 C.ar      1 B711202     0.0000 
     17 NAY        25.3810   27.7810   30.4730 N.pl3     1 B711202     0.0000 
     18 CAU        24.2600   27.0140   29.8850 C.3       1 B711202     0.0000 
     19 CAX        24.1250   25.6390   30.5420 C.3       1 B711202     0.0000 
     20 PBA        22.5570   24.8470   30.0000 P.3       1 B711202     0.0000 
     21 OAF        22.5960   24.8370   28.3890 O.co2     1 B711202     0.0000 
     22 OAG        22.5790   23.3110   30.4830 O.co2     1 B711202     0.0000 
     23 OAC        21.3850   25.5580   30.5550 O.co2     1 B711202     0.0000 
     24 PAZ        25.5960   24.5920   30.1940 P.3       1 B711202     0.0000 
     25 OAD        25.2740   23.1380   30.8080 O.co2     1 B711202     0.0000 
     26 OAE        25.7180   24.4090   28.5970 O.co2     1 B711202     0.0000 
     27 OAB        26.8240   25.1730   30.7830 O.co2     1 B711202     0.0000 
     28 H          23.2971   34.6725   41.1244 H         1 B711202     0.0000 
     29 H          23.2801   32.9029   41.0339 H         1 B711202     0.0000 
     30 H          25.3995   32.8737   39.8661 H         1 B711202     0.0000 
     31 H          25.6242   34.6119   40.1268 H         1 B711202     0.0000 
     32 H          24.8700   34.3094   37.8533 H         1 B711202     0.0000 
     33 H          23.5387   35.0263   38.7772 H         1 B711202     0.0000 
     34 H          22.5375   33.3174   37.4618 H         1 B711202     0.0000 
     35 H          22.6472   32.6396   39.0954 H         1 B711202     0.0000 
     36 H          24.6066   31.3372   38.4873 H         1 B711202     0.0000 
     37 H          24.6935   32.1246   36.9022 H         1 B711202     0.0000 
     38 H          22.3863   31.2153   36.4101 H         1 B711202     0.0000 
     39 H          22.4803   30.3015   37.9254 H         1 B711202     0.0000 
     40 H          23.0936   28.9078   35.9710 H         1 B711202     0.0000 
     41 H          24.4511   29.0813   37.0967 H         1 B711202     0.0000 
     42 H          25.4873   30.7696   35.6909 H         1 B711202     0.0000 
     43 H          24.0667   30.8284   34.6334 H         1 B711202     0.0000 
     44 H          24.4766   28.5700   33.8679 H         1 B711202     0.0000 
     45 H          25.7980   28.3724   35.0318 H         1 B711202     0.0000 
     46 H          24.3981   28.1984   32.2897 H         1 B711202     0.0000 
     47 H          28.2480   29.8162   31.9392 H         1 B711202     0.0000 
     48 H          28.4623   28.8535   29.7326 H         1 B711202     0.0000 
     49 H          26.6393   27.5576   28.7971 H         1 B711202     0.0000 
     50 H          24.4181   26.8699   28.8104 H         1 B711202     0.0000 
     51 H          23.3164   27.5548   30.0175 H         1 B711202     0.0000 
     52 H          24.0567   25.6769   31.5913 H         1 B711202     0.0000 
     53 H          25.2593   32.8896   42.5018 H         1 B711202     0.0000 
     54 H          25.2782   34.4957   42.5819 H         1 B711202     0.0000 
     55 H          24.0629   33.6721   43.2385 H         1 B711202     0.0000 
@<TRIPOS>BOND
     1    2    1 1    
     2   53    1 1    
     3   54    1 1    
     4   55    1 1    
     5    3    2 1    
     6   28    2 1    
     7   29    2 1    
     8    4    3 1    
     9   30    3 1    
    10   31    3 1    
    11    5    4 1    
    12   32    4 1    
    13   33    4 1    
    14    6    5 1    
    15   34    5 1    
    16   35    5 1    
    17    7    6 1    
    18   36    6 1    
    19   37    6 1    
    20    8    7 1    
    21   38    7 1    
    22   39    7 1    
    23    9    8 1    
    24   40    8 1    
    25   41    8 1    
    26   10    9 1    
    27   42    9 1    
    28   43    9 1    
    29   11   10 1    
    30   44   10 1    
    31   45   10 1    
    32   12   11 1    
    33   13   12 ar   
    34   14   12 ar   
    35   17   13 ar   
    36   46   13 1    
    37   15   14 ar   
    38   47   14 1    
    39   16   15 ar   
    40   48   15 1    
    41   17   16 ar   
    42   49   16 1    
    43   18   17 1    
    44   19   18 1    
    45   50   18 1    
    46   51   18 1    
    47   20   19 1    
    48   24   19 1    
    49   52   19 1    
    50   21   20 ar   
    51   22   20 ar   
    52   23   20 ar   
    53   25   24 ar   
    54   26   24 ar   
    55   27   24 ar   
@<TRIPOS>SUBSTRUCTURE
     1 B711202     1 GROUP   
@<TRIPOS>SET

