#    Name: 3h10_97B_1_INTS_M
#    Modification time : Tue Mar 25 13:27:50 2014

@<TRIPOS>MOLECULE
3h10_97B_1_INTS_M
   88     0     9     0     0
SMALL
NO_CHARGES


@<TRIPOS>ATOM
      1 CA          4.9850  -15.6295  -32.0745 C.3       3 GLC5        0.0000 
      2 CA          3.9400  -14.1860  -30.8680 C.3       9 GLL5        0.0000 
      3 CA          6.0300  -17.0730  -33.2810 C.3       6 GLP5        0.0000 
      4 CA          3.5130  -15.2755  -26.6545 C.3       3 GLC5        0.0000 
      5 CA          3.3150  -15.0830  -28.7220 C.3       9 GLL5        0.0000 
      6 CA          3.7110  -15.4680  -24.5870 C.3       6 GLP5        0.0000 
      7 O           5.0605  -13.8370  -27.6695 O.2       1 ALC1        0.0000 
      8 O           5.4130  -14.0950  -28.9500 O.2       7 ALL1        0.0000 
      9 O           4.7080  -13.5790  -26.3890 O.2       4 ALP1        0.0000 
     10 CA          6.9750  -15.4325  -30.3575 C.3       3 GLC5        0.0000 
     11 CA          6.5290  -13.5890  -29.5150 C.3       9 GLL5        0.0000 
     12 CA          7.4210  -17.2760  -31.2000 C.3       6 GLP5        0.0000 
     13 CA          5.9620  -11.6600  -29.4320 C.3       3 GLC5        0.0000 
     14 CA          5.3950   -9.7310  -29.3490 C.3       6 GLP5        0.0000 
     15 N           7.6175  -13.4790  -27.2200 N.am      2 SEC2        0.0000 
     16 N           7.5720  -13.3320  -28.7110 N.am      8 SEL2        0.0000 
     17 N           7.6630  -13.6260  -25.7290 N.am      5 SEP2        0.0000 
     18 CA          9.1335  -13.9810  -27.6170 C.3       3 GLC5        0.0000 
     19 CA          8.7080  -12.8280  -29.2230 C.3       9 GLL5        0.0000 
     20 CA          9.5590  -15.1340  -26.0110 C.3       6 GLP5        0.0000 
     21 CA          7.5760  -15.0395  -31.2920 C.3       3 GLC5        0.0000 
     22 CA          7.7310  -12.8030  -31.3840 C.3       9 GLL5        0.0000 
     23 CA         10.1185  -13.6760  -32.5070 C.3       3 GLC5        0.0000 
     24 CA         10.1040  -11.9730  -31.1400 C.3       9 GLL5        0.0000 
     25 CA         10.1330  -15.3790  -33.8740 C.3       6 GLP5        0.0000 
     26 CA         11.9730  -11.7935  -31.4985 C.3       3 GLC5        0.0000 
     27 CA         13.8420  -11.6140  -31.8570 C.3       6 GLP5        0.0000 
     28 CA          8.9475  -10.6150  -30.0510 C.3       3 GLC5        0.0000 
     29 CA          7.7910   -9.2570  -28.9620 C.3       6 GLP5        0.0000 
     30 CA          5.9350  -14.3690  -36.2450 C.3       3 GLC5        0.0000 
     31 CA          6.8960  -13.2630  -34.9580 C.3       9 GLL5        0.0000 
     32 CA          4.9740  -15.4750  -37.5320 C.3       6 GLP5        0.0000 
     33 CA          8.3050  -14.2720  -35.1655 C.3       3 GLC5        0.0000 
     34 CA          9.7140  -15.2810  -35.3730 C.3       6 GLP5        0.0000 
     35 CA          6.1845  -13.7510  -37.4310 C.3       3 GLC5        0.0000 
     36 CA          7.3950  -12.0270  -37.3300 C.3       9 GLL5        0.0000 
     37 CA          8.1010  -11.8355  -39.2235 C.3       3 GLC5        0.0000 
     38 CA          8.8070  -11.6440  -41.1170 C.3       6 GLP5        0.0000 
     39 CA          8.0890  -10.2230  -37.3250 C.3       3 GLC5        0.0000 
     40 CA          8.7830   -8.4190  -37.3200 C.3       6 GLP5        0.0000 
     41 CA          4.7840   -8.8435  -32.1520 C.3       3 GLC5        0.0000 
     42 CA          6.6410   -9.1570  -32.5870 C.3       9 GLL5        0.0000 
     43 CA          2.9270   -8.5300  -31.7170 C.3       6 GLP5        0.0000 
     44 CA          6.0180   -9.4440  -30.9680 C.3       3 GLC5        0.0000 
     45 CA         11.9005   -9.8015  -35.2610 C.3       3 GLC5        0.0000 
     46 CA         11.1190   -8.8330  -33.8510 C.3       9 GLL5        0.0000 
     47 CA         12.6820  -10.7700  -36.6710 C.3       6 GLP5        0.0000 
     48 CA         12.4805  -10.2235  -32.8540 C.3       3 GLC5        0.0000 
     49 CA         12.8320   -7.7050  -34.5810 C.3       3 GLC5        0.0000 
     50 CA         14.5450   -6.5770  -35.3110 C.3       6 GLP5        0.0000 
     51 CA          1.9712  -13.1262  -29.5675 C.3       3 GLC5        0.0000 
     52 CA          2.6360  -14.3480  -31.3110 C.3       9 GLL5        0.0000 
     53 CA          1.8000  -11.6490  -28.2470 C.3       6 GLP5        0.0000 
     54 CA          2.9570  -13.0068  -29.2325 C.3       3 GLC5        0.0000 
     55 CA          2.2295  -13.4055  -28.5960 C.3       3 GLC5        0.0000 
     56 CA          4.4217  -16.5725  -30.2175 C.3       3 GLC5        0.0000 
     57 CA          5.0420  -18.3320  -31.2900 C.3       6 GLP5        0.0000 
     58 CA          8.0176  -10.9990  -29.8008 C.3       3 GLC5        0.0000 
     59 CA         10.1689  -14.0625  -30.2702 C.3       3 GLC5        0.0000 
     60 CA         10.9070  -15.7990  -30.0230 C.3       6 GLP5        0.0000 
     61 CA         10.3704  -10.9655  -29.3877 C.3       3 GLC5        0.0000 
     62 CA         11.3100   -9.6050  -28.2580 C.3       6 GLP5        0.0000 
     63 CA          9.2930  -12.7043  -35.0823 C.3       3 GLC5        0.0000 
     64 CA          8.3540  -11.4600  -33.4740 C.3       9 GLL5        0.0000 
     65 CA         10.2850  -14.0380  -36.0040 C.3       6 GLP5        0.0000 
     66 CA          6.4848  -15.2137  -33.7820 C.3       3 GLC5        0.0000 
     67 CA          8.7436  -14.2195  -33.3681 C.3       3 GLC5        0.0000 
     68 CA          6.9830  -13.4460  -33.6080 C.3       9 GLL5        0.0000 
     69 CA          8.3315  -10.0813  -36.2653 C.3       3 GLC5        0.0000 
     70 CA          7.5120  -12.2060  -35.5740 C.3       9 GLL5        0.0000 
     71 CA          8.8693  -13.0772  -36.2280 C.3       3 GLC5        0.0000 
     72 CA          8.0377   -8.9875  -31.0587 C.3       3 GLC5        0.0000 
     73 CA          8.9170   -9.0000  -33.2000 C.3       9 GLL5        0.0000 
     74 CA          8.8382   -7.3230  -31.7302 C.3       3 GLC5        0.0000 
     75 CA          7.6520   -8.4360  -33.1110 C.3       9 GLL5        0.0000 
     76 CA          9.3920   -5.9280  -30.3050 C.3       6 GLP5        0.0000 
     77 CA          8.5337   -8.5685  -35.2378 C.3       3 GLC5        0.0000 
     78 CA          7.1730   -5.0465  -32.9072 C.3       3 GLC5        0.0000 
     79 CA          8.4850   -6.3820  -34.0860 C.3       9 GLL5        0.0000 
     80 CA          6.3840   -3.3370  -31.9960 C.3       6 GLP5        0.0000 
     81 CA          8.6770   -6.3420  -32.0617 C.3       3 GLC5        0.0000 
     82 CA          7.4390   -7.1300  -33.5510 C.3       9 GLL5        0.0000 
     83 CA          8.3725   -7.5875  -35.5693 C.3       3 GLC5        0.0000 
     84 CA          9.8290   -5.2245  -35.1380 C.3       3 GLC5        0.0000 
     85 CA         10.5450   -3.7780  -36.1350 C.3       6 GLP5        0.0000 
     86 CA          9.6167   -6.7700  -32.1395 C.3       3 GLC5        0.0000 
     87 CA          9.7410   -6.9600  -34.1960 C.3       9 GLL5        0.0000 
     88 CA          9.6316   -8.3208  -35.6162 C.3       3 GLC5        0.0000 
@<TRIPOS>BOND
@<TRIPOS>SUBSTRUCTURE
     1 ALC1        7 GROUP        1 X    ALC  0     ROOT ALC X 1
     2 SEC2       15 GROUP        1 X    SEC  0     **** SEC X 2
     3 GLC5        1 GROUP        1 X    GLC  0     **** GLC X 6
     4 ALP1        9 GROUP        1 Y    ALP  0     ROOT ALP Y 8
     5 SEP2       17 GROUP        1 Y    SEP  0     **** SEP Y 9
     6 GLP5        3 GROUP        1 Y    GLP  0     **** GLP Y 13
     7 ALL1        8 GROUP        1 Z    ALL  0     ROOT ALL Z 15
     8 SEL2       16 GROUP        1 Z    SEL  0     **** SEL Z 16
     9 GLL5        2 GROUP        1 Z    GLL  0     **** GLL Z 20
@<TRIPOS>SET

