#    Name: 3h10_97B_1_ligand
#    Modification time : Tue Mar 25 13:27:50 2014

@<TRIPOS>MOLECULE
3h10_97B_1_ligand
   66    71     1     0     0
SMALL
NO_CHARGES


@<TRIPOS>ATOM
      1 O1         -0.4360  -14.0910  -31.4000 O.2       1 97B1        0.0000 
      2 C20         0.2200  -15.0380  -30.9640 C.2       1 97B1        0.0000 
      3 N5         -0.3430  -16.2570  -30.9220 N.am      1 97B1        0.0000 
      4 C24        -1.7410  -16.4300  -30.5020 C.3       1 97B1        0.0000 
      5 C23        -1.7600  -17.4930  -29.3920 C.3       1 97B1        0.0000 
      6 N6         -1.1570  -18.7520  -29.8870 N.4       1 97B1        0.0000 
      7 C25        -1.2210  -19.8230  -28.8730 C.3       1 97B1        0.0000 
      8 C22         0.2450  -18.4910  -30.2890 C.3       1 97B1        0.0000 
      9 C21         0.3360  -17.4590  -31.4150 C.3       1 97B1        0.0000 
     10 C17         1.6490  -14.8590  -30.4650 C.ar      1 97B1        0.0000 
     11 C18         2.6360  -14.3480  -31.3110 C.ar      1 97B1        0.0000 
     12 C19         3.9400  -14.1860  -30.8680 C.ar      1 97B1        0.0000 
     13 C16         2.0030  -15.2410  -29.1680 C.ar      1 97B1        0.0000 
     14 C15         3.3150  -15.0830  -28.7220 C.ar      1 97B1        0.0000 
     15 C14         4.2880  -14.5430  -29.5680 C.ar      1 97B1        0.0000 
     16 N4          5.4130  -14.0950  -28.9500 N.pl3     1 97B1        0.0000 
     17 C13         6.5290  -13.5890  -29.5150 C.ar      1 97B1        0.0000 
     18 N3          6.6080  -13.2990  -30.8440 N.ar      1 97B1        0.0000 
     19 N2          7.5720  -13.3320  -28.7110 N.ar      1 97B1        0.0000 
     20 C12         8.7080  -12.8280  -29.2230 C.ar      1 97B1        0.0000 
     21 C9          8.8070  -12.5300  -30.5670 C.ar      1 97B1        0.0000 
     22 C10         7.7310  -12.8030  -31.3840 C.ar      1 97B1        0.0000 
     23 C8         10.1040  -11.9730  -31.1400 C.3       1 97B1        0.0000 
     24 N1          9.8530  -10.6810  -31.7340 N.2       1 97B1        0.0000 
     25 C7          9.1240  -10.4150  -32.7320 C.2       1 97B1        0.0000 
     26 C2          8.3540  -11.4600  -33.4740 C.ar      1 97B1        0.0000 
     27 C3          7.7200  -12.5450  -32.8490 C.ar      1 97B1        0.0000 
     28 C4          6.9830  -13.4460  -33.6080 C.ar      1 97B1        0.0000 
     29 C5          6.8960  -13.2630  -34.9580 C.ar      1 97B1        0.0000 
     30 C1          8.2480  -11.2810  -34.8470 C.ar      1 97B1        0.0000 
     31 C6          7.5120  -12.2060  -35.5740 C.ar      1 97B1        0.0000 
     32 CL1         7.3950  -12.0270  -37.3300 Cl        1 97B1        0.0000 
     33 C11         8.9170   -9.0000  -33.2000 C.ar      1 97B1        0.0000 
     34 C26         7.6520   -8.4360  -33.1110 C.ar      1 97B1        0.0000 
     35 F2          6.6410   -9.1570  -32.5870 F         1 97B1        0.0000 
     36 C27         7.4390   -7.1300  -33.5510 C.ar      1 97B1        0.0000 
     37 C28         8.4850   -6.3820  -34.0860 C.ar      1 97B1        0.0000 
     38 C29         9.7410   -6.9600  -34.1960 C.ar      1 97B1        0.0000 
     39 C30         9.9420   -8.2640  -33.7520 C.ar      1 97B1        0.0000 
     40 F1         11.1190   -8.8330  -33.8510 F         1 97B1        0.0000 
     41 H          -2.3533  -16.7801  -31.3205 H         1 97B1        0.0000 
     42 H          -2.1442  -15.5110  -30.1016 H         1 97B1        0.0000 
     43 H          -2.7941  -17.6557  -29.0899 H         1 97B1        0.0000 
     44 H          -1.2010  -17.1092  -28.5393 H         1 97B1        0.0000 
     45 H          -1.7111  -19.0719  -30.7768 H         1 97B1        0.0000 
     46 H           0.7219  -19.4197  -30.6318 H         1 97B1        0.0000 
     47 H           0.8239  -18.1196  -29.4321 H         1 97B1        0.0000 
     48 H           1.3748  -17.2640  -31.6197 H         1 97B1        0.0000 
     49 H          -0.1568  -17.8559  -32.2859 H         1 97B1        0.0000 
     50 H           2.3864  -14.0881  -32.2805 H         1 97B1        0.0000 
     51 H           4.6555  -13.8004  -31.5010 H         1 97B1        0.0000 
     52 H           1.2923  -15.6400  -28.5410 H         1 97B1        0.0000 
     53 H           3.5694  -15.3648  -27.7659 H         1 97B1        0.0000 
     54 H           5.4094  -14.1538  -27.8546 H         1 97B1        0.0000 
     55 H           9.5344  -12.6541  -28.6099 H         1 97B1        0.0000 
     56 H          10.4829  -12.6842  -31.8792 H         1 97B1        0.0000 
     57 H          10.8328  -11.9029  -30.3277 H         1 97B1        0.0000 
     58 H           6.5140  -14.2356  -33.1488 H         1 97B1        0.0000 
     59 H           6.3491  -13.9416  -35.5346 H         1 97B1        0.0000 
     60 H           8.6975  -10.4936  -35.3067 H         1 97B1        0.0000 
     61 H           6.4974   -6.7146  -33.4792 H         1 97B1        0.0000 
     62 H           8.3264   -5.4197  -34.3929 H         1 97B1        0.0000 
     63 H          10.5207   -6.4303  -34.6028 H         1 97B1        0.0000 
     64 H          -0.8170  -20.6748  -29.2065 H         1 97B1        0.0000 
     65 H          -0.7309  -19.5735  -28.0378 H         1 97B1        0.0000 
     66 H          -2.1634  -20.0291  -28.6094 H         1 97B1        0.0000 
@<TRIPOS>BOND
     1    2    1 2    
     2    3    2 am   
     3   10    2 1    
     4    4    3 1    
     5    9    3 1    
     6    5    4 1    
     7   41    4 1    
     8   42    4 1    
     9    6    5 1    
    10   43    5 1    
    11   44    5 1    
    12    7    6 1    
    13    8    6 1    
    14   45    6 1    
    15   64    7 1    
    16   65    7 1    
    17   66    7 1    
    18    9    8 1    
    19   46    8 1    
    20   47    8 1    
    21   48    9 1    
    22   49    9 1    
    23   11   10 ar   
    24   13   10 ar   
    25   12   11 ar   
    26   50   11 1    
    27   15   12 ar   
    28   51   12 1    
    29   14   13 ar   
    30   52   13 1    
    31   15   14 ar   
    32   53   14 1    
    33   16   15 1    
    34   17   16 1    
    35   54   16 1    
    36   18   17 ar   
    37   19   17 ar   
    38   22   18 ar   
    39   20   19 ar   
    40   21   20 ar   
    41   55   20 1    
    42   22   21 ar   
    43   23   21 1    
    44   27   22 1    
    45   24   23 1    
    46   56   23 1    
    47   57   23 1    
    48   25   24 2    
    49   26   25 1    
    50   33   25 1    
    51   27   26 ar   
    52   30   26 ar   
    53   28   27 ar   
    54   29   28 ar   
    55   58   28 1    
    56   31   29 ar   
    57   59   29 1    
    58   31   30 ar   
    59   60   30 1    
    60   32   31 1    
    61   34   33 ar   
    62   39   33 ar   
    63   35   34 1    
    64   36   34 ar   
    65   37   36 ar   
    66   61   36 1    
    67   38   37 ar   
    68   62   37 1    
    69   39   38 ar   
    70   63   38 1    
    71   40   39 1    
@<TRIPOS>SUBSTRUCTURE
     1 97B1        1 GROUP   
@<TRIPOS>SET

