#    Name: 3kf7_L9G_1_INTS_M
#    Modification time : Mon Mar 24 19:25:05 2014

@<TRIPOS>MOLECULE
3kf7_L9G_1_INTS_M
   81     0     6     0     0
SMALL
NO_CHARGES


@<TRIPOS>ATOM
      1 CA         33.7425   39.8190   18.1105 C.3       2 GLC5        0.0000 
      2 CA         35.0480   39.4460   19.7000 C.3       6 GLL5        0.0000 
      3 CA         32.4370   40.1920   16.5210 C.3       4 GLP5        0.0000 
      4 CA         32.7000   37.0090   21.1020 C.3       2 GLC5        0.0000 
      5 CA         34.7200   37.3760   21.7200 C.3       6 GLL5        0.0000 
      6 CA         30.6800   36.6420   20.4840 C.3       4 GLP5        0.0000 
      7 CA         34.5010   37.7390   17.3875 C.3       2 GLC5        0.0000 
      8 CA         35.0990   38.0870   19.4320 C.3       6 GLL5        0.0000 
      9 CA         33.9030   37.3910   15.3430 C.3       4 GLP5        0.0000 
     10 N          34.7935   42.4215   22.0410 N.am      1 SEC2        0.0000 
     11 N          34.6670   40.9230   21.7970 N.am      5 SEL2        0.0000 
     12 N          34.9200   43.9200   22.2850 N.am      3 SEP2        0.0000 
     13 N          34.6760   42.2920   22.7020 N.am      1 SEC2        0.0000 
     14 N          34.4320   40.6640   23.1190 N.am      5 SEL2        0.0000 
     15 N          34.2705   41.8575   23.9740 N.am      1 SEC2        0.0000 
     16 N          34.1090   43.0510   24.8290 N.am      3 SEP2        0.0000 
     17 CA         37.5210   34.2295   21.0385 C.3       2 GLC5        0.0000 
     18 CA         36.4500   35.1530   19.7320 C.3       6 GLL5        0.0000 
     19 CA         38.5920   33.3060   22.3450 C.3       4 GLP5        0.0000 
     20 CA         40.7620   37.2850   18.6140 C.3       2 GLC5        0.0000 
     21 CA         38.8080   37.1310   17.5570 C.3       6 GLL5        0.0000 
     22 CA         42.7160   37.4390   19.6710 C.3       4 GLP5        0.0000 
     23 CA         36.8955   35.7455   14.2680 C.3       2 GLC5        0.0000 
     24 CA         37.0600   36.2650   16.1730 C.3       6 GLL5        0.0000 
     25 CA         36.7310   35.2260   12.3630 C.3       4 GLP5        0.0000 
     26 CA         37.5330   33.7615   17.3820 C.3       2 GLC5        0.0000 
     27 CA         36.4830   35.6550   17.2710 C.3       6 GLL5        0.0000 
     28 CA         38.5830   31.8680   17.4930 C.3       4 GLP5        0.0000 
     29 CA         39.0175   36.1635   21.4920 C.3       2 GLC5        0.0000 
     30 CA         38.8320   36.6900   19.8110 C.3       6 GLL5        0.0000 
     31 CA         39.2030   35.6370   23.1730 C.3       4 GLP5        0.0000 
     32 CA         40.7740   37.0645   19.7410 C.3       2 GLC5        0.0000 
     33 CA         39.4920   35.1345   19.1450 C.3       2 GLC5        0.0000 
     34 CA         40.1520   33.5790   18.4790 C.3       4 GLP5        0.0000 
     35 CA         37.7690   36.4115   13.8305 C.3       2 GLC5        0.0000 
     36 CA         38.8070   37.5970   15.2980 C.3       6 GLL5        0.0000 
     37 CA         39.0905   37.8050   13.5065 C.3       2 GLC5        0.0000 
     38 CA         39.3740   38.0130   11.7150 C.3       4 GLP5        0.0000 
     39 CA         38.2100   39.2630   15.6140 C.3       2 GLC5        0.0000 
     40 CA         37.6130   40.9290   15.9300 C.3       4 GLP5        0.0000 
     41 CA         36.4790   40.5435   24.8950 C.3       2 GLC5        0.0000 
     42 CA         35.0790   39.1970   25.6360 C.3       6 GLL5        0.0000 
     43 CA         37.8790   41.8900   24.1540 C.3       4 GLP5        0.0000 
     44 CA         36.8390   37.8090   27.3515 C.3       2 GLC5        0.0000 
     45 CA         34.8940   38.7980   26.9410 C.3       6 GLL5        0.0000 
     46 CA         38.7840   36.8200   27.7620 C.3       4 GLP5        0.0000 
     47 CA         30.7310   37.4540   26.0015 C.3       2 GLC5        0.0000 
     48 CA         32.9300   37.6150   26.3140 C.3       6 GLL5        0.0000 
     49 CA         28.5320   37.2930   25.6890 C.3       4 GLP5        0.0000 
     50 CA         30.3070   37.4500   24.8320 C.3       2 GLC5        0.0000 
     51 CA         32.0820   37.6070   23.9750 C.3       6 GLL5        0.0000 
     52 CA         31.3615   39.0925   22.6235 C.3       2 GLC5        0.0000 
     53 CA         30.6410   40.5780   21.2720 C.3       4 GLP5        0.0000 
     54 CA         31.3810   37.1245   22.2295 C.3       2 GLC5        0.0000 
     55 CA         36.9433   39.2218   20.3230 C.3       2 GLC5        0.0000 
     56 CA         38.8130   39.6770   21.0800 C.3       4 GLP5        0.0000 
     57 CA         36.1778   39.5213   18.4220 C.3       2 GLC5        0.0000 
     58 CA         37.2820   40.2760   17.2780 C.3       4 GLP5        0.0000 
     59 CA         33.3197   38.3598   19.0675 C.3       2 GLC5        0.0000 
     60 CA         31.5660   37.9530   18.5690 C.3       4 GLP5        0.0000 
     61 CA         33.2793   37.1613   19.3820 C.3       2 GLC5        0.0000 
     62 CA         34.9520   37.0970   20.3870 C.3       6 GLL5        0.0000 
     63 CA         38.4530   34.5273   18.8030 C.3       2 GLC5        0.0000 
     64 CA         37.8982   38.5548   17.6875 C.3       2 GLC5        0.0000 
     65 CA         38.2210   36.5360   18.6370 C.3       6 GLL5        0.0000 
     66 CA         39.2594   35.2459   17.8455 C.3       2 GLC5        0.0000 
     67 CA         38.2190   36.9920   16.3270 C.3       6 GLL5        0.0000 
     68 CA         37.4608   38.4522   16.7640 C.3       2 GLC5        0.0000 
     69 CA         35.4821   36.7664   16.0518 C.3       2 GLC5        0.0000 
     70 CA         38.7431   38.2194   20.0170 C.3       2 GLC5        0.0000 
     71 CA         39.8151   36.2796   15.1320 C.3       2 GLC5        0.0000 
     72 CA         40.9700   35.2300   14.1440 C.3       4 GLP5        0.0000 
     73 CA         40.2826   38.4041   15.9025 C.3       2 GLC5        0.0000 
     74 CA         41.9050   39.4790   15.6850 C.3       4 GLP5        0.0000 
     75 CA         32.9887   39.9555   26.1793 C.3       2 GLC5        0.0000 
     76 CA         31.3470   40.9030   27.2100 C.3       4 GLP5        0.0000 
     77 CA         34.6241   40.8550   26.1344 C.3       2 GLC5        0.0000 
     78 CA         34.1820   38.8190   24.6610 C.3       6 GLL5        0.0000 
     79 CA         34.4860   42.8070   26.2240 C.3       4 GLP5        0.0000 
     80 CA         32.8530   39.6542   27.1662 C.3       2 GLC5        0.0000 
     81 CA         32.1810   39.3612   26.4333 C.3       2 GLC5        0.0000 
@<TRIPOS>BOND
@<TRIPOS>SUBSTRUCTURE
     1 SEC2       10 GROUP        1 X    SEC  0     ROOT SEC X 2
     2 GLC5        1 GROUP        1 X    GLC  0     **** GLC X 6
     3 SEP2       12 GROUP        1 Y    SEP  0     ROOT SEP Y 9
     4 GLP5        3 GROUP        1 Y    GLP  0     **** GLP Y 13
     5 SEL2       11 GROUP        1 Z    SEL  0     ROOT SEL Z 16
     6 GLL5        2 GROUP        1 Z    GLL  0     **** GLL Z 20
@<TRIPOS>SET

