#    Name: 3kf7_L9G_1_ligand
#    Modification time : Mon Mar 24 19:25:05 2014

@<TRIPOS>MOLECULE
3kf7_L9G_1_ligand
   47    50     1     0     0
SMALL
NO_CHARGES


@<TRIPOS>ATOM
      1 C1         35.0480   39.4460   19.7000 C.2       1 L9G401      0.0000 
      2 C2         34.7890   39.7550   21.1720 C.2       1 L9G401      0.0000 
      3 N3         34.6380   38.7990   22.0790 N.pl3     1 L9G401      0.0000 
      4 C4         34.7200   37.3760   21.7200 C.2       1 L9G401      0.0000 
      5 C5         34.9520   37.0970   20.3870 C.2       1 L9G401      0.0000 
      6 C6         35.0990   38.0870   19.4320 C.2       1 L9G401      0.0000 
      7 C7         34.4230   39.3940   23.3060 C.2       1 L9G401      0.0000 
      8 N8         34.6670   40.9230   21.7970 N.2       1 L9G401      0.0000 
      9 N9         34.4320   40.6640   23.1190 N.2       1 L9G401      0.0000 
     10 C10        35.0330   35.6420   20.0030 C.3       1 L9G401      0.0000 
     11 C11        36.4500   35.1530   19.7320 C.3       1 L9G401      0.0000 
     12 C12        37.0580   35.7980   18.5220 C.ar      1 L9G401      0.0000 
     13 C13        38.2210   36.5360   18.6370 C.ar      1 L9G401      0.0000 
     14 C14        38.8080   37.1310   17.5570 C.ar      1 L9G401      0.0000 
     15 C15        38.2190   36.9920   16.3270 C.ar      1 L9G401      0.0000 
     16 C16        37.0600   36.2650   16.1730 C.ar      1 L9G401      0.0000 
     17 C17        36.4830   35.6550   17.2710 C.ar      1 L9G401      0.0000 
     18 F18        38.8320   36.6900   19.8110 F         1 L9G401      0.0000 
     19 F19        38.8070   37.5970   15.2980 F         1 L9G401      0.0000 
     20 C20        34.1820   38.8190   24.6610 C.ar      1 L9G401      0.0000 
     21 C21        35.0790   39.1970   25.6360 C.ar      1 L9G401      0.0000 
     22 C22        34.8940   38.7980   26.9410 C.ar      1 L9G401      0.0000 
     23 C23        33.8240   38.0130   27.3040 C.ar      1 L9G401      0.0000 
     24 C24        32.9300   37.6150   26.3140 C.ar      1 L9G401      0.0000 
     25 C25        33.1000   38.0240   24.9990 C.ar      1 L9G401      0.0000 
     26 C26        35.9200   39.2670   27.9010 C.2       1 L9G401      0.0000 
     27 N27        35.8070   38.7430   29.1580 N.am      1 L9G401      0.0000 
     28 O28        36.7690   40.0650   27.5170 O.2       1 L9G401      0.0000 
     29 C29        32.0820   37.6070   23.9750 C.3       1 L9G401      0.0000 
     30 H          35.1546   40.1687   19.0797 H         1 L9G401      0.0000 
     31 H          34.6095   36.6891   22.4243 H         1 L9G401      0.0000 
     32 H          35.2616   37.7873   18.4274 H         1 L9G401      0.0000 
     33 H          34.4195   35.4670   19.1009 H         1 L9G401      0.0000 
     34 H          34.5938   35.0261   20.8083 H         1 L9G401      0.0000 
     35 H          36.4277   34.0619   19.5980 H         1 L9G401      0.0000 
     36 H          37.0710   35.3628   20.6147 H         1 L9G401      0.0000 
     37 H          39.6742   37.6728   17.6618 H         1 L9G401      0.0000 
     38 H          36.6229   36.1746   15.2448 H         1 L9G401      0.0000 
     39 H          35.6259   35.0944   17.1593 H         1 L9G401      0.0000 
     40 H          35.8943   39.7826   25.3866 H         1 L9G401      0.0000 
     41 H          33.6828   37.7260   28.2716 H         1 L9G401      0.0000 
     42 H          32.1313   37.0080   26.5632 H         1 L9G401      0.0000 
     43 H          36.4669   39.0727   29.8331 H         1 L9G401      0.0000 
     44 H          35.0743   38.0758   29.2924 H         1 L9G401      0.0000 
     45 H          32.4956   37.0776   23.2343 H         1 L9G401      0.0000 
     46 H          31.3634   37.0386   24.3757 H         1 L9G401      0.0000 
     47 H          31.6322   38.3957   23.5559 H         1 L9G401      0.0000 
@<TRIPOS>BOND
     1    2    1 1    
     2    6    1 2    
     3   30    1 1    
     4    3    2 1    
     5    8    2 2    
     6    4    3 1    
     7    7    3 1    
     8    5    4 2    
     9   31    4 1    
    10    6    5 1    
    11   10    5 1    
    12   32    6 1    
    13    9    7 2    
    14   20    7 1    
    15    9    8 1    
    16   11   10 1    
    17   33   10 1    
    18   34   10 1    
    19   12   11 1    
    20   35   11 1    
    21   36   11 1    
    22   13   12 ar   
    23   17   12 ar   
    24   14   13 ar   
    25   18   13 1    
    26   15   14 ar   
    27   37   14 1    
    28   16   15 ar   
    29   19   15 1    
    30   17   16 ar   
    31   38   16 1    
    32   39   17 1    
    33   21   20 ar   
    34   25   20 ar   
    35   22   21 ar   
    36   40   21 1    
    37   23   22 ar   
    38   26   22 1    
    39   24   23 ar   
    40   41   23 1    
    41   25   24 ar   
    42   42   24 1    
    43   29   25 1    
    44   27   26 am   
    45   28   26 2    
    46   43   27 1    
    47   44   27 1    
    48   45   29 1    
    49   46   29 1    
    50   47   29 1    
@<TRIPOS>SUBSTRUCTURE
     1 L9G401      1 GROUP   
@<TRIPOS>SET

