#    Name: 4iaq_2GM_1_INTS_M
#    Modification time : Tue Mar 25 03:32:50 2014

@<TRIPOS>MOLECULE
4iaq_2GM_1_INTS_M
   97     0    12     0     0
SMALL
NO_CHARGES


@<TRIPOS>ATOM
      1 CA        -23.7520    9.9930   22.1165 C.3       4 GLC5        0.0000 
      2 CA        -22.3420    8.3580   21.8580 C.3      12 GLL5        0.0000 
      3 CA        -25.1620   11.6280   22.3750 C.3       8 GLP5        0.0000 
      4 CA        -24.7100    1.2210   23.7390 C.3       4 GLC5        0.0000 
      5 CA        -23.6880    3.1020   23.6590 C.3      12 GLL5        0.0000 
      6 CA        -25.7320   -0.6600   23.8190 C.3       8 GLP5        0.0000 
      7 CA        -23.9950    2.4060   25.6590 C.3       4 GLC5        0.0000 
      8 CA        -24.3020    1.7100   27.6590 C.3       8 GLP5        0.0000 
      9 CA        -24.8800    4.6295   21.6545 C.3       4 GLC5        0.0000 
     10 CA        -22.6610    4.4610   21.6540 C.3      12 GLL5        0.0000 
     11 CA        -27.0990    4.7980   21.6550 C.3       8 GLP5        0.0000 
     12 CA        -23.0765    2.9460   20.9860 C.3       4 GLC5        0.0000 
     13 CA        -23.4920    1.4310   20.3180 C.3       8 GLP5        0.0000 
     14 CA        -21.1620    3.0955   21.0605 C.3       4 GLC5        0.0000 
     15 CA        -19.6630    1.7300   20.4670 C.3       8 GLP5        0.0000 
     16 CA        -20.4770    6.7035   22.3505 C.3       4 GLC5        0.0000 
     17 CA        -21.9180    5.8040   21.5990 C.3      12 GLL5        0.0000 
     18 CA        -19.0360    7.6030   23.1020 C.3       8 GLP5        0.0000 
     19 OD1       -22.3780    6.6140   18.8375 O.co2     3 ASC3        0.0000 
     20 OD1       -21.2840    6.0290   20.2040 O.co2    11 ASL3        0.0000 
     21 OD1       -23.4720    7.1990   17.4710 O.co2     7 ASP3        0.0000 
     22 OD1       -22.5315    5.7070   19.4315 O.co2     3 ASC3        0.0000 
     23 OD1       -23.7790    5.3850   18.6590 O.co2     7 ASP3        0.0000 
     24 O         -22.5315    5.7070   19.4315 O.2       1 ALC1        0.0000 
     25 O         -21.2840    6.0290   20.2040 O.2       9 ALL1        0.0000 
     26 O         -23.7790    5.3850   18.6590 O.2       5 ALP1        0.0000 
     27 CA        -19.4390    3.8405   20.6710 C.3       4 GLC5        0.0000 
     28 CA        -20.0460    5.3110   19.9460 C.3      12 GLL5        0.0000 
     29 CA        -18.8320    2.3700   21.3960 C.3       8 GLP5        0.0000 
     30 CA        -19.5410    6.4570   21.5240 C.3       4 GLC5        0.0000 
     31 CA        -18.2245    5.8760   19.1890 C.3       4 GLC5        0.0000 
     32 CA        -16.4030    6.4410   18.4320 C.3       8 GLP5        0.0000 
     33 CA        -20.4640    4.9240   18.0375 C.3       4 GLC5        0.0000 
     34 CA        -20.8820    4.5370   16.1290 C.3       8 GLP5        0.0000 
     35 CA        -19.2035    8.1000   19.4605 C.3       4 GLC5        0.0000 
     36 CA        -20.9560    7.4750   19.9030 C.3      12 GLL5        0.0000 
     37 CA        -17.4510    8.7250   19.0180 C.3       8 GLP5        0.0000 
     38 CA        -21.5680   14.4780   19.6690 C.3       4 GLC5        0.0000 
     39 CA        -21.3990   12.2910   19.2980 C.3      12 GLL5        0.0000 
     40 CA        -21.7370   16.6650   20.0400 C.3       8 GLP5        0.0000 
     41 CA        -21.6995   14.1480   16.5370 C.3       4 GLC5        0.0000 
     42 CA        -22.2410   12.9830   18.2460 C.3      12 GLL5        0.0000 
     43 CA        -21.1580   15.3130   14.8280 C.3       8 GLP5        0.0000 
     44 CA        -23.3945   12.4810   16.6955 C.3       4 GLC5        0.0000 
     45 CA        -24.5480   11.9790   15.1450 C.3       8 GLP5        0.0000 
     46 CA        -24.1115   12.6575   18.5435 C.3       4 GLC5        0.0000 
     47 CA        -25.9820   12.3320   18.8410 C.3       8 GLP5        0.0000 
     48 CA        -23.2065   14.4570   19.1985 C.3       4 GLC5        0.0000 
     49 CA        -24.1720   15.9310   20.1510 C.3       8 GLP5        0.0000 
     50 N         -23.6135   13.9205   21.6245 N.am      2 SEC2        0.0000 
     51 N         -22.2600   13.3630   21.2730 N.am     10 SEL2        0.0000 
     52 N         -24.9670   14.4780   21.9760 N.am      6 SEP2        0.0000 
     53 CA        -15.4000   12.3565   17.7105 C.3       4 GLC5        0.0000 
     54 CA        -16.7730   13.6500   18.5840 C.3      12 GLL5        0.0000 
     55 CA        -14.0270   11.0630   16.8370 C.3       8 GLP5        0.0000 
     56 CA        -14.6045   16.3230   18.6035 C.3       4 GLC5        0.0000 
     57 CA        -16.1600   15.1410   18.4940 C.3      12 GLL5        0.0000 
     58 CA        -13.0490   17.5050   18.7130 C.3       8 GLP5        0.0000 
     59 CA        -15.9285   17.4215   19.3430 C.3       4 GLC5        0.0000 
     60 CA        -16.8040   15.8710   19.6450 C.3      12 GLL5        0.0000 
     61 CA        -15.0530   18.9720   19.0410 C.3       8 GLP5        0.0000 
     62 CA        -20.6065   15.3875   20.9915 C.3       4 GLC5        0.0000 
     63 CA        -19.4760   14.1100   21.9430 C.3      12 GLL5        0.0000 
     64 CA        -17.7700   12.6075   24.0220 C.3       4 GLC5        0.0000 
     65 CA        -19.0900   13.4480   23.2650 C.3      12 GLL5        0.0000 
     66 CA        -16.4500   11.7670   24.7790 C.3       8 GLP5        0.0000 
     67 CA        -20.8143    7.6273   22.5420 C.3       4 GLC5        0.0000 
     68 CA        -25.1420    6.5895   22.9758 C.3       4 GLC5        0.0000 
     69 CA        -22.8430    6.9450   22.1060 C.3      12 GLL5        0.0000 
     70 CA        -26.8640    7.1190   22.6700 C.3       8 GLP5        0.0000 
     71 CA        -25.5418    7.2410   23.8685 C.3       4 GLC5        0.0000 
     72 CA        -23.9100    7.5930   24.4550 C.3      12 GLL5        0.0000 
     73 CA        -25.4213    6.6655   27.7655 C.3       4 GLC5        0.0000 
     74 CA        -24.5290    7.1330   25.6790 C.3      12 GLL5        0.0000 
     75 CA        -26.2350    6.8890   29.7420 C.3       8 GLP5        0.0000 
     76 CA        -26.1715    5.2953   24.7303 C.3       4 GLC5        0.0000 
     77 CA        -24.6860    5.7510   25.8990 C.3      12 GLL5        0.0000 
     78 CA        -27.8670    5.2790   24.0390 C.3       8 GLP5        0.0000 
     79 CA        -24.3890    3.5107   26.5403 C.3       4 GLC5        0.0000 
     80 CA        -25.3002    4.2345   22.4858 C.3       4 GLC5        0.0000 
     81 CA        -23.4967    2.5510   21.8173 C.3       4 GLC5        0.0000 
     82 CA        -23.3150    4.2400   22.9740 C.3      12 GLL5        0.0000 
     83 CA        -20.2390    7.8060   21.6290 C.3       4 GLC5        0.0000 
     84 CA        -19.3113   10.0720   25.9697 C.3       4 GLC5        0.0000 
     85 CA        -20.0320   11.3240   24.2750 C.3      12 GLL5        0.0000 
     86 CA        -18.0850    9.1770   27.3400 C.3       8 GLP5        0.0000 
     87 CA        -19.3194   13.0985   25.7748 C.3       4 GLC5        0.0000 
     88 CA        -18.7970   14.0000   27.6030 C.3       8 GLP5        0.0000 
     89 CA        -20.8812   14.1683   25.9672 C.3       4 GLC5        0.0000 
     90 CA        -22.4160   12.6290   25.0290 C.3      12 GLL5        0.0000 
     91 CA        -19.8540   15.3480   27.2340 C.3       8 GLP5        0.0000 
     92 CA        -23.6920   12.5981   24.1514 C.3       4 GLC5        0.0000 
     93 CA        -21.4010   13.3480   24.3720 C.3      12 GLL5        0.0000 
     94 CA        -25.5230   12.5480   23.5370 C.3       8 GLP5        0.0000 
     95 CA        -15.6491   13.6359   20.0570 C.3       4 GLC5        0.0000 
     96 CA        -18.1680   13.9810   19.2330 C.3      12 GLL5        0.0000 
     97 CA        -14.3220   12.6110   21.1250 C.3       8 GLP5        0.0000 
@<TRIPOS>BOND
@<TRIPOS>SUBSTRUCTURE
     1 ALC1       24 GROUP        1 X    ALC  0     ROOT ALC X 1
     2 SEC2       50 GROUP        1 X    SEC  0     **** SEC X 2
     3 ASC3       19 GROUP        1 X    ASC  0     **** ASC X 3
     4 GLC5        1 GROUP        1 X    GLC  0     **** GLC X 6
     5 ALP1       26 GROUP        1 Y    ALP  0     ROOT ALP Y 8
     6 SEP2       52 GROUP        1 Y    SEP  0     **** SEP Y 9
     7 ASP3       21 GROUP        1 Y    ASP  0     **** ASP Y 10
     8 GLP5        3 GROUP        1 Y    GLP  0     **** GLP Y 13
     9 ALL1       25 GROUP        1 Z    ALL  0     ROOT ALL Z 15
    10 SEL2       51 GROUP        1 Z    SEL  0     **** SEL Z 16
    11 ASL3       20 GROUP        1 Z    ASL  0     **** ASL Z 17
    12 GLL5        2 GROUP        1 Z    GLL  0     **** GLL Z 20
@<TRIPOS>SET

