#    Name: 4iaq_2GM_1_ligand
#    Modification time : Tue Mar 25 03:32:51 2014

@<TRIPOS>MOLECULE
4iaq_2GM_1_ligand
   81    88     1     0     0
SMALL
NO_CHARGES


@<TRIPOS>ATOM
      1 C10       -22.3420    8.3580   21.8580 C.3       1 2GM2001     0.0000 
      2 C11       -22.8430    6.9450   22.1060 C.3       1 2GM2001     0.0000 
      3 C12       -23.4630    6.6390   23.4800 C.ar      1 2GM2001     0.0000 
      4 C17       -23.6870    5.3280   23.7700 C.ar      1 2GM2001     0.0000 
      5 C13       -23.9100    7.5930   24.4550 C.ar      1 2GM2001     0.0000 
      6 C14       -24.5290    7.1330   25.6790 C.ar      1 2GM2001     0.0000 
      7 C15       -24.6860    5.7510   25.8990 C.ar      1 2GM2001     0.0000 
      8 C16       -24.2660    4.8720   24.9440 C.ar      1 2GM2001     0.0000 
      9 N1        -24.2860    3.4730   24.8370 N.pl3     1 2GM2001     0.0000 
     10 C2        -23.6880    3.1020   23.6590 C.2       1 2GM2001     0.0000 
     11 C3        -23.3150    4.2400   22.9740 C.2       1 2GM2001     0.0000 
     12 C4        -22.6610    4.4610   21.6540 C.3       1 2GM2001     0.0000 
     13 C5        -21.9180    5.8040   21.5990 C.3       1 2GM2001     0.0000 
     14 N6        -21.2840    6.0290   20.2040 N.4       1 2GM2001     0.0000 
     15 C7        -20.0460    5.3110   19.9460 C.3       1 2GM2001     0.0000 
     16 C8        -20.9560    7.4750   19.9030 C.3       1 2GM2001     0.0000 
     17 C9        -21.9280    8.5430   20.4090 C.3       1 2GM2001     0.0000 
     18 C18       -21.2490    9.8980   20.2910 C.2       1 2GM2001     0.0000 
     19 O19       -20.1690   10.1000   20.8480 O.2       1 2GM2001     0.0000 
     20 N20       -21.9620   10.9300   19.5000 N.am      1 2GM2001     0.0000 
     21 C21       -21.3990   12.2910   19.2980 C.3       1 2GM2001     0.0000 
     22 C22       -22.2410   12.9830   18.2460 C.3       1 2GM2001     0.0000 
     23 O43       -19.9590   12.2080   18.7880 O.3       1 2GM2001     0.0000 
     24 C23       -21.2850   13.0700   20.5700 C.2       1 2GM2001     0.0000 
     25 O24       -22.2600   13.3630   21.2730 O.2       1 2GM2001     0.0000 
     26 N25       -19.9980   13.3240   20.7670 N.am      1 2GM2001     0.0000 
     27 C41       -19.0830   12.8690   19.8090 C.3       1 2GM2001     0.0000 
     28 O42       -18.2640   11.8930   20.3390 O.3       1 2GM2001     0.0000 
     29 C40       -18.1680   13.9810   19.2330 C.3       1 2GM2001     0.0000 
     30 C39       -16.7730   13.6500   18.5840 C.3       1 2GM2001     0.0000 
     31 C38       -16.1600   15.1410   18.4940 C.3       1 2GM2001     0.0000 
     32 C37       -16.8040   15.8710   19.6450 C.3       1 2GM2001     0.0000 
     33 N36       -17.8330   14.9540   20.1170 N.am      1 2GM2001     0.0000 
     34 C34       -18.4330   15.0820   21.4280 C.2       1 2GM2001     0.0000 
     35 O35       -18.0740   15.9950   22.1890 O.2       1 2GM2001     0.0000 
     36 C26       -19.4760   14.1100   21.9430 C.3       1 2GM2001     0.0000 
     37 C27       -19.0900   13.4480   23.2650 C.3       1 2GM2001     0.0000 
     38 C28       -20.2130   12.6920   23.9710 C.ar      1 2GM2001     0.0000 
     39 C29       -20.0320   11.3240   24.2750 C.ar      1 2GM2001     0.0000 
     40 C30       -21.0430   10.6100   24.9240 C.ar      1 2GM2001     0.0000 
     41 C31       -22.2260   11.2680   25.2900 C.ar      1 2GM2001     0.0000 
     42 C32       -22.4160   12.6290   25.0290 C.ar      1 2GM2001     0.0000 
     43 C33       -21.4010   13.3480   24.3720 C.ar      1 2GM2001     0.0000 
     44 H         -21.4866    8.5562   22.5064 H         1 2GM2001     0.0000 
     45 H         -23.1336    9.0691   22.1013 H         1 2GM2001     0.0000 
     46 H         -23.7783    6.8431   21.3714 H         1 2GM2001     0.0000 
     47 H         -23.7950    8.5829   24.2918 H         1 2GM2001     0.0000 
     48 H         -24.8410    7.8128   26.3611 H         1 2GM2001     0.0000 
     49 H         -25.1132    5.4293   26.7731 H         1 2GM2001     0.0000 
     50 H         -24.6614    2.8860   25.4915 H         1 2GM2001     0.0000 
     51 H         -23.5504    2.2035   23.3584 H         1 2GM2001     0.0000 
     52 H         -23.4108    4.4483   20.8533 H         1 2GM2001     0.0000 
     53 H         -21.9405    3.6593   21.4497 H         1 2GM2001     0.0000 
     54 H         -21.0804    5.7218   22.3304 H         1 2GM2001     0.0000 
     55 H         -22.0280    5.7195   19.4393 H         1 2GM2001     0.0000 
     56 H         -20.8487    7.5979   18.7947 H         1 2GM2001     0.0000 
     57 H         -19.9390    7.7073   20.3114 H         1 2GM2001     0.0000 
     58 H         -22.8018    8.5543   19.7833 H         1 2GM2001     0.0000 
     59 H         -22.8557   10.7033   19.0860 H         1 2GM2001     0.0000 
     60 H         -18.7414   14.4788   18.3824 H         1 2GM2001     0.0000 
     61 H         -16.9046   13.2949   17.6265 H         1 2GM2001     0.0000 
     62 H         -16.1993   13.1023   19.2407 H         1 2GM2001     0.0000 
     63 H         -16.4533   15.5446   17.5647 H         1 2GM2001     0.0000 
     64 H         -15.1162   15.0586   18.6211 H         1 2GM2001     0.0000 
     65 H         -17.2328   16.7861   19.2866 H         1 2GM2001     0.0000 
     66 H         -16.0679   16.0535   20.4030 H         1 2GM2001     0.0000 
     67 H         -20.3646   14.8359   22.2170 H         1 2GM2001     0.0000 
     68 H         -18.6971   14.2255   23.9510 H         1 2GM2001     0.0000 
     69 H         -18.2498   12.7483   23.0806 H         1 2GM2001     0.0000 
     70 H         -19.1557   10.8610   24.0164 H         1 2GM2001     0.0000 
     71 H         -20.9233    9.6170   25.1310 H         1 2GM2001     0.0000 
     72 H         -22.9751   10.7328   25.7642 H         1 2GM2001     0.0000 
     73 H         -23.2759   13.0962   25.3093 H         1 2GM2001     0.0000 
     74 H         -21.5182   14.3454   24.1824 H         1 2GM2001     0.0000 
     75 H         -19.6909    5.5000   19.0305 H         1 2GM2001     0.0000 
     76 H         -19.3288    5.5618   20.5961 H         1 2GM2001     0.0000 
     77 H         -20.1698    4.3210   20.0137 H         1 2GM2001     0.0000 
     78 H         -21.9157   13.9103   18.0609 H         1 2GM2001     0.0000 
     79 H         -22.2288   12.4891   17.3766 H         1 2GM2001     0.0000 
     80 H         -23.1978   13.0586   18.5268 H         1 2GM2001     0.0000 
     81 H         -18.8743   11.1291   20.5488 H         1 2GM2001     0.0000 
@<TRIPOS>BOND
     1    2    1 1    
     2   17    1 1    
     3   44    1 1    
     4   45    1 1    
     5    3    2 1    
     6   13    2 1    
     7   46    2 1    
     8    4    3 ar   
     9    5    3 ar   
    10    8    4 ar   
    11   11    4 1    
    12    6    5 ar   
    13   47    5 1    
    14    7    6 ar   
    15   48    6 1    
    16    8    7 ar   
    17   49    7 1    
    18    9    8 1    
    19   10    9 1    
    20   50    9 1    
    21   11   10 2    
    22   51   10 1    
    23   12   11 1    
    24   13   12 1    
    25   52   12 1    
    26   53   12 1    
    27   14   13 1    
    28   54   13 1    
    29   15   14 1    
    30   16   14 1    
    31   55   14 1    
    32   75   15 1    
    33   76   15 1    
    34   77   15 1    
    35   17   16 1    
    36   56   16 1    
    37   57   16 1    
    38   18   17 1    
    39   58   17 1    
    40   19   18 2    
    41   20   18 am   
    42   21   20 1    
    43   59   20 1    
    44   22   21 1    
    45   23   21 1    
    46   24   21 1    
    47   78   22 1    
    48   79   22 1    
    49   80   22 1    
    50   27   23 1    
    51   25   24 2    
    52   26   24 am   
    53   27   26 1    
    54   36   26 1    
    55   28   27 1    
    56   29   27 1    
    57   81   28 1    
    58   30   29 1    
    59   33   29 1    
    60   60   29 1    
    61   31   30 1    
    62   61   30 1    
    63   62   30 1    
    64   32   31 1    
    65   63   31 1    
    66   64   31 1    
    67   33   32 1    
    68   65   32 1    
    69   66   32 1    
    70   34   33 am   
    71   35   34 2    
    72   36   34 1    
    73   37   36 1    
    74   67   36 1    
    75   38   37 1    
    76   68   37 1    
    77   69   37 1    
    78   39   38 ar   
    79   43   38 ar   
    80   40   39 ar   
    81   70   39 1    
    82   41   40 ar   
    83   71   40 1    
    84   42   41 ar   
    85   72   41 1    
    86   43   42 ar   
    87   73   42 1    
    88   74   43 1    
@<TRIPOS>SUBSTRUCTURE
     1 2GM2001     1 GROUP   
@<TRIPOS>SET

