#    Name: 3cj9_AMP_1_INTS_M
#    Modification time : Mon Mar 24 21:42:05 2014

@<TRIPOS>MOLECULE
3cj9_AMP_1_INTS_M
   49     0     9     0     0
SMALL
NO_CHARGES


@<TRIPOS>ATOM
      1 N          26.0205   35.9350   22.5180 N.am      2 SEC2        0.0000 
      2 N          25.5980   34.6720   22.7090 N.am      8 SEL2        0.0000 
      3 N          26.4430   37.1980   22.3270 N.am      5 SEP2        0.0000 
      4 N          27.2240   35.6985   22.2870 N.am      2 SEC2        0.0000 
      5 N          28.0050   34.1990   22.2470 N.am      8 SEL2        0.0000 
      6 N          29.0745   33.3830   21.8830 N.am      2 SEC2        0.0000 
      7 N          30.1440   32.5670   21.5190 N.am      5 SEP2        0.0000 
      8 CA         27.9975   31.8920   24.2920 C.3       3 GLC5        0.0000 
      9 CA         25.9500   32.2660   24.9000 C.3       9 GLL5        0.0000 
     10 CA         30.0450   31.5180   23.6840 C.3       6 GLP5        0.0000 
     11 CA         25.0445   35.4055   27.1990 C.3       3 GLC5        0.0000 
     12 CA         26.0810   33.4650   27.1630 C.3       9 GLL5        0.0000 
     13 CA         24.0080   37.3460   27.2350 C.3       6 GLP5        0.0000 
     14 N          26.6540   32.8445   29.9035 N.am      2 SEC2        0.0000 
     15 N          25.6990   33.0350   28.4780 N.am      8 SEL2        0.0000 
     16 N          27.6090   32.6540   31.3290 N.am      5 SEP2        0.0000 
     17 O          25.3030   33.4600   29.9155 O.2       1 ALC1        0.0000 
     18 O          25.6990   33.0350   28.4780 O.2       7 ALL1        0.0000 
     19 O          24.9070   33.8850   31.3530 O.2       4 ALP1        0.0000 
     20 O          24.7220   33.8330   29.0735 O.2       1 ALC1        0.0000 
     21 O          23.7450   34.6310   29.6690 O.2       4 ALP1        0.0000 
     22 N          29.1255   35.8975   28.2990 N.am      2 SEC2        0.0000 
     23 N          27.6990   34.9750   28.3840 N.am      8 SEL2        0.0000 
     24 N          30.5520   36.8200   28.2140 N.am      5 SEP2        0.0000 
     25 CA         27.8735   31.5955   28.5850 C.3       3 GLC5        0.0000 
     26 CA         28.3420   32.9430   27.3120 C.3       9 GLL5        0.0000 
     27 CA         27.4050   30.2480   29.8580 C.3       6 GLP5        0.0000 
     28 CA         29.4945   31.8680   25.9895 C.3       3 GLC5        0.0000 
     29 CA         30.6470   30.7930   24.6670 C.3       6 GLP5        0.0000 
     30 N          34.1195   31.3935   29.3145 N.am      2 SEC2        0.0000 
     31 N          33.1600   31.6080   28.4130 N.am      8 SEL2        0.0000 
     32 N          35.0790   31.1790   30.2160 N.am      5 SEP2        0.0000 
     33 CA         32.3025   30.3030   27.2655 C.3       3 GLC5        0.0000 
     34 CA         31.9970   31.1170   28.9240 C.3       9 GLL5        0.0000 
     35 CA         32.6080   29.4890   25.6070 C.3       6 GLP5        0.0000 
     36 CA         31.9045   32.6955   29.7265 C.3       3 GLC5        0.0000 
     37 CA         31.8120   34.2740   30.5290 C.3       6 GLP5        0.0000 
     38 CA         24.5640   31.2430   24.9618 C.3       3 GLC5        0.0000 
     39 CA         26.3720   32.2000   26.3570 C.3       9 GLL5        0.0000 
     40 CA         22.9670   30.2530   24.2950 C.3       6 GLP5        0.0000 
     41 CA         26.9465   30.3560   25.9782 C.3       3 GLC5        0.0000 
     42 CA         27.7320   28.4790   26.3280 C.3       6 GLP5        0.0000 
     43 CA         26.8158   31.5403   28.3090 C.3       3 GLC5        0.0000 
     44 CA         24.1895   32.6045   26.8739 C.3       3 GLC5        0.0000 
     45 CA         22.2580   32.3600   27.3520 C.3       6 GLP5        0.0000 
     46 CA         32.1251   31.0913   26.4851 C.3       3 GLC5        0.0000 
     47 CA         31.9330   33.1090   26.9330 C.3       9 GLL5        0.0000 
     48 CA         31.7271   33.4838   28.9461 C.3       3 GLC5        0.0000 
     49 CA         33.1880   32.5590   27.4380 C.3       9 GLL5        0.0000 
@<TRIPOS>BOND
@<TRIPOS>SUBSTRUCTURE
     1 ALC1       17 GROUP        1 X    ALC  0     ROOT ALC X 1
     2 SEC2        1 GROUP        1 X    SEC  0     **** SEC X 2
     3 GLC5        8 GROUP        1 X    GLC  0     **** GLC X 6
     4 ALP1       19 GROUP        1 Y    ALP  0     ROOT ALP Y 8
     5 SEP2        3 GROUP        1 Y    SEP  0     **** SEP Y 9
     6 GLP5       10 GROUP        1 Y    GLP  0     **** GLP Y 13
     7 ALL1       18 GROUP        1 Z    ALL  0     ROOT ALL Z 15
     8 SEL2        2 GROUP        1 Z    SEL  0     **** SEL Z 16
     9 GLL5        9 GROUP        1 Z    GLL  0     **** GLL Z 20
@<TRIPOS>SET

