#    Name: 3cj9_AMP_1_ligand
#    Modification time : Mon Mar 24 21:42:06 2014

@<TRIPOS>MOLECULE
3cj9_AMP_1_ligand
   35    37     1     0     0
SMALL
NO_CHARGES


@<TRIPOS>ATOM
      1 P          26.6780   33.5940   22.6680 P.3       1 AMP501      0.0000 
      2 O1P        25.5980   34.6720   22.7090 O.co2     1 AMP501      0.0000 
      3 O2P        28.0050   34.1990   22.2470 O.co2     1 AMP501      0.0000 
      4 O3P        26.3030   32.3190   21.9190 O.co2     1 AMP501      0.0000 
      5 O5'        26.8400   33.1640   24.2280 O.3       1 AMP501      0.0000 
      6 C5'        25.9500   32.2660   24.9000 C.3       1 AMP501      0.0000 
      7 C4'        26.3720   32.2000   26.3570 C.3       1 AMP501      0.0000 
      8 O4'        27.8080   31.9760   26.4130 O.3       1 AMP501      0.0000 
      9 C3'        26.0810   33.4650   27.1630 C.3       1 AMP501      0.0000 
     10 O3'        25.6990   33.0350   28.4780 O.3       1 AMP501      0.0000 
     11 C2'        27.4370   34.1520   27.2370 C.3       1 AMP501      0.0000 
     12 O2'        27.6990   34.9750   28.3840 O.3       1 AMP501      0.0000 
     13 C1'        28.3420   32.9430   27.3120 C.3       1 AMP501      0.0000 
     14 N9         29.7380   33.2180   26.9430 N.pl3     1 AMP501      0.0000 
     15 C8         30.2040   34.0820   26.0110 C.2       1 AMP501      0.0000 
     16 N7         31.5590   34.0240   25.9930 N.2       1 AMP501      0.0000 
     17 C5         31.9330   33.1090   26.9330 C.ar      1 AMP501      0.0000 
     18 C6         33.1880   32.5590   27.4380 C.ar      1 AMP501      0.0000 
     19 N6         34.3190   33.0270   26.8690 N.pl3     1 AMP501      0.0000 
     20 N1         33.1600   31.6080   28.4130 N.ar      1 AMP501      0.0000 
     21 C2         31.9970   31.1170   28.9240 C.ar      1 AMP501      0.0000 
     22 N3         30.7940   31.5890   28.5250 N.ar      1 AMP501      0.0000 
     23 C4         30.7240   32.5530   27.5410 C.ar      1 AMP501      0.0000 
     24 H          26.0012   31.2612   24.4847 H         1 AMP501      0.0000 
     25 H          24.9194   32.6137   24.8593 H         1 AMP501      0.0000 
     26 H          25.8667   31.3677   26.8339 H         1 AMP501      0.0000 
     27 H          25.3990   34.0462   26.6752 H         1 AMP501      0.0000 
     28 H          27.6333   34.6247   26.3059 H         1 AMP501      0.0000 
     29 H          28.2977   32.5546   28.3264 H         1 AMP501      0.0000 
     30 H          29.6598   34.6498   25.4479 H         1 AMP501      0.0000 
     31 H          34.1979   33.6833   26.1243 H         1 AMP501      0.0000 
     32 H          35.1775   32.6759   27.2428 H         1 AMP501      0.0000 
     33 H          32.0396   30.3543   29.6443 H         1 AMP501      0.0000 
     34 H          25.4136   33.8690   28.9501 H         1 AMP501      0.0000 
     35 H          27.7345   34.3397   29.1555 H         1 AMP501      0.0000 
@<TRIPOS>BOND
     1    2    1 ar   
     2    3    1 ar   
     3    4    1 ar   
     4    5    1 1    
     5    6    5 1    
     6    7    6 1    
     7   24    6 1    
     8   25    6 1    
     9    8    7 1    
    10    9    7 1    
    11   26    7 1    
    12   13    8 1    
    13   10    9 1    
    14   11    9 1    
    15   27    9 1    
    16   34   10 1    
    17   12   11 1    
    18   13   11 1    
    19   28   11 1    
    20   35   12 1    
    21   14   13 1    
    22   29   13 1    
    23   15   14 1    
    24   23   14 1    
    25   16   15 2    
    26   30   15 1    
    27   17   16 1    
    28   18   17 ar   
    29   23   17 ar   
    30   19   18 1    
    31   20   18 ar   
    32   31   19 1    
    33   32   19 1    
    34   21   20 ar   
    35   22   21 ar   
    36   33   21 1    
    37   23   22 ar   
@<TRIPOS>SUBSTRUCTURE
     1 AMP501      1 GROUP   
@<TRIPOS>SET

