#    Name: 3iw1_ASD_1_INTS_M
#    Modification time : Tue Mar 25 17:33:52 2014

@<TRIPOS>MOLECULE
3iw1_ASD_1_INTS_M
   57     0     6     0     0
SMALL
NO_CHARGES


@<TRIPOS>ATOM
      1 CA         19.2910   40.5170   -6.4315 C.3       2 GLC5        0.0000 
      2 CA         20.5730   41.4610   -4.8460 C.3       6 GLL5        0.0000 
      3 CA         18.0090   39.5730   -8.0170 C.3       4 GLP5        0.0000 
      4 CA         23.2375   43.1840   -0.5060 C.3       2 GLC5        0.0000 
      5 CA         23.0910   42.8180   -2.3780 C.3       6 GLL5        0.0000 
      6 CA         23.3840   43.5500    1.3660 C.3       4 GLP5        0.0000 
      7 CA         24.2990   42.5210   -5.2695 C.3       2 GLC5        0.0000 
      8 CA         23.6090   43.5010   -3.6640 C.3       6 GLL5        0.0000 
      9 CA         24.9890   41.5410   -6.8750 C.3       4 GLP5        0.0000 
     10 CA         23.9615   45.5985   -3.7490 C.3       2 GLC5        0.0000 
     11 CA         24.3140   47.6960   -3.8340 C.3       4 GLP5        0.0000 
     12 CA         18.7570   43.9630   -3.9950 C.3       2 GLC5        0.0000 
     13 CA         20.4450   43.7310   -3.7720 C.3       6 GLL5        0.0000 
     14 CA         17.0690   44.1950   -4.2180 C.3       4 GLP5        0.0000 
     15 CA         20.4305   45.6505   -4.1435 C.3       2 GLC5        0.0000 
     16 CA         20.4160   47.5700   -4.5150 C.3       4 GLP5        0.0000 
     17 CA         19.7860   44.0340   -1.8435 C.3       2 GLC5        0.0000 
     18 CA         19.1270   44.3370    0.0850 C.3       4 GLP5        0.0000 
     19 CA         16.3735   41.9190   -0.5705 C.3       2 GLC5        0.0000 
     20 CA         17.7580   40.9160   -1.5040 C.3       6 GLL5        0.0000 
     21 CA         14.9890   42.9220    0.3630 C.3       4 GLP5        0.0000 
     22 CA         17.4135   42.5555   -2.8610 C.3       2 GLC5        0.0000 
     23 CA         18.4425   42.6265   -0.7095 C.3       2 GLC5        0.0000 
     24 CA         17.4995   40.9665    0.5650 C.3       2 GLC5        0.0000 
     25 CA         17.2410   41.0170    2.6340 C.3       4 GLP5        0.0000 
     26 CA         15.6180   37.9070   -0.0325 C.3       2 GLC5        0.0000 
     27 CA         17.2430   37.7880   -1.5380 C.3       6 GLL5        0.0000 
     28 CA         13.9930   38.0260    1.4730 C.3       4 GLP5        0.0000 
     29 CA         15.6080   36.4310   -1.2135 C.3       2 GLC5        0.0000 
     30 CA         13.9730   35.0740   -0.8890 C.3       4 GLP5        0.0000 
     31 CA         19.5565   36.6700    1.4125 C.3       2 GLC5        0.0000 
     32 CA         18.9550   38.3800    0.3320 C.3       6 GLL5        0.0000 
     33 CA         20.1580   34.9600    2.4930 C.3       4 GLP5        0.0000 
     34 CA         22.8580   39.4420   -1.0265 C.3       2 GLC5        0.0000 
     35 CA         21.5110   40.8640   -0.6060 C.3       6 GLL5        0.0000 
     36 CA         24.2050   38.0200   -1.4470 C.3       4 GLP5        0.0000 
     37 N          15.8840   36.4025    0.3150 N.am      1 SEC2        0.0000 
     38 N          17.4000   36.6720    0.6040 N.am      5 SEL2        0.0000 
     39 N          14.3680   36.1330    0.0260 N.am      3 SEP2        0.0000 
     40 CA         15.9755   38.6295   -2.8750 C.3       2 GLC5        0.0000 
     41 CA         14.2350   39.0500   -3.7730 C.3       4 GLP5        0.0000 
     42 CA         18.5345   42.6915   -4.3078 C.3       2 GLC5        0.0000 
     43 CA         19.4270   40.9150   -3.9490 C.3       6 GLL5        0.0000 
     44 CA         22.5351   40.7199   -4.9343 C.3       2 GLC5        0.0000 
     45 CA         23.5980   39.5170   -6.1980 C.3       4 GLP5        0.0000 
     46 CA         23.7605   40.7788   -2.3205 C.3       2 GLC5        0.0000 
     47 CA         21.9830   41.8510   -2.8740 C.3       6 GLL5        0.0000 
     48 CA         24.9840   39.2230   -2.0150 C.3       4 GLP5        0.0000 
     49 CA         25.2500   43.7698   -2.7745 C.3       2 GLC5        0.0000 
     50 CA         27.1500   44.3800   -2.5280 C.3       4 GLP5        0.0000 
     51 CA         22.1762   42.0792    0.6175 C.3       2 GLC5        0.0000 
     52 CA         20.4260   40.3530    0.3440 C.3       6 GLL5        0.0000 
     53 CA         18.5213   40.3276    1.4001 C.3       2 GLC5        0.0000 
     54 CA         21.7405   39.2482   -2.3165 C.3       2 GLC5        0.0000 
     55 CA         20.9010   41.4010   -1.8960 C.3       6 GLL5        0.0000 
     56 CA         23.0510   37.6030   -2.3810 C.3       4 GLP5        0.0000 
     57 CA         20.0309   42.6709   -0.4642 C.3       2 GLC5        0.0000 
@<TRIPOS>BOND
@<TRIPOS>SUBSTRUCTURE
     1 SEC2       37 GROUP        1 X    SEC  0     ROOT SEC X 2
     2 GLC5        1 GROUP        1 X    GLC  0     **** GLC X 6
     3 SEP2       39 GROUP        1 Y    SEP  0     ROOT SEP Y 9
     4 GLP5        3 GROUP        1 Y    GLP  0     **** GLP Y 13
     5 SEL2       38 GROUP        1 Z    SEL  0     ROOT SEL Z 16
     6 GLL5        2 GROUP        1 Z    GLL  0     **** GLL Z 20
@<TRIPOS>SET

