#    Name: 3iw1_ASD_1_ligand
#    Modification time : Tue Mar 25 17:33:52 2014

@<TRIPOS>MOLECULE
3iw1_ASD_1_ligand
   47    50     1     0     0
SMALL
NO_CHARGES


@<TRIPOS>ATOM
      1 C1         18.1890   38.6300   -2.4160 C.3       1 ASD1223     0.0000 
      2 C10        18.8280   39.8500   -1.7220 C.3       1 ASD1223     0.0000 
      3 C11        19.4270   40.9150   -3.9490 C.3       1 ASD1223     0.0000 
      4 C12        20.5730   41.4610   -4.8460 C.3       1 ASD1223     0.0000 
      5 C13        21.3500   42.5280   -4.0880 C.3       1 ASD1223     0.0000 
      6 C14        21.9830   41.8510   -2.8740 C.3       1 ASD1223     0.0000 
      7 C15        23.0910   42.8180   -2.3780 C.3       1 ASD1223     0.0000 
      8 C16        23.6090   43.5010   -3.6640 C.3       1 ASD1223     0.0000 
      9 C17        22.5850   43.1200   -4.7310 C.2       1 ASD1223     0.0000 
     10 C18        20.4450   43.7310   -3.7720 C.3       1 ASD1223     0.0000 
     11 C19        17.7580   40.9160   -1.5040 C.3       1 ASD1223     0.0000 
     12 C2         17.2430   37.7880   -1.5380 C.3       1 ASD1223     0.0000 
     13 C3         17.8410   37.5400   -0.1490 C.2       1 ASD1223     0.0000 
     14 C4         18.9550   38.3800    0.3320 C.2       1 ASD1223     0.0000 
     15 C5         19.3990   39.4670   -0.3550 C.2       1 ASD1223     0.0000 
     16 C6         20.4260   40.3530    0.3440 C.3       1 ASD1223     0.0000 
     17 C7         21.5110   40.8640   -0.6060 C.3       1 ASD1223     0.0000 
     18 C8         20.9010   41.4010   -1.8960 C.3       1 ASD1223     0.0000 
     19 C9         19.9590   40.3860   -2.6080 C.3       1 ASD1223     0.0000 
     20 O1         17.4000   36.6720    0.6040 O.2       1 ASD1223     0.0000 
     21 O2         22.7360   43.2710   -5.9470 O.2       1 ASD1223     0.0000 
     22 H          18.9968   37.9757   -2.7943 H         1 ASD1223     0.0000 
     23 H          17.6294   38.9814   -3.3032 H         1 ASD1223     0.0000 
     24 H          18.9217   40.1103   -4.4801 H         1 ASD1223     0.0000 
     25 H          18.7159   41.7182   -3.7642 H         1 ASD1223     0.0000 
     26 H          20.1392   41.8863   -5.7405 H         1 ASD1223     0.0000 
     27 H          21.2291   40.6416   -5.1057 H         1 ASD1223     0.0000 
     28 H          22.4973   40.9535   -3.2759 H         1 ASD1223     0.0000 
     29 H          23.8711   42.2601   -1.9315 H         1 ASD1223     0.0000 
     30 H          22.6643   43.5428   -1.7364 H         1 ASD1223     0.0000 
     31 H          24.5597   43.1037   -3.9137 H         1 ASD1223     0.0000 
     32 H          23.6156   44.5520   -3.5248 H         1 ASD1223     0.0000 
     33 H          17.0623   36.8321   -2.0281 H         1 ASD1223     0.0000 
     34 H          16.2951   38.3144   -1.4332 H         1 ASD1223     0.0000 
     35 H          19.3835   38.0909    1.2321 H         1 ASD1223     0.0000 
     36 H          20.8998   39.7844    1.1538 H         1 ASD1223     0.0000 
     37 H          19.9130   41.2117    0.7945 H         1 ASD1223     0.0000 
     38 H          22.1931   40.0473   -0.8417 H         1 ASD1223     0.0000 
     39 H          22.0717   41.6583   -0.1137 H         1 ASD1223     0.0000 
     40 H          20.2943   42.2847   -1.6531 H         1 ASD1223     0.0000 
     41 H          20.6056   39.4959   -2.8660 H         1 ASD1223     0.0000 
     42 H          20.9366   44.4445   -3.2728 H         1 ASD1223     0.0000 
     43 H          20.0826   44.1517   -4.6037 H         1 ASD1223     0.0000 
     44 H          19.6603   43.4681   -3.2107 H         1 ASD1223     0.0000 
     45 H          18.1299   41.7295   -1.0569 H         1 ASD1223     0.0000 
     46 H          17.3513   41.2159   -2.3669 H         1 ASD1223     0.0000 
     47 H          17.0116   40.5809   -0.9290 H         1 ASD1223     0.0000 
@<TRIPOS>BOND
     1    2    1 1    
     2   12    1 1    
     3   22    1 1    
     4   23    1 1    
     5   11    2 1    
     6   15    2 1    
     7   19    2 1    
     8    4    3 1    
     9   19    3 1    
    10   24    3 1    
    11   25    3 1    
    12    5    4 1    
    13   26    4 1    
    14   27    4 1    
    15    6    5 1    
    16    9    5 1    
    17   10    5 1    
    18    7    6 1    
    19   18    6 1    
    20   28    6 1    
    21    8    7 1    
    22   29    7 1    
    23   30    7 1    
    24    9    8 1    
    25   31    8 1    
    26   32    8 1    
    27   21    9 2    
    28   42   10 1    
    29   43   10 1    
    30   44   10 1    
    31   45   11 1    
    32   46   11 1    
    33   47   11 1    
    34   13   12 1    
    35   33   12 1    
    36   34   12 1    
    37   14   13 1    
    38   20   13 2    
    39   15   14 2    
    40   35   14 1    
    41   16   15 1    
    42   17   16 1    
    43   36   16 1    
    44   37   16 1    
    45   18   17 1    
    46   38   17 1    
    47   39   17 1    
    48   19   18 1    
    49   40   18 1    
    50   41   19 1    
@<TRIPOS>SUBSTRUCTURE
     1 ASD1223     1 GROUP   
@<TRIPOS>SET

