#    Name: 2jfz_003_2_INTS_M
#    Modification time : Tue Mar 25 20:40:58 2014

@<TRIPOS>MOLECULE
2jfz_003_2_INTS_M
   69     0     3     0     0
SMALL
NO_CHARGES


@<TRIPOS>ATOM
      1 CA         15.2125   94.9440   37.2710 C.3       1 GLC5        0.0000 
      2 CA         13.5570   94.2780   36.5690 C.3       3 GLL5        0.0000 
      3 CA         16.8680   95.6100   37.9730 C.3       2 GLP5        0.0000 
      4 CA         12.2050   93.7805   39.8400 C.3       1 GLC5        0.0000 
      5 CA         11.7080   94.9410   38.0910 C.3       3 GLL5        0.0000 
      6 CA         12.7020   92.6200   41.5890 C.3       2 GLP5        0.0000 
      7 CA         10.1010   93.7705   38.9755 C.3       1 GLC5        0.0000 
      8 CA          8.4940   92.6000   39.8600 C.3       2 GLP5        0.0000 
      9 CA         12.6145   96.1200   39.5045 C.3       1 GLC5        0.0000 
     10 CA         13.5210   97.2990   40.9180 C.3       2 GLP5        0.0000 
     11 CA          9.9730   92.7050   38.3510 C.3       1 GLC5        0.0000 
     12 CA         11.4520   92.8100   36.8420 C.3       3 GLL5        0.0000 
     13 CA         17.4945   92.0155   38.0895 C.3       1 GLC5        0.0000 
     14 CA         16.4840   90.3540   38.4890 C.3       3 GLL5        0.0000 
     15 CA         18.5050   93.6770   37.6900 C.3       2 GLP5        0.0000 
     16 CA          9.9765   90.5215   38.8450 C.3       1 GLC5        0.0000 
     17 CA         12.0350   89.6940   38.5030 C.3       3 GLL5        0.0000 
     18 CA          7.9180   91.3490   39.1870 C.3       2 GLP5        0.0000 
     19 CA         10.1425   87.1555   37.9230 C.3       1 GLC5        0.0000 
     20 CA         11.5030   88.3770   38.5130 C.3       3 GLL5        0.0000 
     21 CA          8.7820   85.9340   37.3330 C.3       2 GLP5        0.0000 
     22 CA         12.3640   86.3375   36.5915 C.3       1 GLC5        0.0000 
     23 CA         12.3760   87.2560   38.5360 C.3       3 GLL5        0.0000 
     24 CA         12.3520   85.4190   34.6470 C.3       2 GLP5        0.0000 
     25 CA         11.3945   85.7785   38.4660 C.3       1 GLC5        0.0000 
     26 CA         10.4130   84.3010   38.3960 C.3       2 GLP5        0.0000 
     27 CA         14.7600   84.3430   38.4070 C.3       1 GLC5        0.0000 
     28 CA         14.6360   86.3150   38.5720 C.3       3 GLL5        0.0000 
     29 CA         14.8840   82.3710   38.2420 C.3       2 GLP5        0.0000 
     30 CA         16.1125   84.8745   37.4095 C.3       1 GLC5        0.0000 
     31 CA         16.0450   86.4830   38.5840 C.3       3 GLL5        0.0000 
     32 CA         16.1800   83.2660   36.2350 C.3       2 GLP5        0.0000 
     33 CA         16.8480   85.2270   35.4210 C.3       1 GLC5        0.0000 
     34 CA         17.5160   87.1880   34.6070 C.3       3 GLL5        0.0000 
     35 CA         18.1795   86.6735   33.0465 C.3       1 GLC5        0.0000 
     36 CA         18.8430   86.1590   31.4860 C.3       2 GLP5        0.0000 
     37 CA         14.6255   88.7050   34.8590 C.3       1 GLC5        0.0000 
     38 CA         16.6500   88.2610   34.9300 C.3       3 GLL5        0.0000 
     39 CA         12.6010   89.1490   34.7880 C.3       2 GLP5        0.0000 
     40 CA         14.5290   90.7905   31.1645 C.3       1 GLC5        0.0000 
     41 CA         14.3730   92.8530   31.8700 C.3       3 GLL5        0.0000 
     42 CA         14.6850   88.7280   30.4590 C.3       2 GLP5        0.0000 
     43 CA         12.9135   91.9990   32.8350 C.3       1 GLC5        0.0000 
     44 CA         11.4540   91.1450   33.8000 C.3       2 GLP5        0.0000 
     45 CA         15.8060   93.7720   32.6430 C.3       1 GLC5        0.0000 
     46 CA         17.2390   94.6910   33.4160 C.3       2 GLP5        0.0000 
     47 CA         10.7157   96.0985   37.3350 C.3       1 GLC5        0.0000 
     48 CA         12.0190   94.2370   36.7590 C.3       3 GLL5        0.0000 
     49 CA          9.5680   97.6080   37.2450 C.3       2 GLP5        0.0000 
     50 CA         11.5947   92.3342   35.3002 C.3       1 GLC5        0.0000 
     51 CA         16.1430   89.6415   40.3575 C.3       1 GLC5        0.0000 
     52 CA         16.1480   89.6330   42.2000 C.3       2 GLP5        0.0000 
     53 CA         15.0097   87.6325   40.2450 C.3       1 GLC5        0.0000 
     54 CA         14.3440   88.7840   38.5350 C.3       3 GLL5        0.0000 
     55 CA         15.9560   87.1490   41.9480 C.3       2 GLP5        0.0000 
     56 CA         13.2480   89.2445   36.6557 C.3       1 GLC5        0.0000 
     57 CA         12.7213   91.2075   40.0482 C.3       1 GLC5        0.0000 
     58 CA         13.4460   89.8960   38.5120 C.3       3 GLL5        0.0000 
     59 CA         11.6800   88.2878   40.2325 C.3       1 GLC5        0.0000 
     60 CA         11.5910   87.5400   41.9570 C.3       2 GLP5        0.0000 
     61 CA         12.1850   89.0923   36.6480 C.3       1 GLC5        0.0000 
     62 CA         12.3352   87.4460   40.2497 C.3       1 GLC5        0.0000 
     63 CA         12.8403   88.2505   36.6653 C.3       1 GLC5        0.0000 
     64 CA         12.9358   85.3277   38.4928 C.3       1 GLC5        0.0000 
     65 CA         13.7830   87.4480   38.5490 C.3       3 GLL5        0.0000 
     66 CA         11.6620   83.7740   38.4250 C.3       2 GLP5        0.0000 
     67 CA         15.9674   87.1197   40.2602 C.3       1 GLC5        0.0000 
     68 CA         14.2812   90.0745   35.1752 C.3       1 GLC5        0.0000 
     69 CA         16.2940   90.5920   35.9780 C.3       3 GLL5        0.0000 
@<TRIPOS>BOND
@<TRIPOS>SUBSTRUCTURE
     1 GLC5        1 GROUP        1 X    GLC  0     ROOT GLC X 6
     2 GLP5        3 GROUP        1 Y    GLP  0     ROOT GLP Y 13
     3 GLL5        2 GROUP        1 Z    GLL  0     ROOT GLL Z 20
@<TRIPOS>SET

