#    Name: 2jfz_003_2_ligand
#    Modification time : Tue Mar 25 20:40:58 2014

@<TRIPOS>MOLECULE
2jfz_003_2_ligand
   58    62     1     0     0
SMALL
NO_CHARGES


@<TRIPOS>ATOM
      1 C2         13.9740   93.5470   34.1960 C.2       1 0031256     0.0000 
      2 O11        13.2610   94.4640   33.7770 O.2       1 0031256     0.0000 
      3 N3         14.1650   93.3790   35.5640 N.am      1 0031256     0.0000 
      4 C7         13.5570   94.2780   36.5690 C.3       1 0031256     0.0000 
      5 C8         12.0190   94.2370   36.7590 C.3       1 0031256     0.0000 
      6 C10        11.7080   94.9410   38.0910 C.3       1 0031256     0.0000 
      7 C9         11.4520   92.8100   36.8420 C.3       1 0031256     0.0000 
      8 C4         14.9570   92.3630   36.0180 C.2       1 0031256     0.0000 
      9 N16        15.2170   92.0640   37.2210 N.2       1 0031256     0.0000 
     10 N15        16.0200   90.9880   37.2360 N.pl3     1 0031256     0.0000 
     11 C23        16.4840   90.3540   38.4890 C.3       1 0031256     0.0000 
     12 C24        15.7920   88.9460   38.5410 C.ar      1 0031256     0.0000 
     13 C29        14.3440   88.7840   38.5350 C.ar      1 0031256     0.0000 
     14 C30        13.4460   89.8960   38.5120 C.ar      1 0031256     0.0000 
     15 C31        12.0350   89.6940   38.5030 C.ar      1 0031256     0.0000 
     16 C32        11.5030   88.3770   38.5130 C.ar      1 0031256     0.0000 
     17 C33        12.3760   87.2560   38.5360 C.ar      1 0031256     0.0000 
     18 C28        13.7830   87.4480   38.5490 C.ar      1 0031256     0.0000 
     19 C27        14.6360   86.3150   38.5720 C.ar      1 0031256     0.0000 
     20 C26        16.0450   86.4830   38.5840 C.ar      1 0031256     0.0000 
     21 C25        16.6170   87.7820   38.5670 C.ar      1 0031256     0.0000 
     22 C14        16.2940   90.5920   35.9780 C.2       1 0031256     0.0000 
     23 C17        17.1780   89.4050   35.5850 C.ar      1 0031256     0.0000 
     24 C22        18.5770   89.4380   35.8980 C.ar      1 0031256     0.0000 
     25 C21        19.3950   88.3400   35.5540 C.ar      1 0031256     0.0000 
     26 N20        18.8500   87.2510   34.9230 N.ar      1 0031256     0.0000 
     27 C19        17.5160   87.1880   34.6070 C.ar      1 0031256     0.0000 
     28 C18        16.6500   88.2610   34.9300 C.ar      1 0031256     0.0000 
     29 C5         15.6290   91.4080   35.1470 C.2       1 0031256     0.0000 
     30 C6         15.4190   91.6040   33.6970 C.2       1 0031256     0.0000 
     31 O13        15.9590   90.8320   32.9100 O.2       1 0031256     0.0000 
     32 N1         14.5940   92.6610   33.3090 N.am      1 0031256     0.0000 
     33 C12        14.3730   92.8530   31.8700 C.3       1 0031256     0.0000 
     34 H          13.8328   95.3453   36.3418 H         1 0031256     0.0000 
     35 H          14.0190   94.0894   37.5779 H         1 0031256     0.0000 
     36 H          11.5475   94.7751   35.9768 H         1 0031256     0.0000 
     37 H          16.1686   90.9066   39.3493 H         1 0031256     0.0000 
     38 H          17.5428   90.1992   38.4826 H         1 0031256     0.0000 
     39 H          13.8217   90.8460   38.5019 H         1 0031256     0.0000 
     40 H          11.4088   90.4971   38.4894 H         1 0031256     0.0000 
     41 H          10.4940   88.2356   38.5037 H         1 0031256     0.0000 
     42 H          11.9911   86.3122   38.5432 H         1 0031256     0.0000 
     43 H          14.2358   85.3766   38.5799 H         1 0031256     0.0000 
     44 H          16.6536   85.6614   38.6051 H         1 0031256     0.0000 
     45 H          17.6354   87.8887   38.5734 H         1 0031256     0.0000 
     46 H          18.9673   90.2505   36.3642 H         1 0031256     0.0000 
     47 H          20.3962   88.3740   35.7840 H         1 0031256     0.0000 
     48 H          17.1229   86.3626   34.1313 H         1 0031256     0.0000 
     49 H          15.6647   88.2146   34.6971 H         1 0031256     0.0000 
     50 H          12.1538   94.4884   38.8632 H         1 0031256     0.0000 
     51 H          12.0179   95.8918   38.0898 H         1 0031256     0.0000 
     52 H          10.7270   94.9527   38.2847 H         1 0031256     0.0000 
     53 H          11.6432   92.2856   36.0123 H         1 0031256     0.0000 
     54 H          11.8423   92.2993   37.6080 H         1 0031256     0.0000 
     55 H          10.4597   92.8113   36.9658 H         1 0031256     0.0000 
     56 H          14.6914   93.7494   31.5617 H         1 0031256     0.0000 
     57 H          14.8558   92.1672   31.3254 H         1 0031256     0.0000 
     58 H          13.4041   92.7880   31.6311 H         1 0031256     0.0000 
@<TRIPOS>BOND
     1    2    1 2    
     2    3    1 am   
     3   32    1 am   
     4    4    3 1    
     5    8    3 1    
     6    5    4 1    
     7   34    4 1    
     8   35    4 1    
     9    6    5 1    
    10    7    5 1    
    11   36    5 1    
    12   50    6 1    
    13   51    6 1    
    14   52    6 1    
    15   53    7 1    
    16   54    7 1    
    17   55    7 1    
    18    9    8 2    
    19   29    8 1    
    20   10    9 1    
    21   11   10 1    
    22   22   10 1    
    23   12   11 1    
    24   37   11 1    
    25   38   11 1    
    26   13   12 ar   
    27   21   12 ar   
    28   14   13 ar   
    29   18   13 ar   
    30   15   14 ar   
    31   39   14 1    
    32   16   15 ar   
    33   40   15 1    
    34   17   16 ar   
    35   41   16 1    
    36   18   17 ar   
    37   42   17 1    
    38   19   18 ar   
    39   20   19 ar   
    40   43   19 1    
    41   21   20 ar   
    42   44   20 1    
    43   45   21 1    
    44   23   22 1    
    45   29   22 2    
    46   24   23 ar   
    47   28   23 ar   
    48   25   24 ar   
    49   46   24 1    
    50   26   25 ar   
    51   47   25 1    
    52   27   26 ar   
    53   28   27 ar   
    54   48   27 1    
    55   49   28 1    
    56   30   29 1    
    57   31   30 2    
    58   32   30 am   
    59   33   32 1    
    60   56   33 1    
    61   57   33 1    
    62   58   33 1    
@<TRIPOS>SUBSTRUCTURE
     1 0031256     1 GROUP   
@<TRIPOS>SET

