#    Name: 1kkq_471_4_INTS_M
#    Modification time : Tue Mar 25 10:14:10 2014

@<TRIPOS>MOLECULE
1kkq_471_4_INTS_M
  121     0     3     0     0
SMALL
NO_CHARGES


@<TRIPOS>ATOM
      1 CA         -3.3030   54.6825   61.7655 C.3       1 GLC5        0.0000 
      2 CA         -3.4210   55.7510   59.8670 C.3       3 GLL5        0.0000 
      3 CA         -3.1850   53.6140   63.6640 C.3       2 GLP5        0.0000 
      4 CA         -4.0315   53.2275   58.5715 C.3       1 GLC5        0.0000 
      5 CA         -3.7770   55.1620   58.7150 C.3       3 GLL5        0.0000 
      6 CA         -4.2860   51.2930   58.4280 C.3       2 GLP5        0.0000 
      7 CA         -3.2835   56.1890   55.9595 C.3       1 GLC5        0.0000 
      8 CA         -4.4820   55.8240   57.7860 C.3       3 GLL5        0.0000 
      9 CA         -2.0850   56.5540   54.1330 C.3       2 GLP5        0.0000 
     10 CA         -7.5865   54.3830   63.8060 C.3       1 GLC5        0.0000 
     11 CA         -7.3440   56.4950   63.4470 C.3       3 GLL5        0.0000 
     12 CA         -7.8290   52.2710   64.1650 C.3       2 GLP5        0.0000 
     13 CA         -8.5065   59.5590   56.7355 C.3       1 GLC5        0.0000 
     14 CA         -9.5580   59.0680   58.4810 C.3       3 GLL5        0.0000 
     15 CA         -7.4550   60.0500   54.9900 C.3       2 GLP5        0.0000 
     16 CA         -9.9225   59.8365   56.1355 C.3       1 GLC5        0.0000 
     17 CA        -10.7080   59.2400   57.8130 C.3       3 GLL5        0.0000 
     18 CA         -9.1370   60.4330   54.4580 C.3       2 GLP5        0.0000 
     19 CA        -12.3830   57.1765   57.8520 C.3       1 GLC5        0.0000 
     20 CA        -11.8840   59.2590   58.4580 C.3       3 GLL5        0.0000 
     21 CA        -12.8820   55.0940   57.2460 C.3       2 GLP5        0.0000 
     22 CA        -15.1645   60.2575   56.2615 C.3       1 GLC5        0.0000 
     23 CA        -13.4790   60.7720   57.5990 C.3       3 GLL5        0.0000 
     24 CA        -16.8500   59.7430   54.9240 C.3       2 GLP5        0.0000 
     25 CA        -14.5005   61.9645   57.5385 C.3       1 GLC5        0.0000 
     26 CA        -15.5220   63.1570   57.4780 C.3       2 GLP5        0.0000 
     27 CA        -12.6205   61.9965   58.8345 C.3       1 GLC5        0.0000 
     28 CA        -11.7620   63.2210   60.0700 C.3       2 GLP5        0.0000 
     29 CA        -14.4790   57.6020   56.4390 C.3       1 GLC5        0.0000 
     30 CA        -13.0920   58.9620   56.4160 C.3       3 GLL5        0.0000 
     31 CA        -15.8660   56.2420   56.4620 C.3       2 GLP5        0.0000 
     32 CA        -12.8990   58.6850   54.7645 C.3       1 GLC5        0.0000 
     33 CA        -12.7060   58.4080   53.1130 C.3       2 GLP5        0.0000 
     34 CA        -14.9710   59.3525   55.6700 C.3       1 GLC5        0.0000 
     35 CA        -15.5300   59.2660   56.5990 C.3       1 GLC5        0.0000 
     36 CA        -14.2100   58.7890   58.2740 C.3       3 GLL5        0.0000 
     37 CA         -9.7715   57.1415   59.6145 C.3       1 GLC5        0.0000 
     38 CA        -10.7130   58.9350   60.4580 C.3       3 GLL5        0.0000 
     39 CA         -8.8300   55.3480   58.7710 C.3       2 GLP5        0.0000 
     40 CA         -9.0665   55.7775   56.8260 C.3       1 GLC5        0.0000 
     41 CA         -9.3030   56.2070   54.8810 C.3       3 GLL5        0.0000 
     42 CA         -7.9105   56.3890   53.4110 C.3       1 GLC5        0.0000 
     43 CA         -6.5180   56.5710   51.9410 C.3       2 GLP5        0.0000 
     44 CA        -11.0045   57.3075   53.9970 C.3       1 GLC5        0.0000 
     45 CA         -9.2200   58.3200   54.6695 C.3       1 GLC5        0.0000 
     46 CA         -9.6540   51.6855   53.9030 C.3       1 GLC5        0.0000 
     47 CA        -10.8580   51.6230   55.5030 C.3       3 GLL5        0.0000 
     48 CA         -8.4500   51.7480   52.3030 C.3       2 GLP5        0.0000 
     49 CA         -9.3440   50.3250   54.1815 C.3       1 GLC5        0.0000 
     50 CA        -10.4610   50.3590   55.7120 C.3       3 GLL5        0.0000 
     51 CA         -8.2270   50.2910   52.6510 C.3       2 GLP5        0.0000 
     52 CA        -10.3035   49.3920   53.8890 C.3       1 GLC5        0.0000 
     53 CA        -11.3450   49.3560   55.8180 C.3       3 GLL5        0.0000 
     54 CA         -9.2620   49.4280   51.9600 C.3       2 GLP5        0.0000 
     55 CA        -14.1230   48.6295   54.3450 C.3       1 GLC5        0.0000 
     56 CA        -12.6580   49.6070   55.7150 C.3       3 GLL5        0.0000 
     57 CA        -15.5880   47.6520   52.9750 C.3       2 GLP5        0.0000 
     58 CA        -14.1080   48.6650   56.8160 C.3       1 GLC5        0.0000 
     59 CA        -15.5580   47.7230   57.9170 C.3       2 GLP5        0.0000 
     60 CA        -14.7440   49.8660   56.4575 C.3       1 GLC5        0.0000 
     61 CA        -13.0750   50.8640   55.5070 C.3       3 GLL5        0.0000 
     62 CA        -16.4130   48.8680   57.4080 C.3       2 GLP5        0.0000 
     63 CA        -12.5980   53.2730   53.9835 C.3       1 GLC5        0.0000 
     64 CA        -12.1760   51.8540   55.4030 C.3       3 GLL5        0.0000 
     65 CA        -13.0200   54.6920   52.5640 C.3       2 GLP5        0.0000 
     66 CA         -5.1730   52.8755   57.5515 C.3       1 GLC5        0.0000 
     67 CA         -6.0600   54.4580   56.6750 C.3       3 GLL5        0.0000 
     68 CA         -7.5685   52.9925   53.8015 C.3       1 GLC5        0.0000 
     69 CA         -6.6870   54.2370   55.3000 C.3       3 GLL5        0.0000 
     70 CA         -2.4620   58.6115   64.1140 C.3       1 GLC5        0.0000 
     71 CA         -4.0670   57.9780   63.9300 C.3       3 GLL5        0.0000 
     72 CA         -0.8570   59.2450   64.2980 C.3       2 GLP5        0.0000 
     73 CA         -3.6980   52.3610   67.5350 C.3       1 GLC5        0.0000 
     74 CA         -4.0760   54.5370   67.5370 C.3       3 GLL5        0.0000 
     75 CA         -3.3200   50.1850   67.5330 C.3       2 GLP5        0.0000 
     76 CA         -3.7230   55.6990   63.4410 C.3       1 GLC5        0.0000 
     77 CA         -2.3908   58.4453   63.1285 C.3       1 GLC5        0.0000 
     78 CA         -4.4550   57.5900   62.5060 C.3       3 GLL5        0.0000 
     79 CA         -1.6307   56.8035   59.3877 C.3       1 GLC5        0.0000 
     80 CA         -3.7660   57.0250   60.1120 C.3       3 GLL5        0.0000 
     81 CA          0.3320   57.2190   58.7860 C.3       2 GLP5        0.0000 
     82 CA         -6.7410   55.9047   58.3395 C.3       1 GLC5        0.0000 
     83 CA         -8.7131   57.6975   63.8855 C.3       1 GLC5        0.0000 
     84 CA         -8.1140   57.8200   61.6040 C.3       3 GLL5        0.0000 
     85 CA         -9.9620   58.3350   65.0690 C.3       2 GLP5        0.0000 
     86 CA         -8.3986   55.8795   61.5410 C.3       1 GLC5        0.0000 
     87 CA         -9.3330   54.6990   60.3800 C.3       2 GLP5        0.0000 
     88 CA         -9.4789   57.2311   58.6256 C.3       1 GLC5        0.0000 
     89 CA         -9.5370   58.9090   59.8140 C.3       3 GLL5        0.0000 
     90 CA         -9.6834   60.9711   58.5046 C.3       1 GLC5        0.0000 
     91 CA         -9.2390   62.8280   58.5290 C.3       2 GLP5        0.0000 
     92 CA        -13.9075   57.2425   58.0288 C.3       1 GLC5        0.0000 
     93 CA        -13.1700   59.4470   57.6870 C.3       3 GLL5        0.0000 
     94 CA        -14.1250   55.3670   58.0770 C.3       2 GLP5        0.0000 
     95 CA        -14.4840   60.7125   58.8888 C.3       1 GLC5        0.0000 
     96 CA        -15.2780   62.3070   59.7970 C.3       2 GLP5        0.0000 
     97 CA        -11.8402   57.3590   61.2972 C.3       1 GLC5        0.0000 
     98 CA        -11.8640   59.1070   59.7910 C.3       3 GLL5        0.0000 
     99 CA        -12.3920   55.6970   62.4700 C.3       2 GLP5        0.0000 
    100 CA        -11.5278   61.1400   59.9306 C.3       1 GLC5        0.0000 
    101 CA         -8.7668   54.8227   56.9860 C.3       1 GLC5        0.0000 
    102 CA         -9.2530   54.7150   55.1120 C.3       3 GLL5        0.0000 
    103 CA         -8.5768   53.0228   53.7520 C.3       1 GLC5        0.0000 
    104 CA        -11.0800   55.2775   56.1213 C.3       1 GLC5        0.0000 
    105 CA         -9.8435   55.1520   52.9537 C.3       1 GLC5        0.0000 
    106 CA        -10.4090   54.8430   50.9110 C.3       2 GLP5        0.0000 
    107 CA        -12.1995   53.4163   56.3495 C.3       1 GLC5        0.0000 
    108 CA        -11.6315   50.0473   57.7425 C.3       1 GLC5        0.0000 
    109 CA        -12.3600   50.2370   59.7200 C.3       2 GLP5        0.0000 
    110 CA        -12.9862   50.1713   53.4575 C.3       1 GLC5        0.0000 
    111 CA        -13.1060   50.1070   51.3040 C.3       2 GLP5        0.0000 
    112 CA        -11.7293   48.0861   56.5025 C.3       1 GLC5        0.0000 
    113 CA        -11.6780   46.4400   57.2650 C.3       2 GLP5        0.0000 
    114 CA        -12.6133   50.2362   57.6655 C.3       1 GLC5        0.0000 
    115 CA        -14.5983   51.7160   55.1650 C.3       1 GLC5        0.0000 
    116 CA        -16.5710   52.0730   54.8750 C.3       2 GLP5        0.0000 
    117 CA         -7.6018   54.8478   57.3792 C.3       1 GLC5        0.0000 
    118 CA         -5.7047   55.0517   54.2592 C.3       1 GLC5        0.0000 
    119 CA         -5.0360   55.7560   52.5310 C.3       2 GLP5        0.0000 
    120 CA         -3.4195   54.2917   65.3675 C.3       1 GLC5        0.0000 
    121 CA         -3.2320   55.4020   66.6050 C.3       3 GLL5        0.0000 
@<TRIPOS>BOND
@<TRIPOS>SUBSTRUCTURE
     1 GLC5        1 GROUP        1 X    GLC  0     ROOT GLC X 6
     2 GLP5        3 GROUP        1 Y    GLP  0     ROOT GLP Y 13
     3 GLL5        2 GROUP        1 Z    GLL  0     ROOT GLL Z 20
@<TRIPOS>SET

