#    Name: 1kkq_471_4_ligand
#    Modification time : Tue Mar 25 10:14:10 2014

@<TRIPOS>MOLECULE
1kkq_471_4_ligand
   80    83     1     0     0
SMALL
NO_CHARGES


@<TRIPOS>ATOM
      1 N          -5.7820   57.8730   61.9630 N.4       1 471778      0.0000 
      2 CA         -4.4550   57.5900   62.5060 C.3       1 471778      0.0000 
      3 CB         -3.3940   57.7010   61.4120 C.3       1 471778      0.0000 
      4 CG         -3.7660   57.0250   60.1120 C.ar      1 471778      0.0000 
      5 CD1        -4.4660   57.6890   59.1810 C.ar      1 471778      0.0000 
      6 CD2        -3.4210   55.7510   59.8670 C.ar      1 471778      0.0000 
      7 CE1        -4.8220   57.0990   58.0300 C.ar      1 471778      0.0000 
      8 CE2        -3.7770   55.1620   58.7150 C.ar      1 471778      0.0000 
      9 CZ         -4.4820   55.8240   57.7860 C.ar      1 471778      0.0000 
     10 OH         -4.8580   55.2240   56.6120 O.3       1 471778      0.0000 
     11 C1A        -7.0550   57.4300   62.3100 C.2       1 471778      0.0000 
     12 C1F        -8.1140   57.8200   61.6040 C.2       1 471778      0.0000 
     13 C1B        -7.3440   56.4950   63.4470 C.3       1 471778      0.0000 
     14 C1H        -9.5370   58.9090   59.8140 C.ar      1 471778      0.0000 
     15 C1I        -9.5580   59.0680   58.4810 C.ar      1 471778      0.0000 
     16 C1J       -10.7080   59.2400   57.8130 C.ar      1 471778      0.0000 
     17 C1K       -11.8840   59.2590   58.4580 C.ar      1 471778      0.0000 
     18 C1N       -13.1700   59.4470   57.6870 C.3       1 471778      0.0000 
     19 F1Q       -13.4790   60.7720   57.5990 F         1 471778      0.0000 
     20 F1P       -13.0920   58.9620   56.4160 F         1 471778      0.0000 
     21 F1O       -14.2100   58.7890   58.2740 F         1 471778      0.0000 
     22 C1L       -11.8640   59.1070   59.7910 C.ar      1 471778      0.0000 
     23 C1M       -10.7130   58.9350   60.4580 C.ar      1 471778      0.0000 
     24 C1G        -8.2850   58.7200   60.4150 C.2       1 471778      0.0000 
     25 O1G        -7.2980   59.3020   59.9660 O.2       1 471778      0.0000 
     26 O3F       -10.3830   53.9420   55.1770 O.3       1 471778      0.0000 
     27 C3G        -9.9960   52.6450   55.3910 C.2       1 471778      0.0000 
     28 N3H        -8.6180   52.5920   55.4650 N.2       1 471778      0.0000 
     29 C3C        -8.1540   53.8800   55.2900 C.2       1 471778      0.0000 
     30 C3D        -9.2530   54.7150   55.1120 C.2       1 471778      0.0000 
     31 C3E        -9.3030   56.2070   54.8810 C.3       1 471778      0.0000 
     32 C3I       -10.8580   51.6230   55.5030 C.ar      1 471778      0.0000 
     33 C3N       -10.4610   50.3590   55.7120 C.ar      1 471778      0.0000 
     34 C3M       -11.3450   49.3560   55.8180 C.ar      1 471778      0.0000 
     35 C3L       -12.6580   49.6070   55.7150 C.ar      1 471778      0.0000 
     36 C3K       -13.0750   50.8640   55.5070 C.ar      1 471778      0.0000 
     37 C3J       -12.1760   51.8540   55.4030 C.ar      1 471778      0.0000 
     38 C3A        -6.0600   54.4580   56.6750 C.3       1 471778      0.0000 
     39 C3B        -6.6870   54.2370   55.3000 C.3       1 471778      0.0000 
     40 C4A        -4.0670   57.9780   63.9300 C.3       1 471778      0.0000 
     41 N4B        -3.5370   56.8910   64.7500 N.am      1 471778      0.0000 
     42 C4C        -3.9570   56.5720   65.9610 C.2       1 471778      0.0000 
     43 O4C        -4.8640   57.1630   66.5450 O.2       1 471778      0.0000 
     44 C4D        -3.2320   55.4020   66.6050 C.3       1 471778      0.0000 
     45 C4E        -4.0760   54.5370   67.5370 C.3       1 471778      0.0000 
     46 H          -4.5004   56.3485   62.5985 H         1 471778      0.0000 
     47 H          -2.4498   57.2678   61.7910 H         1 471778      0.0000 
     48 H          -3.1940   58.7718   61.2218 H         1 471778      0.0000 
     49 H          -4.7409   58.6895   59.3557 H         1 471778      0.0000 
     50 H          -2.8716   55.2146   60.5782 H         1 471778      0.0000 
     51 H          -5.3690   57.6370   57.3168 H         1 471778      0.0000 
     52 H          -3.4978   54.1628   58.5378 H         1 471778      0.0000 
     53 H          -9.1117   57.4220   61.9219 H         1 471778      0.0000 
     54 H          -8.6481   59.0573   57.9472 H         1 471778      0.0000 
     55 H         -10.6878   59.3617   56.7692 H         1 471778      0.0000 
     56 H         -12.7726   59.1231   60.3255 H         1 471778      0.0000 
     57 H         -10.7333   58.8186   61.5034 H         1 471778      0.0000 
     58 H          -9.4307   50.1492   55.7948 H         1 471778      0.0000 
     59 H         -11.0106   48.3799   55.9807 H         1 471778      0.0000 
     60 H         -13.3484   48.8316   55.7959 H         1 471778      0.0000 
     61 H         -14.0938   51.0716   55.4264 H         1 471778      0.0000 
     62 H         -12.5141   52.8409   55.2381 H         1 471778      0.0000 
     63 H          -6.8215   54.9505   57.3120 H         1 471778      0.0000 
     64 H          -5.8816   53.4602   57.1230 H         1 471778      0.0000 
     65 H          -6.5325   55.1570   54.6917 H         1 471778      0.0000 
     66 H          -6.1145   53.4372   54.7776 H         1 471778      0.0000 
     67 H          -4.9657   58.4261   64.4165 H         1 471778      0.0000 
     68 H          -3.3259   58.8097   63.8652 H         1 471778      0.0000 
     69 H          -2.7479   56.3427   64.2839 H         1 471778      0.0000 
     70 H          -2.3595   55.7885   67.1731 H         1 471778      0.0000 
     71 H          -2.8113   54.7560   65.8057 H         1 471778      0.0000 
     72 H          -6.8788   55.6171   63.3334 H         1 471778      0.0000 
     73 H          -7.0464   56.8731   64.3236 H         1 471778      0.0000 
     74 H          -8.3215   56.3003   63.5285 H         1 471778      0.0000 
     75 H          -8.3885   56.6114   54.8661 H         1 471778      0.0000 
     76 H          -9.7379   56.4335   54.0095 H         1 471778      0.0000 
     77 H          -9.8195   56.6766   55.5971 H         1 471778      0.0000 
     78 H          -3.5449   53.7858   67.9290 H         1 471778      0.0000 
     79 H          -4.4448   55.0655   68.3017 H         1 471778      0.0000 
     80 H          -4.8545   54.1282   67.0608 H         1 471778      0.0000 
@<TRIPOS>BOND
     1    2    1 1    
     2   11    1 1    
     3    3    2 1    
     4   40    2 1    
     5   46    2 1    
     6    4    3 1    
     7   47    3 1    
     8   48    3 1    
     9    5    4 ar   
    10    6    4 ar   
    11    7    5 ar   
    12   49    5 1    
    13    8    6 ar   
    14   50    6 1    
    15    9    7 ar   
    16   51    7 1    
    17    9    8 ar   
    18   52    8 1    
    19   10    9 1    
    20   38   10 1    
    21   12   11 2    
    22   13   11 1    
    23   24   12 1    
    24   53   12 1    
    25   72   13 1    
    26   73   13 1    
    27   74   13 1    
    28   15   14 ar   
    29   23   14 ar   
    30   24   14 1    
    31   16   15 ar   
    32   54   15 1    
    33   17   16 ar   
    34   55   16 1    
    35   18   17 1    
    36   22   17 ar   
    37   19   18 1    
    38   20   18 1    
    39   21   18 1    
    40   23   22 ar   
    41   56   22 1    
    42   57   23 1    
    43   25   24 2    
    44   27   26 1    
    45   30   26 1    
    46   28   27 2    
    47   32   27 1    
    48   29   28 1    
    49   30   29 2    
    50   39   29 1    
    51   31   30 1    
    52   75   31 1    
    53   76   31 1    
    54   77   31 1    
    55   33   32 ar   
    56   37   32 ar   
    57   34   33 ar   
    58   58   33 1    
    59   35   34 ar   
    60   59   34 1    
    61   36   35 ar   
    62   60   35 1    
    63   37   36 ar   
    64   61   36 1    
    65   62   37 1    
    66   39   38 1    
    67   63   38 1    
    68   64   38 1    
    69   65   39 1    
    70   66   39 1    
    71   41   40 1    
    72   67   40 1    
    73   68   40 1    
    74   42   41 am   
    75   69   41 1    
    76   43   42 2    
    77   44   42 1    
    78   45   44 1    
    79   70   44 1    
    80   71   44 1    
    81   78   45 1    
    82   79   45 1    
    83   80   45 1    
@<TRIPOS>SUBSTRUCTURE
     1 471778      1 GROUP   
@<TRIPOS>SET

