#    Name: 2ZDH_2_CAVITY_N1_6.mol2
#    Modification time : Tue Mar 11 05:32:28 2014

@<TRIPOS>MOLECULE
2ZDH_2_CAVITY_N1_6.mol2
  122     0     7     0     0
SMALL
NO_CHARGES


@<TRIPOS>ATOM
      1 OD1        31.0642  -16.8237  -16.3211 O.3       3 ASP3        0.0000 
      2 OD1        29.9333  -17.4950  -17.0426 O.3       3 ASP3        0.0000 
      3 OG         29.7995  -18.4783  -15.9177 O.2       1 SER1        0.0000 
      4 OG         29.6656  -19.4616  -14.7929 O.2       1 SER1        0.0000 
      5 CA         29.5318  -20.4449  -13.6681 C.3       6 GLY6        0.0000 
      6 N          29.3979  -21.4282  -12.5432 N.2       2 ALA2        0.0000 
      7 O          28.9363  -17.1831  -18.8888 O.2       2 ALA2        0.0000 
      8 DU         28.8025  -18.1664  -17.7640 H         7 CUB7        0.0000 
      9 DU         28.6686  -19.1497  -16.6392 H         7 CUB7        0.0000 
     10 CA         28.5348  -20.1329  -15.5143 C.3       6 GLY6        0.0000 
     11 CA         28.4009  -21.1162  -14.3895 C.3       6 GLY6        0.0000 
     12 CA         28.2671  -22.0995  -13.2646 C.3       6 GLY6        0.0000 
     13 CZ         27.8054  -17.8545  -19.6102 C.ar      5 PHE5        0.0000 
     14 CZ         27.6716  -18.8377  -18.4854 C.ar      5 PHE5        0.0000 
     15 CZ         27.5377  -19.8210  -17.3606 C.ar      5 PHE5        0.0000 
     16 CZ         27.4039  -20.8043  -16.2357 C.ar      5 PHE5        0.0000 
     17 CZ         26.5407  -19.5091  -19.2068 C.ar      5 PHE5        0.0000 
     18 CZ         26.4069  -20.4924  -18.0820 C.ar      5 PHE5        0.0000 
     19 CZ         25.4099  -20.1804  -19.9283 C.ar      5 PHE5        0.0000 
     20 CZ         24.4129  -19.8685  -21.7745 C.ar      5 PHE5        0.0000 
     21 CZ         24.2790  -20.8518  -20.6497 C.ar      5 PHE5        0.0000 
     22 O          23.2820  -20.5399  -22.4959 O.2       2 ALA2        0.0000 
     23 OD1        32.1744  -16.7528  -18.1274 O.3       3 ASP3        0.0000 
     24 OD1        32.0405  -17.7361  -17.0025 O.3       3 ASP3        0.0000 
     25 OG         31.9067  -18.7194  -15.8777 O.2       1 SER1        0.0000 
     26 OG         31.6390  -20.6859  -13.6280 O.2       1 SER1        0.0000 
     27 CA         31.5051  -21.6692  -12.5032 C.3       6 GLY6        0.0000 
     28 OD1        31.0435  -17.4242  -18.8488 O.3       3 ASP3        0.0000 
     29 DU         30.9097  -18.4074  -17.7240 H         7 CUB7        0.0000 
     30 OG         30.7758  -19.3907  -16.5991 O.2       1 SER1        0.0000 
     31 OG         30.6420  -20.3740  -15.4743 O.2       1 SER1        0.0000 
     32 OG         30.5081  -21.3573  -14.3495 O.2       1 SER1        0.0000 
     33 DU         30.3743  -22.3405  -13.2246 H         7 CUB7        0.0000 
     34 NZ         30.0465  -17.1122  -20.6950 N.2       4 LYS4        0.0000 
     35 NZ         29.9126  -18.0955  -19.5702 N.2       4 LYS4        0.0000 
     36 DU         29.7788  -19.0788  -18.4454 H         7 CUB7        0.0000 
     37 DU         29.6449  -20.0621  -17.3205 H         7 CUB7        0.0000 
     38 DU         29.5111  -21.0453  -16.1957 H         7 CUB7        0.0000 
     39 DU         29.3773  -22.0286  -15.0709 H         7 CUB7        0.0000 
     40 CA         29.2434  -23.0119  -13.9460 C.3       6 GLY6        0.0000 
     41 CZ         28.7818  -18.7669  -20.2916 C.ar      5 PHE5        0.0000 
     42 CZ         28.6479  -19.7501  -19.1668 C.ar      5 PHE5        0.0000 
     43 CZ         28.5141  -20.7334  -18.0420 C.ar      5 PHE5        0.0000 
     44 CZ         28.3802  -21.7167  -16.9171 C.ar      5 PHE5        0.0000 
     45 CZ         28.2464  -22.7000  -15.7923 C.ar      5 PHE5        0.0000 
     46 CZ         28.1126  -23.6832  -14.6675 C.ar      5 PHE5        0.0000 
     47 CZ         27.5171  -20.4215  -19.8882 C.ar      5 PHE5        0.0000 
     48 CZ         27.3832  -21.4048  -18.7634 C.ar      5 PHE5        0.0000 
     49 CZ         26.3862  -21.0928  -20.6096 C.ar      5 PHE5        0.0000 
     50 CZ         25.3892  -20.7809  -22.4559 C.ar      5 PHE5        0.0000 
     51 CZ         25.2554  -21.7642  -21.3311 C.ar      5 PHE5        0.0000 
     52 O          24.2583  -21.4522  -23.1773 O.2       2 ALA2        0.0000 
     53 O          24.1245  -22.4355  -22.0525 O.2       2 ALA2        0.0000 
     54 OG         29.9540  -16.8946  -14.5149 O.2       1 SER1        0.0000 
     55 OD1        28.9570  -16.5827  -16.3612 O.3       3 ASP3        0.0000 
     56 CA         28.8231  -17.5659  -15.2363 C.3       6 GLY6        0.0000 
     57 O          27.9600  -16.2707  -18.2074 O.2       2 ALA2        0.0000 
     58 OD1        27.8261  -17.2540  -17.0826 O.3       3 ASP3        0.0000 
     59 CA         27.6923  -18.2373  -15.9578 C.3       6 GLY6        0.0000 
     60 N          26.8291  -16.9421  -18.9288 N.2       2 ALA2        0.0000 
     61 OD1        26.6953  -17.9253  -17.8040 O.3       3 ASP3        0.0000 
     62 CA         26.5614  -18.9086  -16.6792 C.3       6 GLY6        0.0000 
     63 NZ         23.4365  -18.9561  -21.0931 N.2       4 LYS4        0.0000 
     64 DU         33.0169  -18.6485  -17.6839 H         7 CUB7        0.0000 
     65 OG         32.8830  -19.6318  -16.5591 O.2       1 SER1        0.0000 
     66 OG         32.7492  -20.6150  -15.4343 O.2       1 SER1        0.0000 
     67 NZ         32.0198  -18.3366  -19.5302 N.2       4 LYS4        0.0000 
     68 DU         31.8860  -19.3198  -18.4053 H         7 CUB7        0.0000 
     69 DU         31.7521  -20.3031  -17.2805 H         7 CUB7        0.0000 
     70 DU         31.6183  -21.2864  -16.1557 H         7 CUB7        0.0000 
     71 N          31.4845  -22.2697  -15.0308 N.2       2 ALA2        0.0000 
     72 N          31.3506  -23.2529  -13.9060 N.2       2 ALA2        0.0000 
     73 NZ         30.7551  -19.9912  -19.1268 N.2       4 LYS4        0.0000 
     74 DU         30.6213  -20.9745  -18.0019 H         7 CUB7        0.0000 
     75 N          30.4874  -21.9577  -16.8771 N.2       2 ALA2        0.0000 
     76 N          30.3536  -22.9410  -15.7523 N.2       2 ALA2        0.0000 
     77 N          30.2198  -23.9243  -14.6274 N.2       2 ALA2        0.0000 
     78 NZ         29.6243  -20.6625  -19.8482 N.2       4 LYS4        0.0000 
     79 DU         29.4904  -21.6458  -18.7234 H         7 CUB7        0.0000 
     80 CZ         29.3566  -22.6291  -17.5985 C.ar      5 PHE5        0.0000 
     81 CA         29.2227  -23.6124  -16.4737 C.3       6 GLY6        0.0000 
     82 NZ         28.4934  -21.3339  -20.5696 N.2       4 LYS4        0.0000 
     83 CZ         28.3596  -22.3171  -19.4448 C.ar      5 PHE5        0.0000 
     84 CZ         27.4964  -21.0219  -22.4159 C.ar      5 PHE5        0.0000 
     85 CZ         27.3626  -22.0052  -21.2910 C.ar      5 PHE5        0.0000 
     86 CZ         27.2287  -22.9885  -20.1662 C.ar      5 PHE5        0.0000 
     87 CA         26.3655  -21.6933  -23.1373 C.3       6 GLY6        0.0000 
     88 N          26.2317  -22.6766  -22.0125 N.2       2 ALA2        0.0000 
     89 CZ         24.9670  -24.3312  -21.6091 C.ar      5 PHE5        0.0000 
     90 OD1        27.9806  -15.6703  -15.6798 O.3       3 ASP3        0.0000 
     91 OD1        26.8498  -16.3416  -16.4012 O.3       3 ASP3        0.0000 
     92 NZ         30.4461  -23.1587  -21.9324 N.2       4 LYS4        0.0000 
     93 CA         30.3123  -24.1419  -20.8076 C.3       6 GLY6        0.0000 
     94 CA         29.4491  -22.8467  -23.7787 C.3       6 GLY6        0.0000 
     95 CA         29.3152  -23.8300  -22.6538 C.3       6 GLY6        0.0000 
     96 N          29.1814  -24.8133  -21.5290 N.2       2 ALA2        0.0000 
     97 N          29.0476  -25.7966  -20.4042 N.2       2 ALA2        0.0000 
     98 NZ         28.0505  -25.4846  -22.2504 N.2       4 LYS4        0.0000 
     99 NZ         27.9167  -26.4679  -21.1256 N.2       4 LYS4        0.0000 
    100 NZ         26.9197  -26.1560  -22.9718 N.2       4 LYS4        0.0000 
    101 O          26.7858  -27.1393  -21.8470 O.2       2 ALA2        0.0000 
    102 CA         30.2916  -24.7424  -23.3352 C.3       6 GLY6        0.0000 
    103 DU         34.1270  -18.5776  -19.4902 H         7 CUB7        0.0000 
    104 NZ         32.8623  -20.2322  -19.0867 N.2       4 LYS4        0.0000 
    105 CA         32.7285  -21.2155  -17.9619 C.3       6 GLY6        0.0000 
    106 N          32.5946  -22.1988  -16.8371 N.2       2 ALA2        0.0000 
    107 CA         31.5976  -21.8868  -18.6833 C.3       6 GLY6        0.0000 
    108 N          31.4638  -22.8701  -17.5585 N.2       2 ALA2        0.0000 
    109 CA         30.4668  -22.5582  -19.4048 C.3       6 GLY6        0.0000 
    110 N          30.3329  -23.5415  -18.2799 N.2       2 ALA2        0.0000 
    111 NZ         29.4698  -22.2463  -21.2510 N.2       4 LYS4        0.0000 
    112 CA         29.3359  -23.2295  -20.1262 C.3       6 GLY6        0.0000 
    113 N          29.2021  -24.2128  -19.0013 N.2       2 ALA2        0.0000 
    114 CA         28.4727  -21.9343  -23.0973 C.3       6 GLY6        0.0000 
    115 CA         28.3389  -22.9176  -21.9724 C.3       6 GLY6        0.0000 
    116 CZ         28.2051  -23.9009  -20.8476 C.ar      5 PHE5        0.0000 
    117 CZ         28.0712  -24.8842  -19.7228 C.ar      5 PHE5        0.0000 
    118 CA         27.2080  -23.5890  -22.6939 C.3       6 GLY6        0.0000 
    119 CZ         27.0742  -24.5722  -21.5690 C.ar      5 PHE5        0.0000 
    120 CZ         26.9404  -25.5555  -20.4442 C.ar      5 PHE5        0.0000 
    121 N          25.9433  -25.2436  -22.2905 N.2       2 ALA2        0.0000 
    122 O          25.8095  -26.2269  -21.1656 O.2       2 ALA2        0.0000 
@<TRIPOS>BOND
@<TRIPOS>SUBSTRUCTURE
     1 SER1        3 GROUP   
     2 ALA2        6 GROUP   
     3 ASP3        1 GROUP   
     4 LYS4       34 GROUP   
     5 PHE5       13 GROUP   
     6 GLY6        5 GROUP   
     7 CUB7        8 GROUP   
@<TRIPOS>SET

