#    Name: 2zdh_ADP_2_INTS_M
#    Modification time : Tue Mar 25 10:35:08 2014

@<TRIPOS>MOLECULE
2zdh_ADP_2_INTS_M
   59     0    15     0     0
SMALL
NO_CHARGES


@<TRIPOS>ATOM
      1 N          30.6565  -16.0865  -12.2330 N.am      2 SEC2        0.0000 
      2 N          30.5650  -15.8030  -13.5090 N.am     12 SEL2        0.0000 
      3 N          30.7480  -16.3700  -10.9570 N.am      7 SEP2        0.0000 
      4 N          31.1610  -16.9730  -13.2750 N.am      2 SEC2        0.0000 
      5 N          31.7570  -18.1430  -13.0410 N.am      7 SEP2        0.0000 
      6 Zn         30.8000  -14.3995  -16.6825 Zn        4 ZIC7        0.0000 
      7 Zn         30.7560  -14.5990  -15.6370 Zn       14 ZIL7        0.0000 
      8 Zn         30.8440  -14.2000  -17.7280 Zn        9 ZIP7        0.0000 
      9 NZ         27.6970  -13.5460  -14.9895 N.4       3 LYC4        0.0000 
     10 NZ         28.7910  -14.0890  -14.0010 N.4      13 LYL4        0.0000 
     11 NZ         26.6030  -13.0030  -15.9780 N.4       8 LYP4        0.0000 
     12 NZ         26.7090  -14.4470  -16.3150 N.4       3 LYC4        0.0000 
     13 NZ         26.8150  -15.8910  -16.6520 N.4      13 LYL4        0.0000 
     14 NZ         25.5765  -16.3405  -17.2075 N.4       3 LYC4        0.0000 
     15 NZ         24.3380  -16.7900  -17.7630 N.4       8 LYP4        0.0000 
     16 N          25.5765  -16.3405  -17.2075 N.am      2 SEC2        0.0000 
     17 N          26.8150  -15.8910  -16.6520 N.am     12 SEL2        0.0000 
     18 N          24.3380  -16.7900  -17.7630 N.am      7 SEP2        0.0000 
     19 NZ         27.8090  -14.1530  -16.8145 N.4       3 LYC4        0.0000 
     20 NZ         29.0150  -15.3030  -17.6510 N.4      13 LYL4        0.0000 
     21 Zn         29.9295  -14.7515  -17.6895 Zn        4 ZIC7        0.0000 
     22 Zn         29.0150  -15.3030  -17.6510 Zn       14 ZIL7        0.0000 
     23 N          28.5175  -15.1115  -19.0925 N.am      2 SEC2        0.0000 
     24 N          29.0150  -15.3030  -17.6510 N.am     12 SEL2        0.0000 
     25 N          28.0200  -14.9200  -20.5340 N.am      7 SEP2        0.0000 
     26 O          31.1380  -18.8140  -21.1375 O.2       1 ALC1        0.0000 
     27 O          31.0420  -18.9500  -19.8190 O.2      11 ALL1        0.0000 
     28 O          31.2340  -18.6780  -22.4560 O.2       6 ALP1        0.0000 
     29 O          30.9995  -21.1790  -21.2165 O.2       1 ALC1        0.0000 
     30 O          30.2430  -21.5540  -20.2230 O.2      11 ALL1        0.0000 
     31 O          31.7560  -20.8040  -22.2100 O.2       6 ALP1        0.0000 
     32 CA         26.9965  -22.1760  -18.0030 C.3       5 GLC5        0.0000 
     33 CA         28.1330  -21.0650  -19.0530 C.3      15 GLL5        0.0000 
     34 CA         25.8600  -23.2870  -16.9530 C.3      10 GLP5        0.0000 
     35 N          24.6375  -18.0680  -18.5595 N.am      2 SEC2        0.0000 
     36 N          24.9370  -19.3460  -19.3560 N.am     12 SEL2        0.0000 
     37 CA         22.3870  -22.0695  -21.5040 C.3       5 GLC5        0.0000 
     38 CA         23.7540  -20.5730  -21.2700 C.3      15 GLL5        0.0000 
     39 CA         21.0200  -23.5660  -21.7380 C.3      10 GLP5        0.0000 
     40 O          22.3035  -18.5710  -20.4660 O.2       1 ALC1        0.0000 
     41 O          22.5730  -19.8530  -21.2810 O.2      11 ALL1        0.0000 
     42 O          22.0340  -17.2890  -19.6510 O.2       6 ALP1        0.0000 
     43 O          21.3015  -20.4605  -21.7990 O.2       1 ALC1        0.0000 
     44 O          20.0300  -21.0680  -22.3170 O.2       6 ALP1        0.0000 
     45 N          23.1365  -22.4710  -22.9555 N.am      2 SEC2        0.0000 
     46 N          23.9500  -21.5910  -22.1420 N.am     12 SEL2        0.0000 
     47 N          22.3230  -23.3510  -23.7690 N.am      7 SEP2        0.0000 
     48 CA         23.0525  -22.9365  -21.9440 C.3       5 GLC5        0.0000 
     49 CA         25.0850  -22.3070  -22.1500 C.3      15 GLL5        0.0000 
     50 CA         23.8885  -22.9790  -23.6480 C.3       5 GLC5        0.0000 
     51 CA         22.6920  -23.6510  -25.1460 C.3      10 GLP5        0.0000 
     52 CA         26.3520  -22.9395  -23.7580 C.3       5 GLC5        0.0000 
     53 CA         27.6190  -23.5720  -25.3660 C.3      10 GLP5        0.0000 
     54 CA         28.6620  -19.2210  -21.4020 C.3       5 GLC5        0.0000 
     55 CA         29.1910  -20.5870  -20.0530 C.3      15 GLL5        0.0000 
     56 CA         27.8660  -18.4960  -23.0720 C.3      10 GLP5        0.0000 
     57 CA         23.3457  -21.0563  -19.0695 C.3       5 GLC5        0.0000 
     58 CA         24.7810  -20.2600  -20.3420 C.3      15 GLL5        0.0000 
     59 CA         22.4240  -21.6960  -17.3330 C.3      10 GLP5        0.0000 
@<TRIPOS>BOND
@<TRIPOS>SUBSTRUCTURE
     1 ALC1       26 GROUP        1 X    ALC  0     ROOT ALC X 1
     2 SEC2        1 GROUP        1 X    SEC  0     **** SEC X 2
     3 LYC4        9 GROUP        1 X    LYC  0     **** LYC X 4
     4 ZIC7        6 GROUP        1 X    ZIC  0     **** ZIC X 5
     5 GLC5       32 GROUP        1 X    GLC  0     **** GLC X 6
     6 ALP1       28 GROUP        1 Y    ALP  0     ROOT ALP Y 8
     7 SEP2        3 GROUP        1 Y    SEP  0     **** SEP Y 9
     8 LYP4       11 GROUP        1 Y    LYP  0     **** LYP Y 11
     9 ZIP7        8 GROUP        1 Y    ZIP  0     **** ZIP Y 12
    10 GLP5       34 GROUP        1 Y    GLP  0     **** GLP Y 13
    11 ALL1       27 GROUP        1 Z    ALL  0     ROOT ALL Z 15
    12 SEL2        2 GROUP        1 Z    SEL  0     **** SEL Z 16
    13 LYL4       10 GROUP        1 Z    LYL  0     **** LYL Z 18
    14 ZIL7        7 GROUP        1 Z    ZIL  0     **** ZIL Z 19
    15 GLL5       33 GROUP        1 Z    GLL  0     **** GLL Z 20
@<TRIPOS>SET

