#    Name: 2zdh_ADP_2_ligand
#    Modification time : Tue Mar 25 10:35:08 2014

@<TRIPOS>MOLECULE
2zdh_ADP_2_ligand
   39    41     1     0     0
SMALL
NO_CHARGES


@<TRIPOS>ATOM
      1 PB         29.7540  -15.2260  -14.6020 P.3       1 ADP702      0.0000 
      2 O1B        30.5650  -15.8030  -13.5090 O.co2     1 ADP702      0.0000 
      3 O2B        30.7560  -14.5990  -15.6370 O.co2     1 ADP702      0.0000 
      4 O3B        28.7910  -14.0890  -14.0010 O.co2     1 ADP702      0.0000 
      5 PA         28.2300  -16.3100  -16.7370 P.3       1 ADP702      0.0000 
      6 O1A        26.8150  -15.8910  -16.6520 O.co2     1 ADP702      0.0000 
      7 O2A        29.0150  -15.3030  -17.6510 O.co2     1 ADP702      0.0000 
      8 O3A        28.8590  -16.4520  -15.2150 O.3       1 ADP702      0.0000 
      9 O5'        28.2640  -17.7720  -17.4100 O.3       1 ADP702      0.0000 
     10 C5'        29.5040  -18.4070  -17.0560 C.3       1 ADP702      0.0000 
     11 C4'        29.6830  -19.6530  -17.9190 C.3       1 ADP702      0.0000 
     12 O4'        28.5480  -20.5650  -17.7430 O.3       1 ADP702      0.0000 
     13 C3'        29.7250  -19.3050  -19.4110 C.3       1 ADP702      0.0000 
     14 O3'        31.0420  -18.9500  -19.8190 O.3       1 ADP702      0.0000 
     15 C2'        29.1910  -20.5870  -20.0530 C.3       1 ADP702      0.0000 
     16 O2'        30.2430  -21.5540  -20.2230 O.3       1 ADP702      0.0000 
     17 C1'        28.1330  -21.0650  -19.0530 C.3       1 ADP702      0.0000 
     18 N9         26.7830  -20.5520  -19.3980 N.pl3     1 ADP702      0.0000 
     19 C8         26.1050  -19.5120  -18.7990 C.2       1 ADP702      0.0000 
     20 N7         24.9370  -19.3460  -19.3560 N.2       1 ADP702      0.0000 
     21 C5         24.7810  -20.2600  -20.3420 C.ar      1 ADP702      0.0000 
     22 C6         23.7540  -20.5730  -21.2700 C.ar      1 ADP702      0.0000 
     23 N6         22.5730  -19.8530  -21.2810 N.pl3     1 ADP702      0.0000 
     24 N1         23.9500  -21.5910  -22.1420 N.ar      1 ADP702      0.0000 
     25 C2         25.0850  -22.3070  -22.1500 C.ar      1 ADP702      0.0000 
     26 N3         26.0780  -22.0470  -21.2930 N.ar      1 ADP702      0.0000 
     27 C4         25.9690  -21.0470  -20.3840 C.ar      1 ADP702      0.0000 
     28 H          29.5130  -18.7166  -16.0096 H         1 ADP702      0.0000 
     29 H          30.3571  -17.7493  -17.2311 H         1 ADP702      0.0000 
     30 H          30.5959  -20.1449  -17.6605 H         1 ADP702      0.0000 
     31 H          28.9975  -18.5345  -19.5698 H         1 ADP702      0.0000 
     32 H          28.7014  -20.3247  -20.9554 H         1 ADP702      0.0000 
     33 H          28.1399  -22.1384  -19.0518 H         1 ADP702      0.0000 
     34 H          26.4851  -18.9919  -18.0566 H         1 ADP702      0.0000 
     35 H          21.8787  -20.1566  -21.9335 H         1 ADP702      0.0000 
     36 H          22.5160  -19.0914  -20.6355 H         1 ADP702      0.0000 
     37 H          25.1940  -23.0905  -22.8474 H         1 ADP702      0.0000 
     38 H          30.9209  -18.4461  -20.6742 H         1 ADP702      0.0000 
     39 H          31.0264  -21.0284  -20.5547 H         1 ADP702      0.0000 
@<TRIPOS>BOND
     1    2    1 ar   
     2    3    1 ar   
     3    4    1 ar   
     4    8    1 1    
     5    6    5 ar   
     6    7    5 ar   
     7    8    5 1    
     8    9    5 1    
     9   10    9 1    
    10   11   10 1    
    11   28   10 1    
    12   29   10 1    
    13   12   11 1    
    14   13   11 1    
    15   30   11 1    
    16   17   12 1    
    17   14   13 1    
    18   15   13 1    
    19   31   13 1    
    20   38   14 1    
    21   16   15 1    
    22   17   15 1    
    23   32   15 1    
    24   39   16 1    
    25   18   17 1    
    26   33   17 1    
    27   19   18 1    
    28   27   18 1    
    29   20   19 2    
    30   34   19 1    
    31   21   20 1    
    32   22   21 ar   
    33   27   21 ar   
    34   23   22 1    
    35   24   22 ar   
    36   35   23 1    
    37   36   23 1    
    38   25   24 ar   
    39   26   25 ar   
    40   37   25 1    
    41   27   26 ar   
@<TRIPOS>SUBSTRUCTURE
     1 ADP702      1 GROUP   
@<TRIPOS>SET

