#    Name: 1w3v_MDZ_1_INTS_M
#    Modification time : Tue Mar 25 08:34:24 2014

@<TRIPOS>MOLECULE
1w3v_MDZ_1_INTS_M
   62     0     9     0     0
SMALL
NO_CHARGES


@<TRIPOS>ATOM
      1 N           4.6150   35.3070    4.3600 N.am      1 SEC2        0.0000 
      2 N           4.5840   36.5520    4.8960 N.am      7 SEL2        0.0000 
      3 N           4.6460   34.0620    3.8240 N.am      4 SEP2        0.0000 
      4 N           4.6155   38.1725    7.0695 N.am      1 SEC2        0.0000 
      5 N           5.4200   38.1630    6.0490 N.am      7 SEL2        0.0000 
      6 N           3.8110   38.1820    8.0900 N.am      4 SEP2        0.0000 
      7 CA          7.2230   35.9670    5.4220 C.3       3 GLC5        0.0000 
      8 CA          6.7390   37.2740    4.2660 C.3       9 GLL5        0.0000 
      9 CA          7.7070   34.6600    6.5780 C.3       6 GLP5        0.0000 
     10 CA         10.7735   38.0180    3.4260 C.3       3 GLC5        0.0000 
     11 CA          9.8170   39.2940    4.8540 C.3       9 GLL5        0.0000 
     12 CA         11.7300   36.7420    1.9980 C.3       6 GLP5        0.0000 
     13 CA         10.7105   38.2985    2.0710 C.3       3 GLC5        0.0000 
     14 CA          9.6910   39.8550    2.1440 C.3       9 GLL5        0.0000 
     15 CA          9.4500   42.6450    2.8395 C.3       3 GLC5        0.0000 
     16 CA         10.2660   41.6510    4.1010 C.3       9 GLL5        0.0000 
     17 CA          8.6340   43.6390    1.5780 C.3       6 GLP5        0.0000 
     18 CA         12.0795   42.3640    4.0940 C.3       3 GLC5        0.0000 
     19 CA         13.8930   43.0770    4.0870 C.3       6 GLP5        0.0000 
     20 CA         15.5320   39.8290    4.7120 C.3       3 GLC5        0.0000 
     21 CA         13.5480   39.0280    5.1910 C.3       9 GLL5        0.0000 
     22 CA         17.5160   40.6300    4.2330 C.3       6 GLP5        0.0000 
     23 CA         13.7205   41.0525    4.6390 C.3       3 GLC5        0.0000 
     24 CA         13.5885   35.5805    5.7540 C.3       3 GLC5        0.0000 
     25 CA         14.0400   37.7420    5.8340 C.3       9 GLL5        0.0000 
     26 CA         13.1370   33.4190    5.6740 C.3       6 GLP5        0.0000 
     27 CA         16.5090   39.0755    4.8465 C.3       3 GLC5        0.0000 
     28 CA         15.5020   37.5210    5.4600 C.3       9 GLL5        0.0000 
     29 CA         16.4810   34.4880    6.7935 C.3       3 GLC5        0.0000 
     30 CA         16.0790   36.2830    6.1210 C.3       9 GLL5        0.0000 
     31 CA         16.8830   32.6930    7.4660 C.3       6 GLP5        0.0000 
     32 CA         14.6080   34.8510    5.8975 C.3       3 GLC5        0.0000 
     33 NZ         18.9725   35.5700    3.9455 N.4       2 LYC4        0.0000 
     34 NZ         17.6700   35.8710    4.3980 N.4       8 LYL4        0.0000 
     35 NZ         21.2890   35.4730    4.3160 N.4       5 LYP4        0.0000 
     36 N          18.9725   35.5700    3.9455 N.am      1 SEC2        0.0000 
     37 N          17.6700   35.8710    4.3980 N.am      7 SEL2        0.0000 
     38 N          20.2750   35.2690    3.4930 N.am      4 SEP2        0.0000 
     39 N          17.1465   34.8300    3.7000 N.am      1 SEC2        0.0000 
     40 N          16.6230   33.7890    3.0020 N.am      4 SEP2        0.0000 
     41 NZ         19.7360   36.1190    5.9535 N.4       2 LYC4        0.0000 
     42 NZ         18.4240   36.2570    6.3930 N.4       8 LYL4        0.0000 
     43 N          19.7360   36.1190    5.9535 N.am      1 SEC2        0.0000 
     44 N          18.4240   36.2570    6.3930 N.am      7 SEL2        0.0000 
     45 N          21.0480   35.9810    5.5140 N.am      4 SEP2        0.0000 
     46 CA          6.6980   35.0695    1.1695 C.3       3 GLC5        0.0000 
     47 CA          7.3090   36.9090    1.7360 C.3       9 GLL5        0.0000 
     48 CA          6.0870   33.2300    0.6030 C.3       6 GLP5        0.0000 
     49 CA          8.5215   35.2880    1.6025 C.3       3 GLC5        0.0000 
     50 CA          9.7340   33.6670    1.4690 C.3       6 GLP5        0.0000 
     51 CA          9.5195   36.8255    1.8670 C.3       3 GLC5        0.0000 
     52 CA          3.8850   38.7465    1.7780 C.3       3 GLC5        0.0000 
     53 CA          5.8860   38.4620    2.5250 C.3       9 GLL5        0.0000 
     54 CA          1.8840   39.0310    1.0310 C.3       6 GLP5        0.0000 
     55 CA          4.2970   39.4380    3.4885 C.3       3 GLC5        0.0000 
     56 CA          2.7080   40.4140    4.4520 C.3       6 GLP5        0.0000 
     57 CA          8.7538   42.1120    4.9560 C.3       3 GLC5        0.0000 
     58 CA          9.4410   40.3950    3.8410 C.3       9 GLL5        0.0000 
     59 CA          7.6540   43.2010    5.9410 C.3       6 GLP5        0.0000 
     60 CA          9.1000   41.8820    2.2853 C.3       3 GLC5        0.0000 
     61 CA         13.6200   36.9025    4.0416 C.3       3 GLC5        0.0000 
     62 CA         12.5920   35.8520    2.5970 C.3       6 GLP5        0.0000 
@<TRIPOS>BOND
@<TRIPOS>SUBSTRUCTURE
     1 SEC2        1 GROUP        1 X    SEC  0     ROOT SEC X 2
     2 LYC4       33 GROUP        1 X    LYC  0     **** LYC X 4
     3 GLC5        7 GROUP        1 X    GLC  0     **** GLC X 6
     4 SEP2        3 GROUP        1 Y    SEP  0     ROOT SEP Y 9
     5 LYP4       35 GROUP        1 Y    LYP  0     **** LYP Y 11
     6 GLP5        9 GROUP        1 Y    GLP  0     **** GLP Y 13
     7 SEL2        2 GROUP        1 Z    SEL  0     ROOT SEL Z 16
     8 LYL4       34 GROUP        1 Z    LYL  0     **** LYL Z 18
     9 GLL5        8 GROUP        1 Z    GLL  0     **** GLL Z 20
@<TRIPOS>SET

