#    Name: 1w3v_MDZ_1_ligand
#    Modification time : Tue Mar 25 08:34:24 2014

@<TRIPOS>MOLECULE
1w3v_MDZ_1_ligand
   49    48     1     0     0
SMALL
NO_CHARGES


@<TRIPOS>ATOM
      1 O43         4.5840   36.5520    4.8960 O.co2     1 MDZ1333     0.0000 
      2 C31         5.5050   37.3400    5.1260 C.2       1 MDZ1333     0.0000 
      3 O42         5.4200   38.1630    6.0490 O.co2     1 MDZ1333     0.0000 
      4 C30         6.7390   37.2740    4.2660 C.3       1 MDZ1333     0.0000 
      5 O29         7.6120   38.3550    4.6780 O.3       1 MDZ1333     0.0000 
      6 C13         8.9790   38.1060    4.6220 C.2       1 MDZ1333     0.0000 
      7 O18         9.3850   36.9850    4.4200 O.2       1 MDZ1333     0.0000 
      8 C12         9.8170   39.2940    4.8540 C.3       1 MDZ1333     0.0000 
      9 C16         9.4410   40.3950    3.8410 C.3       1 MDZ1333     0.0000 
     10 S17         9.6910   39.8550    2.1440 S.3       1 MDZ1333     0.0000 
     11 C25        10.2660   41.6510    4.1010 C.3       1 MDZ1333     0.0000 
     12 N11        11.2070   38.8670    4.7670 N.am      1 MDZ1333     0.0000 
     13 C10        12.1330   39.2510    5.6140 C.2       1 MDZ1333     0.0000 
     14 O15        11.8150   39.7310    6.6870 O.2       1 MDZ1333     0.0000 
     15 C7         13.5480   39.0280    5.1910 C.3       1 MDZ1333     0.0000 
     16 C4         14.0400   37.7420    5.8340 C.3       1 MDZ1333     0.0000 
     17 C3         15.5020   37.5210    5.4600 C.3       1 MDZ1333     0.0000 
     18 C2         16.0790   36.2830    6.1210 C.3       1 MDZ1333     0.0000 
     19 N14        16.0740   36.4520    7.5770 N.4       1 MDZ1333     0.0000 
     20 C1         17.4730   36.1500    5.5920 C.2       1 MDZ1333     0.0000 
     21 O20        17.6700   35.8710    4.3980 O.co2     1 MDZ1333     0.0000 
     22 O19        18.4240   36.2570    6.3930 O.co2     1 MDZ1333     0.0000 
     23 C32         6.4460   37.1910    2.8470 C.3       1 MDZ1333     0.0000 
     24 C37         7.3090   36.9090    1.7360 C.3       1 MDZ1333     0.0000 
     25 C33         5.8860   38.4620    2.5250 C.3       1 MDZ1333     0.0000 
     26 H           7.2488   36.3083    4.5779 H         1 MDZ1333     0.0000 
     27 H           9.6059   39.6723    5.8515 H         1 MDZ1333     0.0000 
     28 H           8.3986   40.6107    3.8773 H         1 MDZ1333     0.0000 
     29 H          11.4197   38.2175    3.9628 H         1 MDZ1333     0.0000 
     30 H          14.1708   39.8505    5.5198 H         1 MDZ1333     0.0000 
     31 H          13.6057   38.9315    4.1141 H         1 MDZ1333     0.0000 
     32 H          13.4482   36.9081    5.4767 H         1 MDZ1333     0.0000 
     33 H          13.9526   37.8183    6.9110 H         1 MDZ1333     0.0000 
     34 H          16.0845   38.3983    5.7620 H         1 MDZ1333     0.0000 
     35 H          15.5812   37.4215    4.3719 H         1 MDZ1333     0.0000 
     36 H          15.5018   35.4403    5.8200 H         1 MDZ1333     0.0000 
     37 H           5.5205   36.4963    2.7399 H         1 MDZ1333     0.0000 
     38 H          11.2469   41.4749    4.0179 H         1 MDZ1333     0.0000 
     39 H          10.0437   42.3816    3.4554 H         1 MDZ1333     0.0000 
     40 H          10.1102   42.0141    5.0196 H         1 MDZ1333     0.0000 
     41 H          16.4513   35.6528    8.0449 H         1 MDZ1333     0.0000 
     42 H          16.6176   37.2418    7.8611 H         1 MDZ1333     0.0000 
     43 H          15.1492   36.5898    7.9317 H         1 MDZ1333     0.0000 
     44 H           8.0487   37.5777    1.6612 H         1 MDZ1333     0.0000 
     45 H           7.7354   36.0080    1.8163 H         1 MDZ1333     0.0000 
     46 H           6.8130   36.9223    0.8678 H         1 MDZ1333     0.0000 
     47 H           6.5229   39.2082    2.7184 H         1 MDZ1333     0.0000 
     48 H           5.6440   38.5267    1.5569 H         1 MDZ1333     0.0000 
     49 H           5.0534   38.6443    3.0481 H         1 MDZ1333     0.0000 
@<TRIPOS>BOND
     1    2    1 ar   
     2    3    2 ar   
     3    4    2 1    
     4    5    4 1    
     5   23    4 1    
     6   26    4 1    
     7    6    5 1    
     8    7    6 2    
     9    8    6 1    
    10    9    8 1    
    11   12    8 1    
    12   27    8 1    
    13   10    9 1    
    14   11    9 1    
    15   28    9 1    
    16   38   11 1    
    17   39   11 1    
    18   40   11 1    
    19   13   12 am   
    20   29   12 1    
    21   14   13 2    
    22   15   13 1    
    23   16   15 1    
    24   30   15 1    
    25   31   15 1    
    26   17   16 1    
    27   32   16 1    
    28   33   16 1    
    29   18   17 1    
    30   34   17 1    
    31   35   17 1    
    32   19   18 1    
    33   20   18 1    
    34   36   18 1    
    35   41   19 1    
    36   42   19 1    
    37   43   19 1    
    38   21   20 ar   
    39   22   20 ar   
    40   24   23 1    
    41   25   23 1    
    42   37   23 1    
    43   44   24 1    
    44   45   24 1    
    45   46   24 1    
    46   47   25 1    
    47   48   25 1    
    48   49   25 1    
@<TRIPOS>SUBSTRUCTURE
     1 MDZ1333     1 GROUP   
@<TRIPOS>SET

