#    Name: 3G32_1_CAVITY_N1_6.mol2
#    Modification time : Mon Mar 10 18:12:35 2014

@<TRIPOS>MOLECULE
3G32_1_CAVITY_N1_6.mol2
  103     0     6     0     0
SMALL
NO_CHARGES


@<TRIPOS>ATOM
      1 CA         -1.5049   50.2127   13.8490 C.3       5 GLY6        0.0000 
      2 CA         -0.7947   50.2977   12.5305 C.3       5 GLY6        0.0000 
      3 CA         -0.0845   50.3828   11.2121 C.3       5 GLY6        0.0000 
      4 O           0.6257   50.4678    9.8936 O.2       2 ALA2        0.0000 
      5 CA         -2.1757   51.5255   13.5724 C.3       5 GLY6        0.0000 
      6 OG         -1.4655   51.6106   12.2539 O.2       1 SER1        0.0000 
      7 OG         -0.7552   51.6956   10.9354 O.2       1 SER1        0.0000 
      8 CA         -0.0450   51.7807    9.6170 C.3       5 GLY6        0.0000 
      9 OG         -2.8464   52.8384   13.2958 O.2       1 SER1        0.0000 
     10 OG         -2.1362   52.9235   11.9773 O.2       1 SER1        0.0000 
     11 OG         -1.4260   53.0085   10.6588 O.2       1 SER1        0.0000 
     12 CA         -0.7158   53.0935    9.3404 C.3       5 GLY6        0.0000 
     13 CA         -0.0055   53.1786    8.0219 C.3       5 GLY6        0.0000 
     14 OG         -4.2273   54.0662   14.3376 O.2       1 SER1        0.0000 
     15 OG         -3.5171   54.1513   13.0192 O.2       1 SER1        0.0000 
     16 OG         -2.8069   54.2363   11.7007 O.2       1 SER1        0.0000 
     17 CA         -0.6763   54.4914    7.7453 C.3       5 GLY6        0.0000 
     18 OG         -4.8981   55.3791   14.0610 O.2       1 SER1        0.0000 
     19 N          -4.1878   55.4641   12.7425 N.2       2 ALA2        0.0000 
     20 CA          1.0933   52.5012   10.2766 C.3       5 GLY6        0.0000 
     21 CA          1.8035   52.5862    8.9581 C.3       5 GLY6        0.0000 
     22 OG         -0.9979   53.6440   12.6369 O.2       1 SER1        0.0000 
     23 OG         -0.2877   53.7290   11.3185 O.2       1 SER1        0.0000 
     24 N           0.4225   53.8141   10.0000 N.2       2 ALA2        0.0000 
     25 CA          1.1328   53.8991    8.6815 C.3       5 GLY6        0.0000 
     26 CA         -2.3788   54.8718   13.6788 C.3       5 GLY6        0.0000 
     27 O         -10.1220   53.8099   11.1459 O.2       2 ALA2        0.0000 
     28 DU         -9.4118   53.8949    9.8274 H         6 CUB7        0.0000 
     29 DU        -10.0825   55.2078    9.5508 H         6 CUB7        0.0000 
     30 O         -11.4634   56.4356   10.5926 O.2       2 ALA2        0.0000 
     31 NZ        -10.7532   56.5206    9.2742 N.2       3 LYS4        0.0000 
     32 NZ        -12.1342   57.7485   10.3160 N.2       3 LYS4        0.0000 
     33 CZ         -6.2613   50.6768   11.3169 C.ar      4 PHE5        0.0000 
     34 CA         -7.6422   51.9047   12.3587 C.3       5 GLY6        0.0000 
     35 DU         -6.9320   51.9897   11.0403 H         6 CUB7        0.0000 
     36 O          -9.0232   53.1325   13.4006 O.2       2 ALA2        0.0000 
     37 O          -8.3130   53.2175   12.0821 O.2       2 ALA2        0.0000 
     38 DU         -7.6027   53.3026   10.7636 H         6 CUB7        0.0000 
     39 OG         -6.8925   53.3876    9.4452 O.2       1 SER1        0.0000 
     40 O          -8.9837   54.5304   11.8055 O.2       2 ALA2        0.0000 
     41 DU         -8.2735   54.6154   10.4870 H         6 CUB7        0.0000 
     42 OG         -7.5633   54.7005    9.1686 O.2       1 SER1        0.0000 
     43 OG         -6.8530   54.7855    7.8501 O.2       1 SER1        0.0000 
     44 O          -9.6544   55.8432   11.5289 O.2       2 ALA2        0.0000 
     45 DU         -8.9442   55.9283   10.2104 H         6 CUB7        0.0000 
     46 CA         -8.2340   56.0133    8.8919 C.3       5 GLY6        0.0000 
     47 N          -7.5238   56.0984    7.5735 N.2       2 ALA2        0.0000 
     48 O         -10.3251   57.1561   11.2523 O.2       2 ALA2        0.0000 
     49 NZ         -9.6149   57.2412    9.9338 N.2       3 LYS4        0.0000 
     50 NZ         -8.9047   57.3262    8.6153 N.2       3 LYS4        0.0000 
     51 CA        -10.9959   58.4690   10.9756 C.3       5 GLY6        0.0000 
     52 NZ        -10.2856   58.5540    9.6572 N.2       3 LYS4        0.0000 
     53 OG         -3.0713   48.8567   11.2113 O.2       1 SER1        0.0000 
     54 DU         -2.3611   48.9417    9.8928 H         6 CUB7        0.0000 
     55 CZ         -4.4523   50.0845   12.2531 C.ar      4 PHE5        0.0000 
     56 DU         -3.7421   50.1695   10.9346 H         6 CUB7        0.0000 
     57 DU         -3.0318   50.2546    9.6162 H         6 CUB7        0.0000 
     58 O          -2.3216   50.3396    8.2977 O.2       2 ALA2        0.0000 
     59 O          -1.6114   50.4247    6.9792 O.2       2 ALA2        0.0000 
     60 CZ         -5.8332   51.3123   13.2950 C.ar      4 PHE5        0.0000 
     61 DU         -5.1230   51.3974   11.9765 H         6 CUB7        0.0000 
     62 OG         -4.4128   51.4824   10.6580 O.2       1 SER1        0.0000 
     63 OG         -2.9924   51.6525    8.0211 O.2       1 SER1        0.0000 
     64 OG         -2.2821   51.7375    6.7026 O.2       1 SER1        0.0000 
     65 CA         -7.2141   52.5401   14.3368 C.3       5 GLY6        0.0000 
     66 CZ         -6.5039   52.6252   13.0184 C.ar      4 PHE5        0.0000 
     67 OG         -5.7937   52.7102   11.6999 O.2       1 SER1        0.0000 
     68 O          -7.1747   53.9380   12.7417 O.2       2 ALA2        0.0000 
     69 OG         -6.4644   54.0231   11.4233 O.2       1 SER1        0.0000 
     70 O          -8.5556   55.1659   13.7836 O.2       2 ALA2        0.0000 
     71 O          -7.8454   55.2509   12.4651 O.2       2 ALA2        0.0000 
     72 N          -7.1352   55.3360   11.1467 N.2       2 ALA2        0.0000 
     73 O          -8.5161   56.5638   12.1885 O.2       2 ALA2        0.0000 
     74 N          -7.8059   56.6488   10.8700 N.2       2 ALA2        0.0000 
     75 CA         -8.4766   57.9617   10.5934 C.3       5 GLY6        0.0000 
     76 CA         -1.9725   48.1793   13.4660 C.3       5 GLY6        0.0000 
     77 CA         -1.2623   48.2643   12.1475 C.3       5 GLY6        0.0000 
     78 CA         -0.5521   48.3494   10.8290 C.3       5 GLY6        0.0000 
     79 CZ         -2.6432   49.4922   13.1894 C.ar      4 PHE5        0.0000 
     80 CA         -1.9330   49.5772   11.8709 C.3       5 GLY6        0.0000 
     81 DU         -1.2228   49.6622   10.5524 H         6 CUB7        0.0000 
     82 O          -0.5126   49.7473    9.2340 O.2       2 ALA2        0.0000 
     83 CZ         -4.0242   50.7200   14.2312 C.ar      4 PHE5        0.0000 
     84 CA         -3.3140   50.8050   12.9128 C.3       5 GLY6        0.0000 
     85 DU         -2.6038   50.8901   11.5943 H         6 CUB7        0.0000 
     86 DU         -1.8935   50.9751   10.2758 H         6 CUB7        0.0000 
     87 O          -1.1833   51.0601    8.9573 O.2       2 ALA2        0.0000 
     88 CA         -0.4731   51.1452    7.6389 C.3       5 GLY6        0.0000 
     89 CZ         -4.6949   52.0328   13.9546 C.ar      4 PHE5        0.0000 
     90 DU         -3.9847   52.1179   12.6361 H         6 CUB7        0.0000 
     91 OG         -3.2745   52.2029   11.3177 O.2       1 SER1        0.0000 
     92 OG         -2.5643   52.2880    9.9992 O.2       1 SER1        0.0000 
     93 OG         -1.8541   52.3730    8.6807 O.2       1 SER1        0.0000 
     94 CA         -1.1438   52.4581    7.3623 C.3       5 GLY6        0.0000 
     95 CA         -0.4336   52.5431    6.0438 C.3       5 GLY6        0.0000 
     96 N          -6.0759   53.2607   14.9965 N.2       2 ALA2        0.0000 
     97 OG         -5.3656   53.3457   13.6780 O.2       1 SER1        0.0000 
     98 OG         -4.6554   53.4307   12.3595 O.2       1 SER1        0.0000 
     99 OG         -1.8146   53.7709    7.0856 O.2       1 SER1        0.0000 
    100 O          -6.0364   54.6586   13.4014 O.2       2 ALA2        0.0000 
    101 OG         -5.3261   54.7436   12.0829 O.2       1 SER1        0.0000 
    102 O          -7.4173   55.8864   14.4432 O.2       2 ALA2        0.0000 
    103 N          -6.7071   55.9714   13.1248 N.2       2 ALA2        0.0000 
@<TRIPOS>BOND
@<TRIPOS>SUBSTRUCTURE
     1 SER1        6 GROUP   
     2 ALA2        4 GROUP   
     3 LYS4       31 GROUP   
     4 PHE5       33 GROUP   
     5 GLY6        1 GROUP   
     6 CUB7       28 GROUP   
@<TRIPOS>SET

