#    Name: 3g32_3G3_1_ligand
#    Modification time : Tue Mar 25 07:01:49 2014

@<TRIPOS>MOLECULE
3g32_3G3_1_ligand
   27    29     1     0     0
SMALL
NO_CHARGES


@<TRIPOS>ATOM
      1 O18        -7.7350   53.9950   13.2500 O.2       1 3G31        0.0000 
      2 C12        -7.3260   53.0940   12.4250 C.2       1 3G31        0.0000 
      3 C11        -7.9970   52.8120   11.2360 C.ar      1 3G31        0.0000 
      4 C13        -9.1490   53.3180   10.6420 C.ar      1 3G31        0.0000 
      5 C14        -9.5370   52.7800    9.4090 C.ar      1 3G31        0.0000 
      6 C15        -8.7920   51.7610    8.7970 C.ar      1 3G31        0.0000 
      7 C16        -7.6360   51.2570    9.4020 C.ar      1 3G31        0.0000 
      8 C10        -7.2690   51.8090   10.6250 C.ar      1 3G31        0.0000 
      9 N8         -6.2170   52.3620   12.6480 N.am      1 3G31        0.0000 
     10 C9         -6.1580   51.5730   11.5730 C.2       1 3G31        0.0000 
     11 O17        -5.2330   50.7050   11.3780 O.2       1 3G31        0.0000 
     12 C7         -5.2910   52.4130   13.7780 C.3       1 3G31        0.0000 
     13 C6         -4.5370   53.7330   13.7410 C.3       1 3G31        0.0000 
     14 C5         -3.2710   53.5700   12.9400 C.2       1 3G31        0.0000 
     15 N4         -2.0790   53.2470   13.4660 N.2       1 3G31        0.0000 
     16 N3         -1.1370   53.1710   12.4390 N.2       1 3G31        0.0000 
     17 N2         -1.7930   53.4770   11.2490 N.2       1 3G31        0.0000 
     18 N1         -3.1300   53.7070   11.6000 N.pl3     1 3G31        0.0000 
     19 H          -9.6903   54.0493   11.0825 H         1 3G31        0.0000 
     20 H         -10.3849   53.1382    8.9417 H         1 3G31        0.0000 
     21 H          -9.1016   51.3804    7.8908 H         1 3G31        0.0000 
     22 H          -7.0957   50.5268    8.9685 H         1 3G31        0.0000 
     23 H          -4.5683   51.5994   13.7259 H         1 3G31        0.0000 
     24 H          -5.8274   52.3466   14.7240 H         1 3G31        0.0000 
     25 H          -4.2934   54.0344   14.7563 H         1 3G31        0.0000 
     26 H          -5.1663   54.4918   13.2836 H         1 3G31        0.0000 
     27 H          -3.8196   53.9262   10.9682 H         1 3G31        0.0000 
@<TRIPOS>BOND
     1    2    1 2    
     2    3    2 1    
     3    9    2 am   
     4    4    3 ar   
     5    8    3 ar   
     6    5    4 ar   
     7   19    4 1    
     8    6    5 ar   
     9   20    5 1    
    10    7    6 ar   
    11   21    6 1    
    12    8    7 ar   
    13   22    7 1    
    14   10    8 1    
    15   10    9 am   
    16   12    9 1    
    17   11   10 2    
    18   13   12 1    
    19   23   12 1    
    20   24   12 1    
    21   14   13 1    
    22   25   13 1    
    23   26   13 1    
    24   15   14 2    
    25   18   14 1    
    26   16   15 1    
    27   17   16 2    
    28   18   17 1    
    29   27   18 1    
@<TRIPOS>SUBSTRUCTURE
     1 3G31        1 GROUP   
@<TRIPOS>SET

