#    Name: 1v9o_ADP_2_INTS_M
#    Modification time : Tue Mar 25 07:36:36 2014

@<TRIPOS>MOLECULE
1v9o_ADP_2_INTS_M
   52     0     9     0     0
SMALL
NO_CHARGES


@<TRIPOS>ATOM
      1 N          11.5740   34.7715   -0.5270 N.am      2 SEC2        0.0000 
      2 N          12.1300   35.8770   -0.9820 N.am      8 SEL2        0.0000 
      3 N          11.0180   33.6660   -0.0720 N.am      5 SEP2        0.0000 
      4 CA         14.2180   34.9480   -0.5875 C.3       3 GLC5        0.0000 
      5 CA         13.9490   33.9280   -2.3020 C.3       9 GLL5        0.0000 
      6 CA         14.4870   35.9680    1.1270 C.3       6 GLP5        0.0000 
      7 CA         13.4475   30.8875   -3.5825 C.3       3 GLC5        0.0000 
      8 CA         14.1120   32.7850   -3.3060 C.3       9 GLL5        0.0000 
      9 CA         12.7830   28.9900   -3.8590 C.3       6 GLP5        0.0000 
     10 CA         16.7390   34.0815   -5.4055 C.3       3 GLC5        0.0000 
     11 CA         15.0790   33.1870   -4.4200 C.3       9 GLL5        0.0000 
     12 CA         18.3990   34.9760   -6.3910 C.3       6 GLP5        0.0000 
     13 CA         15.4375   35.2600   -4.7035 C.3       3 GLC5        0.0000 
     14 CA         15.7960   37.3330   -4.9870 C.3       6 GLP5        0.0000 
     15 CA         14.5120   30.6225   -7.0895 C.3       3 GLC5        0.0000 
     16 CA         14.6410   32.2080   -5.5080 C.3       9 GLL5        0.0000 
     17 CA         14.3830   29.0370   -8.6710 C.3       6 GLP5        0.0000 
     18 O          14.4720   30.3635   -6.4220 O.2       1 ALC1        0.0000 
     19 O          15.1110   30.8870   -5.2260 O.2       7 ALL1        0.0000 
     20 O          13.8330   29.8400   -7.6180 O.2       4 ALP1        0.0000 
     21 CA          9.6750   34.3290  -10.6415 C.3       3 GLC5        0.0000 
     22 CA         10.9390   34.5900   -9.0010 C.3       9 GLL5        0.0000 
     23 CA          8.4110   34.0680  -12.2820 C.3       6 GLP5        0.0000 
     24 O           9.7805   36.0035  -10.6840 O.2       1 ALC1        0.0000 
     25 O          10.3430   35.7190   -9.3750 O.2       7 ALL1        0.0000 
     26 O           9.2180   36.2880  -11.9930 O.2       4 ALP1        0.0000 
     27 N          10.3910   33.5615  -11.1000 N.am      2 SEC2        0.0000 
     28 N          11.0040   33.5480   -9.8440 N.am      8 SEL2        0.0000 
     29 N           9.7780   33.5750  -12.3560 N.am      5 SEP2        0.0000 
     30 CA         13.2595   32.8890   -9.9055 C.3       3 GLC5        0.0000 
     31 CA         11.5830   32.4120   -9.4940 C.3       9 GLL5        0.0000 
     32 CA         14.9360   33.3660  -10.3170 C.3       6 GLP5        0.0000 
     33 CA         12.9830   30.7245   -9.0825 C.3       3 GLC5        0.0000 
     34 CA         11.6610   32.5505  -11.4865 C.3       3 GLC5        0.0000 
     35 CA         11.7390   32.6890  -13.4790 C.3       6 GLP5        0.0000 
     36 N          12.9760   31.0490   -7.9560 N.am      2 SEC2        0.0000 
     37 N          12.1190   32.2580   -8.2940 N.am      8 SEL2        0.0000 
     38 N          13.8330   29.8400   -7.6180 N.am      5 SEP2        0.0000 
     39 CA         12.3217   33.1297   -2.0210 C.3       3 GLC5        0.0000 
     40 CA         10.6130   32.9030   -1.2380 C.3       6 GLP5        0.0000 
     41 CA         16.5525   31.9518   -5.6140 C.3       3 GLC5        0.0000 
     42 CA         18.2450   31.2060   -6.2640 C.3       6 GLP5        0.0000 
     43 CA         15.6219   32.4399   -2.1385 C.3       3 GLC5        0.0000 
     44 CA         16.6890   31.6080   -0.6650 C.3       6 GLP5        0.0000 
     45 CA         13.3315   30.6127   -4.6453 C.3       3 GLC5        0.0000 
     46 CA          9.6760   35.0445   -7.0180 C.3       3 GLC5        0.0000 
     47 CA         11.4950   34.4660   -7.7330 C.3       9 GLL5        0.0000 
     48 CA          8.1350   35.5610   -5.6690 C.3       6 GLP5        0.0000 
     49 CA         12.8315   35.3493   -8.4360 C.3       3 GLC5        0.0000 
     50 CA         12.0890   33.2550   -7.3990 C.3       9 GLL5        0.0000 
     51 CA         14.0100   36.8070   -8.9890 C.3       6 GLP5        0.0000 
     52 CA         13.2945   33.6288   -9.1000 C.3       3 GLC5        0.0000 
@<TRIPOS>BOND
@<TRIPOS>SUBSTRUCTURE
     1 ALC1       18 GROUP        1 X    ALC  0     ROOT ALC X 1
     2 SEC2        1 GROUP        1 X    SEC  0     **** SEC X 2
     3 GLC5        4 GROUP        1 X    GLC  0     **** GLC X 6
     4 ALP1       20 GROUP        1 Y    ALP  0     ROOT ALP Y 8
     5 SEP2        3 GROUP        1 Y    SEP  0     **** SEP Y 9
     6 GLP5        6 GROUP        1 Y    GLP  0     **** GLP Y 13
     7 ALL1       19 GROUP        1 Z    ALL  0     ROOT ALL Z 15
     8 SEL2        2 GROUP        1 Z    SEL  0     **** SEL Z 16
     9 GLL5        5 GROUP        1 Z    GLL  0     **** GLL Z 20
@<TRIPOS>SET

