#    Name: 1v9o_ADP_2_ligand
#    Modification time : Tue Mar 25 07:36:36 2014

@<TRIPOS>MOLECULE
1v9o_ADP_2_ligand
   39    41     1     0     0
SMALL
NO_CHARGES


@<TRIPOS>ATOM
      1 PB         14.4760   38.6300   -2.0900 P.3       1 ADP300      0.0000 
      2 O1B        15.8800   39.0390   -1.8600 O.co2     1 ADP300      0.0000 
      3 O2B        13.4180   39.5060   -1.2490 O.co2     1 ADP300      0.0000 
      4 O3B        14.0220   38.7730   -3.6280 O.co2     1 ADP300      0.0000 
      5 PA         12.8630   36.3490   -2.1780 P.3       1 ADP300      0.0000 
      6 O1A        12.1300   35.8770   -0.9820 O.co2     1 ADP300      0.0000 
      7 O2A        12.1520   37.2270   -3.1340 O.co2     1 ADP300      0.0000 
      8 O3A        14.1950   37.1000   -1.6730 O.3       1 ADP300      0.0000 
      9 O5'        13.4540   35.0850   -2.9810 O.3       1 ADP300      0.0000 
     10 C5'        13.9490   33.9280   -2.3020 C.3       1 ADP300      0.0000 
     11 C4'        14.1120   32.7850   -3.3060 C.3       1 ADP300      0.0000 
     12 O4'        12.8590   32.5300   -3.9650 O.3       1 ADP300      0.0000 
     13 C3'        15.0790   33.1870   -4.4200 C.3       1 ADP300      0.0000 
     14 O3'        16.4150   32.8800   -4.0120 O.3       1 ADP300      0.0000 
     15 C2'        14.6410   32.2080   -5.5080 C.3       1 ADP300      0.0000 
     16 O2'        15.1110   30.8870   -5.2260 O.3       1 ADP300      0.0000 
     17 C1'        13.1190   32.2630   -5.3550 C.3       1 ADP300      0.0000 
     18 N9         12.5200   33.3640   -6.1450 N.pl3     1 ADP300      0.0000 
     19 C8         12.2270   34.5900   -5.7150 C.2       1 ADP300      0.0000 
     20 N7         11.5990   35.2650   -6.6760 N.2       1 ADP300      0.0000 
     21 C5         11.4950   34.4660   -7.7330 C.ar      1 ADP300      0.0000 
     22 C6         10.9390   34.5900   -9.0010 C.ar      1 ADP300      0.0000 
     23 N6         10.3430   35.7190   -9.3750 N.pl3     1 ADP300      0.0000 
     24 N1         11.0040   33.5480   -9.8440 N.ar      1 ADP300      0.0000 
     25 C2         11.5830   32.4120   -9.4940 C.ar      1 ADP300      0.0000 
     26 N3         12.1190   32.2580   -8.2940 N.ar      1 ADP300      0.0000 
     27 C4         12.0890   33.2550   -7.3990 C.ar      1 ADP300      0.0000 
     28 H          13.2626   33.5906   -1.5203 H         1 ADP300      0.0000 
     29 H          14.9249   34.1119   -1.8439 H         1 ADP300      0.0000 
     30 H          14.4838   31.9241   -2.8220 H         1 ADP300      0.0000 
     31 H          14.8955   34.1445   -4.7134 H         1 ADP300      0.0000 
     32 H          14.9007   32.5883   -6.4376 H         1 ADP300      0.0000 
     33 H          12.7099   31.3249   -5.6407 H         1 ADP300      0.0000 
     34 H          12.4413   34.9424   -4.8252 H         1 ADP300      0.0000 
     35 H          10.3445   36.4605   -8.7041 H         1 ADP300      0.0000 
     36 H           9.9472   35.7243  -10.2933 H         1 ADP300      0.0000 
     37 H          11.6186   31.6113  -10.1856 H         1 ADP300      0.0000 
     38 H          16.6079   31.9838   -4.4114 H         1 ADP300      0.0000 
     39 H          14.7721   30.3253   -5.9807 H         1 ADP300      0.0000 
@<TRIPOS>BOND
     1    2    1 ar   
     2    3    1 ar   
     3    4    1 ar   
     4    8    1 1    
     5    6    5 ar   
     6    7    5 ar   
     7    8    5 1    
     8    9    5 1    
     9   10    9 1    
    10   11   10 1    
    11   28   10 1    
    12   29   10 1    
    13   12   11 1    
    14   13   11 1    
    15   30   11 1    
    16   17   12 1    
    17   14   13 1    
    18   15   13 1    
    19   31   13 1    
    20   38   14 1    
    21   16   15 1    
    22   17   15 1    
    23   32   15 1    
    24   39   16 1    
    25   18   17 1    
    26   33   17 1    
    27   19   18 1    
    28   27   18 1    
    29   20   19 2    
    30   34   19 1    
    31   21   20 1    
    32   22   21 ar   
    33   27   21 ar   
    34   23   22 1    
    35   24   22 ar   
    36   35   23 1    
    37   36   23 1    
    38   25   24 ar   
    39   26   25 ar   
    40   37   25 1    
    41   27   26 ar   
@<TRIPOS>SUBSTRUCTURE
     1 ADP300      1 GROUP   
@<TRIPOS>SET

