#    Name: 1nai_NAD_1_INTS_M
#    Modification time : Mon Mar 24 17:53:39 2014

@<TRIPOS>MOLECULE
1nai_NAD_1_INTS_M
  114     0    12     0     0
SMALL
NO_CHARGES


@<TRIPOS>ATOM
      1 N          32.0260    7.0335   37.2245 N.am      2 SEC2        0.0000 
      2 N          31.7710    5.7100   36.9100 N.am     10 SEL2        0.0000 
      3 N          32.2810    8.3570   37.5390 N.am      6 SEP2        0.0000 
      4 N          31.5405    4.0770   40.3640 N.am      2 SEC2        0.0000 
      5 N          31.3890    4.9170   39.2240 N.am     10 SEL2        0.0000 
      6 N          31.6920    3.2370   41.5040 N.am      6 SEP2        0.0000 
      7 CA         34.4905    1.0235   36.1495 C.3       4 GLC5        0.0000 
      8 CA         33.9570    2.8080   36.2520 C.3      12 GLL5        0.0000 
      9 CA         35.0240   -0.7610   36.0470 C.3       8 GLP5        0.0000 
     10 CA         34.2845    3.3510   38.5635 C.3       4 GLC5        0.0000 
     11 CA         34.8170    4.0180   36.6910 C.3      12 GLL5        0.0000 
     12 CA         33.7520    2.6840   40.4360 C.3       8 GLP5        0.0000 
     13 CA         35.9545    4.5585   38.4450 C.3       4 GLC5        0.0000 
     14 CA         37.0920    5.0990   40.1990 C.3       8 GLP5        0.0000 
     15 N          36.7385    3.9640   38.4455 N.am      2 SEC2        0.0000 
     16 N          35.7200    3.5710   37.7240 N.am     10 SEL2        0.0000 
     17 N          37.7570    4.3570   39.1670 N.am      6 SEP2        0.0000 
     18 O          36.3500    2.4010   37.3960 O.2       1 ALC1        0.0000 
     19 O          35.7200    3.5710   37.7240 O.2       9 ALL1        0.0000 
     20 O          36.9800    1.2310   37.0680 O.2       5 ALP1        0.0000 
     21 N          36.9415    6.2270   35.8825 N.am      2 SEC2        0.0000 
     22 N          36.9300    4.8590   35.6390 N.am     10 SEL2        0.0000 
     23 N          36.9530    7.5950   36.1260 N.am      6 SEP2        0.0000 
     24 O          37.7515    3.7835   36.0640 O.2       1 ALC1        0.0000 
     25 O          36.9300    4.8590   35.6390 O.2       9 ALL1        0.0000 
     26 O          38.5730    2.7080   36.4890 O.2       5 ALP1        0.0000 
     27 CA         35.3280    1.1495   35.3330 C.3       4 GLC5        0.0000 
     28 CA         35.6320    3.0600   34.6190 C.3      12 GLL5        0.0000 
     29 CA         34.4155    1.4195   33.6850 C.3       4 GLC5        0.0000 
     30 CA         33.1990   -0.2210   32.7510 C.3       8 GLP5        0.0000 
     31 CA         38.7885    2.7095   31.0410 C.3       4 GLC5        0.0000 
     32 CA         36.9540    2.1660   29.9630 C.3      12 GLL5        0.0000 
     33 CA         40.6230    3.2530   32.1190 C.3       8 GLP5        0.0000 
     34 CA         36.5450    0.6365   28.9535 C.3       4 GLC5        0.0000 
     35 CA         36.1360   -0.8930   27.9440 C.3       8 GLP5        0.0000 
     36 O          37.9840    2.0670   27.9160 O.2       1 ALC1        0.0000 
     37 O          36.8060    2.5400   28.6840 O.2       9 ALL1        0.0000 
     38 O          39.1620    1.5940   27.1480 O.2       5 ALP1        0.0000 
     39 O          36.2120    3.6480   28.0165 O.2       1 ALC1        0.0000 
     40 O          35.6180    4.7560   27.3490 O.2       5 ALP1        0.0000 
     41 N          38.4870    0.0970   29.4205 N.am      2 SEC2        0.0000 
     42 N          37.8870    1.2370   30.3040 N.am     10 SEL2        0.0000 
     43 N          39.0870   -1.0430   28.5370 N.am      6 SEP2        0.0000 
     44 CA         38.8400   -0.8905   32.0275 C.3       4 GLC5        0.0000 
     45 CA         38.0670    0.9310   31.6540 C.3      12 GLL5        0.0000 
     46 CA         39.6130   -2.7120   32.4010 C.3       8 GLP5        0.0000 
     47 CA         38.9120    0.4710   33.5740 C.3       4 GLC5        0.0000 
     48 CA         39.7570    0.0110   35.4940 C.3       8 GLP5        0.0000 
     49 CA         39.3450    2.0920   31.8865 C.3       4 GLC5        0.0000 
     50 CA         39.5505    0.5960   30.3950 C.3       4 GLC5        0.0000 
     51 CA         41.0340    0.2610   29.1360 C.3       8 GLP5        0.0000 
     52 CA         37.3565   -0.8115   30.6805 C.3       4 GLC5        0.0000 
     53 CA         36.6460   -2.5540   29.7070 C.3       8 GLP5        0.0000 
     54 CA         36.2940    0.1100   31.8730 C.3       4 GLC5        0.0000 
     55 CA         34.5210   -0.7110   32.0920 C.3       8 GLP5        0.0000 
     56 N          38.8105    1.7265   33.4670 N.am      2 SEC2        0.0000 
     57 N          37.4440    1.4190   32.7130 N.am     10 SEL2        0.0000 
     58 N          40.1770    2.0340   34.2210 N.am      6 SEP2        0.0000 
     59 CA         38.5695    2.7990   32.2330 C.3       4 GLC5        0.0000 
     60 CA         36.5160    2.3450   32.3470 C.3      12 GLL5        0.0000 
     61 NZ         27.7290    5.2820   38.3835 N.4       3 LYC4        0.0000 
     62 NZ         27.6240    3.7540   38.7460 N.4      11 LYL4        0.0000 
     63 NZ         27.8340    6.8100   38.0210 N.4       7 LYP4        0.0000 
     64 N          27.7290    5.2820   38.3835 N.am      2 SEC2        0.0000 
     65 N          27.6240    3.7540   38.7460 N.am     10 SEL2        0.0000 
     66 N          27.8340    6.8100   38.0210 N.am      6 SEP2        0.0000 
     67 N          29.4640    1.7385   40.2935 N.am      2 SEC2        0.0000 
     68 N          29.6010    2.2720   38.8670 N.am     10 SEL2        0.0000 
     69 N          29.3270    1.2050   41.7200 N.am      6 SEP2        0.0000 
     70 CA         29.9270   -0.2065   36.1365 C.3       4 GLC5        0.0000 
     71 CA         28.9600    1.5120   36.0520 C.3      12 GLL5        0.0000 
     72 CA         30.8940   -1.9250   36.2210 C.3       8 GLP5        0.0000 
     73 CA         29.3615   -0.7290   34.9035 C.3       4 GLC5        0.0000 
     74 CA         28.0850    0.7910   35.0640 C.3      12 GLL5        0.0000 
     75 CA         30.6380   -2.2490   34.7430 C.3       8 GLP5        0.0000 
     76 CA         26.6710    3.9900   33.5240 C.3       4 GLC5        0.0000 
     77 CA         26.6770    2.1230   33.7480 C.3      12 GLL5        0.0000 
     78 CA         26.6650    5.8570   33.3000 C.3       8 GLP5        0.0000 
     79 N          26.0485    1.0165   31.5200 N.am      2 SEC2        0.0000 
     80 N          26.1030    2.2440   32.4610 N.am     10 SEL2        0.0000 
     81 N          25.9940   -0.2110   30.5790 N.am      6 SEP2        0.0000 
     82 O          24.9205    2.8345   32.2450 O.2       1 ALC1        0.0000 
     83 O          26.1030    2.2440   32.4610 O.2       9 ALL1        0.0000 
     84 O          23.7380    3.4250   32.0290 O.2       5 ALP1        0.0000 
     85 CA         26.1470   -0.8060   34.3165 C.3       4 GLC5        0.0000 
     86 CA         25.8240    1.1620   34.5660 C.3      12 GLL5        0.0000 
     87 CA         26.4700   -2.7740   34.0670 C.3       8 GLP5        0.0000 
     88 CA         24.6665   -0.0070   35.6930 C.3       4 GLC5        0.0000 
     89 CA         23.5090   -1.1760   36.8200 C.3       8 GLP5        0.0000 
     90 CA         23.4455    3.3000   38.5445 C.3       4 GLC5        0.0000 
     91 CA         24.1220    3.5960   36.6260 C.3      12 GLL5        0.0000 
     92 CA         22.7690    3.0040   40.4630 C.3       8 GLP5        0.0000 
     93 CA         22.0405    3.4730   38.1770 C.3       4 GLC5        0.0000 
     94 CA         22.7300    3.5110   36.2590 C.3      12 GLL5        0.0000 
     95 CA         21.3510    3.4350   40.0950 C.3       8 GLP5        0.0000 
     96 CA         33.4775    2.7795   38.3367 C.3       4 GLC5        0.0000 
     97 CA         32.4490    2.9420   36.2230 C.3      12 GLL5        0.0000 
     98 CA         34.8247    6.0827   36.2542 C.3       4 GLC5        0.0000 
     99 CA         34.4540    7.9530   36.4790 C.3       8 GLP5        0.0000 
    100 CA         36.0185    5.3257   33.9423 C.3       4 GLC5        0.0000 
    101 CA         35.5740    4.4070   35.3680 C.3      12 GLL5        0.0000 
    102 CA         36.4340    6.9180   32.8910 C.3       8 GLP5        0.0000 
    103 CA         35.5384    0.8461   31.7585 C.3       4 GLC5        0.0000 
    104 CA         36.2370    2.7570   31.0430 C.3      12 GLL5        0.0000 
    105 CA         27.2550   -0.8638   34.2040 C.3       4 GLC5        0.0000 
    106 CA         27.9950    1.3020   33.6180 C.3      12 GLL5        0.0000 
    107 CA         25.1848    1.9975   37.9195 C.3       4 GLC5        0.0000 
    108 CA         25.0590    2.7420   36.1340 C.3      12 GLL5        0.0000 
    109 CA         25.7790    0.8260   39.4590 C.3       8 GLP5        0.0000 
    110 CA         25.8652    4.8110   36.0390 C.3       4 GLC5        0.0000 
    111 CA         27.1400    6.4530   35.6980 C.3       8 GLP5        0.0000 
    112 CA         21.7750    1.6215   33.3607 C.3       4 GLC5        0.0000 
    113 CA         22.4520    2.5260   35.2840 C.3      12 GLL5        0.0000 
    114 CA         20.6480    1.1470   31.7260 C.3       8 GLP5        0.0000 
@<TRIPOS>BOND
@<TRIPOS>SUBSTRUCTURE
     1 ALC1       18 GROUP        1 X    ALC  0     ROOT ALC X 1
     2 SEC2        1 GROUP        1 X    SEC  0     **** SEC X 2
     3 LYC4       61 GROUP        1 X    LYC  0     **** LYC X 4
     4 GLC5        7 GROUP        1 X    GLC  0     **** GLC X 6
     5 ALP1       20 GROUP        1 Y    ALP  0     ROOT ALP Y 8
     6 SEP2        3 GROUP        1 Y    SEP  0     **** SEP Y 9
     7 LYP4       63 GROUP        1 Y    LYP  0     **** LYP Y 11
     8 GLP5        9 GROUP        1 Y    GLP  0     **** GLP Y 13
     9 ALL1       19 GROUP        1 Z    ALL  0     ROOT ALL Z 15
    10 SEL2        2 GROUP        1 Z    SEL  0     **** SEL Z 16
    11 LYL4       62 GROUP        1 Z    LYL  0     **** LYL Z 18
    12 GLL5        8 GROUP        1 Z    GLL  0     **** GLL Z 20
@<TRIPOS>SET

