#    Name: 1nai_NAD_1_ligand
#    Modification time : Mon Mar 24 17:53:40 2014

@<TRIPOS>MOLECULE
1nai_NAD_1_ligand
   70    74     1     0     0
SMALL
NO_CHARGES


@<TRIPOS>ATOM
      1 PA         31.2120    4.6340   37.7770 P.3       1 NAD349      0.0000 
      2 O1A        31.7710    5.7100   36.9100 O.co2     1 NAD349      0.0000 
      3 O2A        31.3890    4.9170   39.2240 O.co2     1 NAD349      0.0000 
      4 O5B        31.9640    3.2640   37.5150 O.3       1 NAD349      0.0000 
      5 C5B        32.4490    2.9420   36.2230 C.3       1 NAD349      0.0000 
      6 C4B        33.9570    2.8080   36.2520 C.3       1 NAD349      0.0000 
      7 O4B        34.4140    2.4350   34.9000 O.3       1 NAD349      0.0000 
      8 C3B        34.8170    4.0180   36.6910 C.3       1 NAD349      0.0000 
      9 O3B        35.7200    3.5710   37.7240 O.3       1 NAD349      0.0000 
     10 C2B        35.5740    4.4070   35.3680 C.3       1 NAD349      0.0000 
     11 O2B        36.9300    4.8590   35.6390 O.3       1 NAD349      0.0000 
     12 C1B        35.6320    3.0600   34.6190 C.3       1 NAD349      0.0000 
     13 N9A        35.7010    3.1260   33.1700 N.pl3     1 NAD349      0.0000 
     14 C8A        34.9770    3.9270   32.3410 C.2       1 NAD349      0.0000 
     15 N7A        35.2830    3.7720   31.0370 N.2       1 NAD349      0.0000 
     16 C5A        36.2370    2.7570   31.0430 C.ar      1 NAD349      0.0000 
     17 C6A        36.9540    2.1660   29.9630 C.ar      1 NAD349      0.0000 
     18 N6A        36.8060    2.5400   28.6840 N.pl3     1 NAD349      0.0000 
     19 N1A        37.8870    1.2370   30.3040 N.ar      1 NAD349      0.0000 
     20 C2A        38.0670    0.9310   31.6540 C.ar      1 NAD349      0.0000 
     21 N3A        37.4440    1.4190   32.7130 N.ar      1 NAD349      0.0000 
     22 C4A        36.5160    2.3450   32.3470 C.ar      1 NAD349      0.0000 
     23 O3         29.7210    4.3780   37.4950 O.3       1 NAD349      0.0000 
     24 PN         28.7690    3.1590   38.0040 P.3       1 NAD349      0.0000 
     25 O1N        27.6240    3.7540   38.7460 O.co2     1 NAD349      0.0000 
     26 O2N        29.6010    2.2720   38.8670 O.co2     1 NAD349      0.0000 
     27 O5D        28.1440    2.3960   36.7780 O.3       1 NAD349      0.0000 
     28 C5D        28.9600    1.5120   36.0520 C.3       1 NAD349      0.0000 
     29 C4D        28.0850    0.7910   35.0640 C.3       1 NAD349      0.0000 
     30 O4D        26.7260    0.6970   35.5550 O.3       1 NAD349      0.0000 
     31 C3D        27.9950    1.3020   33.6180 C.3       1 NAD349      0.0000 
     32 O3D        27.7750    0.1210   32.8290 O.3       1 NAD349      0.0000 
     33 C2D        26.6770    2.1230   33.7480 C.3       1 NAD349      0.0000 
     34 O2D        26.1030    2.2440   32.4610 O.3       1 NAD349      0.0000 
     35 C1D        25.8240    1.1620   34.5660 C.3       1 NAD349      0.0000 
     36 N1N        24.6690    1.8590   35.1670 N.pl3     1 NAD349      0.0000 
     37 C2N        25.0590    2.7420   36.1340 C.ar      1 NAD349      0.0000 
     38 C3N        24.1220    3.5960   36.6260 C.ar      1 NAD349      0.0000 
     39 C7N        24.5010    4.7040   37.6180 C.2       1 NAD349      0.0000 
     40 O7N        23.6260    5.4210   38.0160 O.2       1 NAD349      0.0000 
     41 N7N        25.7690    4.8510   38.0270 N.am      1 NAD349      0.0000 
     42 C4N        22.7300    3.5110   36.2590 C.ar      1 NAD349      0.0000 
     43 C5N        22.4520    2.5260   35.2840 C.ar      1 NAD349      0.0000 
     44 C6N        23.3520    1.6660   34.7070 C.ar      1 NAD349      0.0000 
     45 H          32.1931    3.7176   35.4858 H         1 NAD349      0.0000 
     46 H          32.0327    1.9921   35.8556 H         1 NAD349      0.0000 
     47 H          34.2233    1.9619   36.9153 H         1 NAD349      0.0000 
     48 H          34.1852    4.7949   36.9599 H         1 NAD349      0.0000 
     49 H          34.9874    5.0693   34.8299 H         1 NAD349      0.0000 
     50 H          36.4417    2.4840   35.0235 H         1 NAD349      0.0000 
     51 H          34.2870    4.5659   32.6733 H         1 NAD349      0.0000 
     52 H          36.1277    3.2539   28.5100 H         1 NAD349      0.0000 
     53 H          37.3871    2.0716   28.0185 H         1 NAD349      0.0000 
     54 H          38.8464    0.1703   31.8360 H         1 NAD349      0.0000 
     55 H          29.4347    0.7662   36.6946 H         1 NAD349      0.0000 
     56 H          29.7427    2.0346   35.4962 H         1 NAD349      0.0000 
     57 H          28.4598   -0.2722   34.9877 H         1 NAD349      0.0000 
     58 H          28.7669    1.8815   33.4016 H         1 NAD349      0.0000 
     59 H          26.8562    2.9755   34.2633 H         1 NAD349      0.0000 
     60 H          25.5147    0.3737   33.9221 H         1 NAD349      0.0000 
     61 H          26.0226    2.7577   36.4739 H         1 NAD349      0.0000 
     62 H          26.4302    4.2009   37.6527 H         1 NAD349      0.0000 
     63 H          25.9402    5.5976   38.6698 H         1 NAD349      0.0000 
     64 H          22.0531    4.0871   36.6557 H         1 NAD349      0.0000 
     65 H          21.4248    2.4558   34.9727 H         1 NAD349      0.0000 
     66 H          23.1216    0.9828   34.0430 H         1 NAD349      0.0000 
     67 H          36.1045    2.7149   37.3788 H         1 NAD349      0.0000 
     68 H          37.4221    4.0394   35.9323 H         1 NAD349      0.0000 
     69 H          26.8770    0.2537   32.4095 H         1 NAD349      0.0000 
     70 H          25.2042    2.6538   32.6161 H         1 NAD349      0.0000 
@<TRIPOS>BOND
     1    2    1 ar   
     2    3    1 ar   
     3    4    1 1    
     4   23    1 1    
     5    5    4 1    
     6    6    5 1    
     7   45    5 1    
     8   46    5 1    
     9    7    6 1    
    10    8    6 1    
    11   47    6 1    
    12   12    7 1    
    13    9    8 1    
    14   10    8 1    
    15   48    8 1    
    16   67    9 1    
    17   11   10 1    
    18   12   10 1    
    19   49   10 1    
    20   68   11 1    
    21   13   12 1    
    22   50   12 1    
    23   14   13 1    
    24   22   13 1    
    25   15   14 2    
    26   51   14 1    
    27   16   15 1    
    28   17   16 ar   
    29   22   16 ar   
    30   18   17 1    
    31   19   17 ar   
    32   52   18 1    
    33   53   18 1    
    34   20   19 ar   
    35   21   20 ar   
    36   54   20 1    
    37   22   21 ar   
    38   24   23 1    
    39   25   24 ar   
    40   26   24 ar   
    41   27   24 1    
    42   28   27 1    
    43   29   28 1    
    44   55   28 1    
    45   56   28 1    
    46   30   29 1    
    47   31   29 1    
    48   57   29 1    
    49   35   30 1    
    50   32   31 1    
    51   33   31 1    
    52   58   31 1    
    53   69   32 1    
    54   34   33 1    
    55   35   33 1    
    56   59   33 1    
    57   70   34 1    
    58   36   35 1    
    59   60   35 1    
    60   37   36 ar   
    61   44   36 ar   
    62   38   37 ar   
    63   61   37 1    
    64   39   38 1    
    65   42   38 ar   
    66   40   39 2    
    67   41   39 am   
    68   62   41 1    
    69   63   41 1    
    70   43   42 ar   
    71   64   42 1    
    72   44   43 ar   
    73   65   43 1    
    74   66   44 1    
@<TRIPOS>SUBSTRUCTURE
     1 NAD349      1 GROUP   
@<TRIPOS>SET

