#    Name: 1jkh_EFZ_1_INTS_M
#    Modification time : Tue Mar 25 08:58:59 2014

@<TRIPOS>MOLECULE
1jkh_EFZ_1_INTS_M
   73     0     9     0     0
SMALL
NO_CHARGES


@<TRIPOS>ATOM
      1 CA         -4.6505  -34.6850   24.7605 C.3       3 GLC5        0.0000 
      2 CA         -4.6650  -32.8110   24.1290 C.3       9 GLL5        0.0000 
      3 CA         -4.6360  -36.5590   25.3920 C.3       6 GLP5        0.0000 
      4 CA         -5.0990  -33.0130   26.0080 C.3       3 GLC5        0.0000 
      5 CA         -5.5330  -33.2150   27.8870 C.3       6 GLP5        0.0000 
      6 CA         -4.5925  -31.1100   24.6780 C.3       3 GLC5        0.0000 
      7 CA         -4.5200  -29.4090   25.2270 C.3       6 GLP5        0.0000 
      8 CA         -6.5105  -31.7500   23.4930 C.3       3 GLC5        0.0000 
      9 CA         -8.3560  -30.6890   22.8570 C.3       6 GLP5        0.0000 
     10 CA          2.2775  -36.9870   25.1230 C.3       3 GLC5        0.0000 
     11 CA          0.7540  -37.4060   23.9780 C.3       9 GLL5        0.0000 
     12 CA          3.8010  -36.5680   26.2680 C.3       6 GLP5        0.0000 
     13 CA         -2.9300  -36.7320   24.9840 C.3       3 GLC5        0.0000 
     14 CA         -1.2240  -36.9050   24.5760 C.3       9 GLL5        0.0000 
     15 CA         -1.1995  -38.8255   25.4385 C.3       3 GLC5        0.0000 
     16 CA         -1.1750  -40.7460   26.3010 C.3       6 GLP5        0.0000 
     17 CA         -1.9070  -37.6650   21.0020 C.3       3 GLC5        0.0000 
     18 CA         -0.8430  -37.4960   22.5660 C.3       9 GLL5        0.0000 
     19 CA         -2.9710  -37.8340   19.4380 C.3       6 GLP5        0.0000 
     20 CA          0.5375  -38.9510   21.9535 C.3       3 GLC5        0.0000 
     21 CA          1.9180  -40.4060   21.3410 C.3       6 GLP5        0.0000 
     22 N           1.1370  -34.7030   18.8330 N.am      2 SEC2        0.0000 
     23 N           1.5560  -35.7230   20.0590 N.am      8 SEL2        0.0000 
     24 N           0.7180  -33.6830   17.6070 N.am      5 SEP2        0.0000 
     25 O          -1.1285  -35.0145   19.1835 O.2       1 ALC1        0.0000 
     26 O          -0.6250  -35.1620   20.4090 O.2       7 ALL1        0.0000 
     27 O          -1.6320  -34.8670   17.9580 O.2       4 ALP1        0.0000 
     28 CA         -3.4840  -35.2915   24.4740 C.3       3 GLC5        0.0000 
     29 CA         -2.3320  -34.0240   23.5560 C.3       9 GLL5        0.0000 
     30 CA          0.7510  -34.2680   27.7230 C.3       3 GLC5        0.0000 
     31 CA          1.5190  -33.2180   26.6670 C.3       9 GLL5        0.0000 
     32 CA         -0.0170  -35.3180   28.7790 C.3       6 GLP5        0.0000 
     33 CA          4.0345  -31.3845   25.5825 C.3       3 GLC5        0.0000 
     34 CA          2.2540  -32.3400   26.2030 C.3       9 GLL5        0.0000 
     35 CA          5.8150  -30.4290   24.9620 C.3       6 GLP5        0.0000 
     36 CA          2.1925  -32.2240   24.0025 C.3       3 GLC5        0.0000 
     37 CA          2.1310  -32.1080   21.8020 C.3       6 GLP5        0.0000 
     38 CA          2.7585  -31.3025   27.7945 C.3       3 GLC5        0.0000 
     39 CA          3.2630  -30.2650   29.3860 C.3       6 GLP5        0.0000 
     40 CA         -0.0310  -33.2770   27.6445 C.3       3 GLC5        0.0000 
     41 CA          1.0630  -32.0720   26.5920 C.3       9 GLL5        0.0000 
     42 CA         -1.1250  -34.4820   28.6970 C.3       6 GLP5        0.0000 
     43 CA         -0.5205  -30.7580   26.1395 C.3       3 GLC5        0.0000 
     44 CA         -2.1040  -29.4440   25.6870 C.3       6 GLP5        0.0000 
     45 CA          1.5383  -38.2070   22.7788 C.3       3 GLC5        0.0000 
     46 CA         -0.3570  -36.7960   23.5830 C.3       9 GLL5        0.0000 
     47 CA          2.8780  -39.3130   21.7770 C.3       6 GLP5        0.0000 
     48 CA         -0.1894  -36.7410   26.0031 C.3       3 GLC5        0.0000 
     49 CA          0.1340  -36.4790   27.8280 C.3       6 GLP5        0.0000 
     50 CA         -1.7944  -38.6481   23.1194 C.3       3 GLC5        0.0000 
     51 CA         -2.7720  -40.1230   22.9160 C.3       6 GLP5        0.0000 
     52 CA         -0.8502  -32.9617   20.5160 C.3       3 GLC5        0.0000 
     53 CA         -1.6090  -34.5740   21.2770 C.3       9 GLL5        0.0000 
     54 CA          0.5080  -31.6300   20.0070 C.3       6 GLP5        0.0000 
     55 CA         -2.5897  -36.0637   20.2315 C.3       3 GLC5        0.0000 
     56 CA         -1.8337  -32.2625   22.3548 C.3       3 GLC5        0.0000 
     57 CA         -3.7390  -33.4660   21.6780 C.3       9 GLL5        0.0000 
     58 CA         -0.0490  -31.0500   22.3470 C.3       6 GLP5        0.0000 
     59 CA         -5.6396  -33.5729   21.8065 C.3       3 GLC5        0.0000 
     60 CA         -3.4980  -33.4840   23.0470 C.3       9 GLL5        0.0000 
     61 CA         -7.3690  -33.8390   20.9800 C.3       6 GLP5        0.0000 
     62 CA         -4.4939  -35.1314   22.6146 C.3       3 GLC5        0.0000 
     63 CA         -5.6020  -36.6510   23.0930 C.3       6 GLP5        0.0000 
     64 CA         -0.9590  -32.6822   22.7313 C.3       3 GLC5        0.0000 
     65 CA          2.2367  -35.4483   25.5617 C.3       3 GLC5        0.0000 
     66 CA          0.4550  -34.6070   24.3910 C.3       9 GLL5        0.0000 
     67 CA          0.4032  -35.4038   26.3417 C.3       3 GLC5        0.0000 
     68 CA          0.8900  -34.0500   25.3200 C.3       9 GLL5        0.0000 
     69 CA          1.3329  -33.3031   23.1795 C.3       3 GLC5        0.0000 
     70 CA          3.3658  -33.9525   26.2865 C.3       3 GLC5        0.0000 
     71 CA          4.8450  -35.1260   26.1380 C.3       6 GLP5        0.0000 
     72 CA          1.6120  -31.4715   28.2588 C.3       3 GLC5        0.0000 
     73 CA          1.9330  -30.2980   29.8880 C.3       6 GLP5        0.0000 
@<TRIPOS>BOND
@<TRIPOS>SUBSTRUCTURE
     1 ALC1       25 GROUP        1 X    ALC  0     ROOT ALC X 1
     2 SEC2       22 GROUP        1 X    SEC  0     **** SEC X 2
     3 GLC5        1 GROUP        1 X    GLC  0     **** GLC X 6
     4 ALP1       27 GROUP        1 Y    ALP  0     ROOT ALP Y 8
     5 SEP2       24 GROUP        1 Y    SEP  0     **** SEP Y 9
     6 GLP5        3 GROUP        1 Y    GLP  0     **** GLP Y 13
     7 ALL1       26 GROUP        1 Z    ALL  0     ROOT ALL Z 15
     8 SEL2       23 GROUP        1 Z    SEL  0     **** SEL Z 16
     9 GLL5        2 GROUP        1 Z    GLL  0     **** GLL Z 20
@<TRIPOS>SET

