#    Name: 1jkh_EFZ_1_ligand
#    Modification time : Tue Mar 25 08:58:59 2014

@<TRIPOS>MOLECULE
1jkh_EFZ_1_ligand
   30    32     1     0     0
SMALL
NO_CHARGES


@<TRIPOS>ATOM
      1 CL         -4.6650  -32.8110   24.1290 Cl        1 EFZ999      0.0000 
      2 F1          0.7540  -37.4060   23.9780 F         1 EFZ999      0.0000 
      3 F2         -1.2240  -36.9050   24.5760 F         1 EFZ999      0.0000 
      4 F3         -0.8430  -37.4960   22.5660 F         1 EFZ999      0.0000 
      5 O1          1.5560  -35.7230   20.0590 O.2       1 EFZ999      0.0000 
      6 O2          0.9480  -35.2860   22.1560 O.3       1 EFZ999      0.0000 
      7 N          -0.6250  -35.1620   20.4090 N.am      1 EFZ999      0.0000 
      8 C1         -1.6090  -34.5740   21.2770 C.ar      1 EFZ999      0.0000 
      9 C2         -2.8080  -34.0130   20.7730 C.ar      1 EFZ999      0.0000 
     10 C3         -3.7390  -33.4660   21.6780 C.ar      1 EFZ999      0.0000 
     11 C4         -3.4980  -33.4840   23.0470 C.ar      1 EFZ999      0.0000 
     12 C5         -2.3320  -34.0240   23.5560 C.ar      1 EFZ999      0.0000 
     13 C6         -1.4060  -34.6050   22.6750 C.ar      1 EFZ999      0.0000 
     14 C7         -0.0960  -35.2860   23.1970 C.3       1 EFZ999      0.0000 
     15 C8          0.4550  -34.6070   24.3910 C.1       1 EFZ999      0.0000 
     16 C9          0.8900  -34.0500   25.3200 C.1       1 EFZ999      0.0000 
     17 C10         1.5190  -33.2180   26.6670 C.3       1 EFZ999      0.0000 
     18 C11         2.2540  -32.3400   26.2030 C.3       1 EFZ999      0.0000 
     19 C12         1.0630  -32.0720   26.5920 C.3       1 EFZ999      0.0000 
     20 C13        -0.3570  -36.7960   23.5830 C.3       1 EFZ999      0.0000 
     21 C14         0.6810  -35.4120   20.8040 C.2       1 EFZ999      0.0000 
     22 H          -0.9281  -35.4046   19.4405 H         1 EFZ999      0.0000 
     23 H          -2.9903  -34.0068   19.7758 H         1 EFZ999      0.0000 
     24 H          -4.6083  -33.0486   21.3119 H         1 EFZ999      0.0000 
     25 H          -2.1372  -34.0056   24.5586 H         1 EFZ999      0.0000 
     26 H           1.6455  -33.7053   27.3912 H         1 EFZ999      0.0000 
     27 H           2.3578  -32.3464   25.2003 H         1 EFZ999      0.0000 
     28 H           2.9676  -31.9973   26.8270 H         1 EFZ999      0.0000 
     29 H           1.0288  -31.5613   27.4603 H         1 EFZ999      0.0000 
     30 H           0.4190  -31.9104   25.8336 H         1 EFZ999      0.0000 
@<TRIPOS>BOND
     1   11    1 1    
     2   20    2 1    
     3   20    3 1    
     4   20    4 1    
     5   21    5 2    
     6   14    6 1    
     7   21    6 1    
     8    8    7 1    
     9   21    7 am   
    10   22    7 1    
    11    9    8 ar   
    12   13    8 ar   
    13   10    9 ar   
    14   23    9 1    
    15   11   10 ar   
    16   24   10 1    
    17   12   11 ar   
    18   13   12 ar   
    19   25   12 1    
    20   14   13 1    
    21   15   14 1    
    22   20   14 1    
    23   16   15 3    
    24   17   16 1    
    25   18   17 1    
    26   19   17 1    
    27   26   17 1    
    28   19   18 1    
    29   27   18 1    
    30   28   18 1    
    31   29   19 1    
    32   30   19 1    
@<TRIPOS>SUBSTRUCTURE
     1 EFZ999      1 GROUP   
@<TRIPOS>SET

