#    Name: 1zkn_IBM_3_INTS_M
#    Modification time : Tue Mar 25 11:50:45 2014

@<TRIPOS>MOLECULE
1zkn_IBM_3_INTS_M
   22     0     6     0     0
SMALL
NO_CHARGES


@<TRIPOS>ATOM
      1 CA        -16.0910    6.0225   36.2955 C.3       2 GLC5        0.0000 
      2 CA        -18.0140    5.9250   35.7690 C.3       6 GLL5        0.0000 
      3 CA        -14.1680    6.1200   36.8220 C.3       4 GLP5        0.0000 
      4 N         -18.0695    7.2720   39.3325 N.am      1 SEC2        0.0000 
      5 N         -17.4820    6.7810   37.8030 N.am      5 SEL2        0.0000 
      6 N         -18.6570    7.7630   40.8620 N.am      3 SEP2        0.0000 
      7 CA        -18.6085   10.9190   37.1015 C.3       2 GLC5        0.0000 
      8 CA        -18.8280    9.1190   37.4800 C.3       6 GLL5        0.0000 
      9 CA        -18.3890   12.7190   36.7230 C.3       4 GLP5        0.0000 
     10 CA        -20.5880    8.1770   37.4190 C.3       2 GLC5        0.0000 
     11 CA        -22.3480    7.2350   37.3580 C.3       4 GLP5        0.0000 
     12 CA        -21.5290    6.7720   31.5180 C.3       2 GLC5        0.0000 
     13 CA        -20.1240    7.4310   32.9920 C.3       6 GLL5        0.0000 
     14 CA        -22.9340    6.1130   30.0440 C.3       4 GLP5        0.0000 
     15 CA        -21.1330    6.8380   34.0750 C.3       2 GLC5        0.0000 
     16 CA        -22.1420    6.2450   35.1580 C.3       4 GLP5        0.0000 
     17 CA        -20.0680    6.6915   29.7075 C.3       2 GLC5        0.0000 
     18 CA        -19.5150    7.9830   30.6990 C.3       6 GLL5        0.0000 
     19 CA        -20.6210    5.4000   28.7160 C.3       4 GLP5        0.0000 
     20 CA        -19.3440   11.1150   33.5370 C.3       2 GLC5        0.0000 
     21 CA        -20.1580    9.8340   32.1360 C.3       6 GLL5        0.0000 
     22 CA        -18.5300   12.3960   34.9380 C.3       4 GLP5        0.0000 
@<TRIPOS>BOND
@<TRIPOS>SUBSTRUCTURE
     1 SEC2        4 GROUP        1 X    SEC  0     ROOT SEC X 2
     2 GLC5        1 GROUP        1 X    GLC  0     **** GLC X 6
     3 SEP2        6 GROUP        1 Y    SEP  0     ROOT SEP Y 9
     4 GLP5        3 GROUP        1 Y    GLP  0     **** GLP Y 13
     5 SEL2        5 GROUP        1 Z    SEL  0     ROOT SEL Z 16
     6 GLL5        2 GROUP        1 Z    GLL  0     **** GLL Z 20
@<TRIPOS>SET

