#    Name: 1zkn_IBM_3_ligand
#    Modification time : Tue Mar 25 11:50:45 2014

@<TRIPOS>MOLECULE
1zkn_IBM_3_ligand
   30    31     1     0     0
SMALL
NO_CHARGES


@<TRIPOS>ATOM
      1 N9        -18.4710    5.0710   33.7940 N.pl3     1 IBM603      0.0000 
      2 C8        -17.6940    4.2170   34.5470 C.2       1 IBM603      0.0000 
      3 N7        -17.4050    4.6750   35.7380 N.2       1 IBM603      0.0000 
      4 C5        -18.0140    5.9250   35.7690 C.2       1 IBM603      0.0000 
      5 C4        -18.6760    6.1800   34.5800 C.2       1 IBM603      0.0000 
      6 N3        -19.3910    7.2870   34.2580 N.am      1 IBM603      0.0000 
      7 C2        -19.4200    8.2510   35.2450 C.2       1 IBM603      0.0000 
      8 N1        -18.7650    8.0760   36.4700 N.am      1 IBM603      0.0000 
      9 C6        -18.0630    6.9250   36.7300 C.2       1 IBM603      0.0000 
     10 O6        -17.4820    6.7810   37.8030 O.2       1 IBM603      0.0000 
     11 O2        -20.0450    9.2850   35.0570 O.2       1 IBM603      0.0000 
     12 C10       -18.8280    9.1190   37.4800 C.3       1 IBM603      0.0000 
     13 C11       -20.1240    7.4310   32.9920 C.3       1 IBM603      0.0000 
     14 C12       -19.4430    8.4890   32.1030 C.3       1 IBM603      0.0000 
     15 C13       -19.5150    7.9830   30.6990 C.3       1 IBM603      0.0000 
     16 C14       -20.1580    9.8340   32.1360 C.3       1 IBM603      0.0000 
     17 H         -18.7922    4.9238   32.9252 H         1 IBM603      0.0000 
     18 H         -17.3953    3.3311   34.1815 H         1 IBM603      0.0000 
     19 H         -21.1521    7.7497   33.1709 H         1 IBM603      0.0000 
     20 H         -20.1427    6.4883   32.4430 H         1 IBM603      0.0000 
     21 H         -18.4323    8.6004   32.3905 H         1 IBM603      0.0000 
     22 H         -18.3203    8.8688   38.3044 H         1 IBM603      0.0000 
     23 H         -18.4430    9.9804   37.1488 H         1 IBM603      0.0000 
     24 H         -19.7690    9.3074   37.7611 H         1 IBM603      0.0000 
     25 H         -19.0883    8.6165   30.0536 H         1 IBM603      0.0000 
     26 H         -19.0504    7.1034   30.5969 H         1 IBM603      0.0000 
     27 H         -20.4600    7.8518   30.3995 H         1 IBM603      0.0000 
     28 H         -20.1855   10.2174   33.0592 H         1 IBM603      0.0000 
     29 H         -19.7071   10.5087   31.5517 H         1 IBM603      0.0000 
     30 H         -21.1043    9.7594   31.8213 H         1 IBM603      0.0000 
@<TRIPOS>BOND
     1    2    1 1    
     2    5    1 1    
     3   17    1 1    
     4    3    2 2    
     5   18    2 1    
     6    4    3 1    
     7    5    4 2    
     8    9    4 1    
     9    6    5 1    
    10    7    6 am   
    11   13    6 1    
    12    8    7 am   
    13   11    7 2    
    14    9    8 am   
    15   12    8 1    
    16   10    9 2    
    17   22   12 1    
    18   23   12 1    
    19   24   12 1    
    20   14   13 1    
    21   19   13 1    
    22   20   13 1    
    23   15   14 1    
    24   16   14 1    
    25   21   14 1    
    26   25   15 1    
    27   26   15 1    
    28   27   15 1    
    29   28   16 1    
    30   29   16 1    
    31   30   16 1    
@<TRIPOS>SUBSTRUCTURE
     1 IBM603      1 GROUP   
@<TRIPOS>SET

