#    Name: 3bqn_BQN_1_INTS_M
#    Modification time : Mon Mar 24 19:57:41 2014

@<TRIPOS>MOLECULE
3bqn_BQN_1_INTS_M
  113     0     6     0     0
SMALL
NO_CHARGES


@<TRIPOS>ATOM
      1 CA        -15.0430   13.1870   -5.3605 C.3       2 GLC5        0.0000 
      2 CA        -16.4800   14.1720   -6.0020 C.3       6 GLL5        0.0000 
      3 CA        -13.6060   12.2020   -4.7190 C.3       4 GLP5        0.0000 
      4 CA        -17.4385   12.7750   -4.6290 C.3       2 GLC5        0.0000 
      5 CA        -18.3970   11.3780   -3.2560 C.3       4 GLP5        0.0000 
      6 CA        -15.9660   12.9455   -7.3425 C.3       2 GLC5        0.0000 
      7 CA        -15.4520   11.7190   -8.6830 C.3       4 GLP5        0.0000 
      8 CA        -15.2315   15.3440   -5.0015 C.3       2 GLC5        0.0000 
      9 CA        -13.9830   16.5160   -4.0010 C.3       4 GLP5        0.0000 
     10 CA        -18.5050   14.4805   -2.6760 C.3       2 GLC5        0.0000 
     11 CA        -17.8700   14.4780   -4.4710 C.3       6 GLL5        0.0000 
     12 CA        -19.1400   14.4830   -0.8810 C.3       4 GLP5        0.0000 
     13 CA        -14.5065   15.9460   -5.8845 C.3       2 GLC5        0.0000 
     14 CA        -15.0300   15.3760   -7.7680 C.3       6 GLL5        0.0000 
     15 CA        -15.8395   14.0700  -10.2265 C.3       2 GLC5        0.0000 
     16 CA        -16.9400   14.5360   -8.3230 C.3       6 GLL5        0.0000 
     17 CA        -14.7390   13.6040  -12.1300 C.3       4 GLP5        0.0000 
     18 CA        -15.4635   14.8565  -10.7765 C.3       2 GLC5        0.0000 
     19 CA        -16.1880   16.1090   -9.4230 C.3       6 GLL5        0.0000 
     20 CA        -14.4230   16.6580  -10.6130 C.3       2 GLC5        0.0000 
     21 CA        -12.6580   17.2070  -11.8030 C.3       4 GLP5        0.0000 
     22 CA        -19.3030   15.4905   -2.4815 C.3       2 GLC5        0.0000 
     23 CA        -19.4660   16.4980   -4.0820 C.3       6 GLL5        0.0000 
     24 CA        -20.9090   15.0430   -3.2230 C.3       2 GLC5        0.0000 
     25 CA        -22.3520   13.5880   -2.3640 C.3       4 GLP5        0.0000 
     26 CA        -22.7150   16.5265   -4.1140 C.3       2 GLC5        0.0000 
     27 CA        -21.4770   18.2930   -4.3330 C.3       6 GLL5        0.0000 
     28 CA        -23.9530   14.7600   -3.8950 C.3       4 GLP5        0.0000 
     29 CA        -23.5115   16.2975   -5.0275 C.3       2 GLC5        0.0000 
     30 CA        -23.0700   17.8350   -6.1600 C.3       6 GLL5        0.0000 
     31 CA        -21.1735   21.2605  -10.4765 C.3       2 GLC5        0.0000 
     32 CA        -21.6960   20.2970   -8.7080 C.3       6 GLL5        0.0000 
     33 CA        -20.6510   22.2240  -12.2450 C.3       4 GLP5        0.0000 
     34 CA        -22.4370   21.9515  -10.6405 C.3       2 GLC5        0.0000 
     35 CA        -22.8710   20.9690   -9.0510 C.3       6 GLL5        0.0000 
     36 CA        -22.0030   22.9340  -12.2300 C.3       4 GLP5        0.0000 
     37 N         -25.2925   20.4525   -9.1460 N.am      1 SEC2        0.0000 
     38 N         -24.0360   20.6300   -8.4770 N.am      5 SEL2        0.0000 
     39 N         -26.5490   20.2750   -9.8150 N.am      3 SEP2        0.0000 
     40 CA        -24.2870   19.1445   -9.5315 C.3       2 GLC5        0.0000 
     41 CA        -24.1150   19.6460   -7.5650 C.3       6 GLL5        0.0000 
     42 CA        -24.4590   18.6430  -11.4980 C.3       4 GLP5        0.0000 
     43 CA        -21.1855   20.8770   -0.1920 C.3       2 GLC5        0.0000 
     44 CA        -20.7930   19.5720   -1.9520 C.3       6 GLL5        0.0000 
     45 CA        -21.5780   22.1820    1.5680 C.3       4 GLP5        0.0000 
     46 CA        -17.7150   19.3030   -4.0020 C.3       2 GLC5        0.0000 
     47 CA        -18.5800   18.3390   -5.7660 C.3       6 GLL5        0.0000 
     48 CA        -16.8500   20.2670   -2.2380 C.3       4 GLP5        0.0000 
     49 CA        -16.1085   20.9125   -7.2370 C.3       2 GLC5        0.0000 
     50 CA        -15.9980   19.7810   -8.9150 C.3       6 GLL5        0.0000 
     51 CA        -16.2190   22.0440   -5.5590 C.3       4 GLP5        0.0000 
     52 N         -14.4165   18.9095  -11.7630 N.am      1 SEC2        0.0000 
     53 N         -14.4270   19.4050  -10.5810 N.am      5 SEL2        0.0000 
     54 N         -14.4060   18.4140  -12.9450 N.am      3 SEP2        0.0000 
     55 CA        -16.7850   22.4505   -7.9240 C.3       2 GLC5        0.0000 
     56 CA        -16.0540   22.5330   -9.9050 C.3       6 GLL5        0.0000 
     57 CA        -17.5160   22.3680   -5.9430 C.3       4 GLP5        0.0000 
     58 CA        -17.7890   22.8210  -10.8140 C.3       2 GLC5        0.0000 
     59 CA        -19.5240   23.1090  -11.7230 C.3       4 GLP5        0.0000 
     60 CA        -13.6555   24.7690   -8.7595 C.3       2 GLC5        0.0000 
     61 CA        -15.0780   23.6440   -9.5100 C.3       6 GLL5        0.0000 
     62 CA        -12.2330   25.8940   -8.0090 C.3       4 GLP5        0.0000 
     63 CA        -15.6485   22.8440   -7.5345 C.3       2 GLC5        0.0000 
     64 CA        -11.8520   21.7815  -12.0615 C.3       2 GLC5        0.0000 
     65 CA        -13.4870   22.9190  -11.1400 C.3       6 GLL5        0.0000 
     66 CA        -10.2170   20.6440  -12.9830 C.3       4 GLP5        0.0000 
     67 CA        -12.3770   22.1980   -9.5295 C.3       2 GLC5        0.0000 
     68 CA        -11.2670   21.4770   -7.9190 C.3       4 GLP5        0.0000 
     69 CA        -12.8600   24.4065   -9.5745 C.3       2 GLC5        0.0000 
     70 CA        -17.7302   12.4890   -6.6970 C.3       2 GLC5        0.0000 
     71 CA        -18.5800   13.8670   -6.3770 C.3       6 GLL5        0.0000 
     72 CA        -17.3190   10.7330   -7.3180 C.3       4 GLP5        0.0000 
     73 CA        -16.5757   15.0017   -3.6410 C.3       2 GLC5        0.0000 
     74 CA        -17.7030   14.6230   -5.7750 C.3       6 GLL5        0.0000 
     75 CA        -15.3650   15.4530   -2.1590 C.3       4 GLP5        0.0000 
     76 CA        -18.7764   12.9748   -4.6543 C.3       2 GLC5        0.0000 
     77 CA        -19.5470   11.5880   -4.0350 C.3       4 GLP5        0.0000 
     78 CA        -16.1520   17.0258   -5.4850 C.3       2 GLC5        0.0000 
     79 CA        -17.7770   16.0890   -6.1920 C.3       6 GLL5        0.0000 
     80 CA        -14.8960   17.7160   -4.2250 C.3       4 GLP5        0.0000 
     81 CA        -18.8650   14.1490   -6.9460 C.3       2 GLC5        0.0000 
     82 CA        -19.9150   13.1010   -8.1450 C.3       4 GLP5        0.0000 
     83 CA        -18.2535   14.0973   -8.2010 C.3       2 GLC5        0.0000 
     84 CA        -15.8703   13.3719   -8.4171 C.3       2 GLC5        0.0000 
     85 CA        -14.1148   16.2741   -8.1491 C.3       2 GLC5        0.0000 
     86 CA        -16.2440   15.6510   -8.1910 C.3       6 GLL5        0.0000 
     87 CA        -12.3170   16.7370   -7.5970 C.3       4 GLP5        0.0000 
     88 CA        -17.2020   15.9146  -10.4885 C.3       2 GLC5        0.0000 
     89 CA        -18.0140   16.2280  -12.1370 C.3       4 GLP5        0.0000 
     90 CA        -16.7272   17.6890   -4.9100 C.3       2 GLC5        0.0000 
     91 CA        -18.5370   16.9850   -5.4240 C.3       6 GLL5        0.0000 
     92 CA        -19.9132   16.8633   -1.4527 C.3       2 GLC5        0.0000 
     93 CA        -20.3990   17.8290   -3.5760 C.3       6 GLL5        0.0000 
     94 CA        -19.5970   15.5770    0.0770 C.3       4 GLP5        0.0000 
     95 CA        -20.5000   18.9273   -9.6125 C.3       2 GLC5        0.0000 
     96 CA        -21.7480   19.2700   -7.7660 C.3       6 GLL5        0.0000 
     97 CA        -19.2780   18.0710  -10.9880 C.3       4 GLP5        0.0000 
     98 CA        -23.3712   19.6380  -10.1887 C.3       2 GLC5        0.0000 
     99 CA        -22.7260   18.9290   -1.6273 C.3       2 GLC5        0.0000 
    100 CA        -22.2140   19.3960   -3.8910 C.3       6 GLL5        0.0000 
    101 CA        -23.4100   18.1420    0.0430 C.3       4 GLP5        0.0000 
    102 CA        -20.6653   21.8495   -1.8905 C.3       2 GLC5        0.0000 
    103 CA        -21.8700   20.0360   -2.7040 C.3       6 GLL5        0.0000 
    104 CA        -19.9990   23.8950   -1.4530 C.3       4 GLP5        0.0000 
    105 CA        -18.6382   19.6440   -2.2043 C.3       2 GLC5        0.0000 
    106 CA        -21.9183   18.5815   -1.0637 C.3       2 GLC5        0.0000 
    107 CA        -20.0600   18.4700   -2.3890 C.3       6 GLL5        0.0000 
    108 CA        -16.1937   18.0497   -5.7357 C.3       2 GLC5        0.0000 
    109 CA        -17.8710   18.8190   -6.8580 C.3       6 GLL5        0.0000 
    110 CA        -18.3848   18.2273   -9.1172 C.3       2 GLC5        0.0000 
    111 CA        -17.1120   17.9480   -7.6350 C.3       6 GLL5        0.0000 
    112 CA        -17.7237   18.6043   -9.9205 C.3       2 GLC5        0.0000 
    113 CA        -16.3410   18.4940   -8.7910 C.3       6 GLL5        0.0000 
@<TRIPOS>BOND
@<TRIPOS>SUBSTRUCTURE
     1 SEC2       37 GROUP        1 X    SEC  0     ROOT SEC X 2
     2 GLC5        1 GROUP        1 X    GLC  0     **** GLC X 6
     3 SEP2       39 GROUP        1 Y    SEP  0     ROOT SEP Y 9
     4 GLP5        3 GROUP        1 Y    GLP  0     **** GLP Y 13
     5 SEL2       38 GROUP        1 Z    SEL  0     ROOT SEL Z 16
     6 GLL5        2 GROUP        1 Z    GLL  0     **** GLL Z 20
@<TRIPOS>SET

