#    Name: 3bqn_BQN_1_ligand
#    Modification time : Mon Mar 24 19:57:41 2014

@<TRIPOS>MOLECULE
3bqn_BQN_1_ligand
   61    64     1     0     0
SMALL
NO_CHARGES


@<TRIPOS>ATOM
      1 F6        -16.4800   14.1720   -6.0020 F         1 BQN1        0.0000 
      2 C12       -17.7030   14.6230   -5.7750 C.3       1 BQN1        0.0000 
      3 F4        -18.5800   13.8670   -6.3770 F         1 BQN1        0.0000 
      4 F5        -17.8700   14.4780   -4.4710 F         1 BQN1        0.0000 
      5 C11       -17.7770   16.0890   -6.1920 C.ar      1 BQN1        0.0000 
      6 C9        -17.0390   16.5820   -7.2980 C.ar      1 BQN1        0.0000 
      7 C10       -16.2440   15.6510   -8.1910 C.3       1 BQN1        0.0000 
      8 F3        -15.0300   15.3760   -7.7680 F         1 BQN1        0.0000 
      9 F2        -16.9400   14.5360   -8.3230 F         1 BQN1        0.0000 
     10 F1        -16.1880   16.1090   -9.4230 F         1 BQN1        0.0000 
     11 C13       -18.5370   16.9850   -5.4240 C.ar      1 BQN1        0.0000 
     12 S         -19.4660   16.4980   -4.0820 S.3       1 BQN1        0.0000 
     13 C14       -20.3990   17.8290   -3.5760 C.ar      1 BQN1        0.0000 
     14 C19       -21.4770   18.2930   -4.3330 C.ar      1 BQN1        0.0000 
     15 O3        -21.8030   17.6580   -5.5100 O.3       1 BQN1        0.0000 
     16 C20       -23.0700   17.8350   -6.1600 C.3       1 BQN1        0.0000 
     17 C21       -22.9720   18.9430   -7.1870 C.ar      1 BQN1        0.0000 
     18 C25       -21.7480   19.2700   -7.7660 C.ar      1 BQN1        0.0000 
     19 C24       -21.6960   20.2970   -8.7080 C.ar      1 BQN1        0.0000 
     20 C23       -22.8710   20.9690   -9.0510 C.ar      1 BQN1        0.0000 
     21 N2        -24.0360   20.6300   -8.4770 N.ar      1 BQN1        0.0000 
     22 C22       -24.1150   19.6460   -7.5650 C.ar      1 BQN1        0.0000 
     23 C18       -22.2140   19.3960   -3.8910 C.ar      1 BQN1        0.0000 
     24 C17       -21.8700   20.0360   -2.7040 C.ar      1 BQN1        0.0000 
     25 C16       -20.7930   19.5720   -1.9520 C.ar      1 BQN1        0.0000 
     26 C15       -20.0600   18.4700   -2.3890 C.ar      1 BQN1        0.0000 
     27 C26       -18.5800   18.3390   -5.7660 C.ar      1 BQN1        0.0000 
     28 C27       -17.8710   18.8190   -6.8580 C.ar      1 BQN1        0.0000 
     29 C8        -17.1120   17.9480   -7.6350 C.ar      1 BQN1        0.0000 
     30 C7        -16.3410   18.4940   -8.7910 C.2       1 BQN1        0.0000 
     31 C6        -15.9980   19.7810   -8.9150 C.2       1 BQN1        0.0000 
     32 C1        -15.1820   20.2170  -10.0710 C.2       1 BQN1        0.0000 
     33 O1        -14.4270   19.4050  -10.5810 O.2       1 BQN1        0.0000 
     34 N1        -15.2430   21.4760  -10.5150 N.am      1 BQN1        0.0000 
     35 C5        -16.0540   22.5330   -9.9050 C.3       1 BQN1        0.0000 
     36 C4        -15.0780   23.6440   -9.5100 C.3       1 BQN1        0.0000 
     37 O2        -14.2470   24.0100  -10.6240 O.3       1 BQN1        0.0000 
     38 C3        -13.4870   22.9190  -11.1400 C.3       1 BQN1        0.0000 
     39 C2        -14.4670   21.8870  -11.6850 C.3       1 BQN1        0.0000 
     40 H         -23.8543   18.1029   -5.4410 H         1 BQN1        0.0000 
     41 H         -23.3873   16.9189   -6.6738 H         1 BQN1        0.0000 
     42 H         -20.9000   18.7651   -7.5048 H         1 BQN1        0.0000 
     43 H         -20.8085   20.5555   -9.1428 H         1 BQN1        0.0000 
     44 H         -22.8180   21.7295   -9.7546 H         1 BQN1        0.0000 
     45 H         -25.0209   19.3913   -7.1270 H         1 BQN1        0.0000 
     46 H         -23.0109   19.7326   -4.4459 H         1 BQN1        0.0000 
     47 H         -22.4088   20.8489   -2.3825 H         1 BQN1        0.0000 
     48 H         -20.5385   20.0423   -1.0745 H         1 BQN1        0.0000 
     49 H         -19.2650   18.1302   -1.8303 H         1 BQN1        0.0000 
     50 H         -19.1479   18.9875   -5.1962 H         1 BQN1        0.0000 
     51 H         -17.9049   19.8197   -7.0956 H         1 BQN1        0.0000 
     52 H         -16.0832   17.7779   -9.5135 H         1 BQN1        0.0000 
     53 H         -16.2663   20.5093   -8.2491 H         1 BQN1        0.0000 
     54 H         -16.5510   22.1808   -9.0173 H         1 BQN1        0.0000 
     55 H         -16.7650   22.9340  -10.6069 H         1 BQN1        0.0000 
     56 H         -14.4794   23.2787   -8.6643 H         1 BQN1        0.0000 
     57 H         -15.6697   24.4976   -9.1517 H         1 BQN1        0.0000 
     58 H         -12.8873   22.4391  -10.3685 H         1 BQN1        0.0000 
     59 H         -12.8342   23.2265  -11.9551 H         1 BQN1        0.0000 
     60 H         -15.0880   22.3541  -12.4206 H         1 BQN1        0.0000 
     61 H         -13.9144   21.0672  -12.0942 H         1 BQN1        0.0000 
@<TRIPOS>BOND
     1    2    1 1    
     2    3    2 1    
     3    4    2 1    
     4    5    2 1    
     5    6    5 ar   
     6   11    5 ar   
     7    7    6 1    
     8   29    6 ar   
     9    8    7 1    
    10    9    7 1    
    11   10    7 1    
    12   12   11 1    
    13   27   11 ar   
    14   13   12 1    
    15   14   13 ar   
    16   26   13 ar   
    17   15   14 1    
    18   23   14 ar   
    19   16   15 1    
    20   17   16 1    
    21   40   16 1    
    22   41   16 1    
    23   18   17 ar   
    24   22   17 ar   
    25   19   18 ar   
    26   42   18 1    
    27   20   19 ar   
    28   43   19 1    
    29   21   20 ar   
    30   44   20 1    
    31   22   21 ar   
    32   45   22 1    
    33   24   23 ar   
    34   46   23 1    
    35   25   24 ar   
    36   47   24 1    
    37   26   25 ar   
    38   48   25 1    
    39   49   26 1    
    40   28   27 ar   
    41   50   27 1    
    42   29   28 ar   
    43   51   28 1    
    44   30   29 1    
    45   31   30 2    
    46   52   30 1    
    47   32   31 1    
    48   53   31 1    
    49   33   32 2    
    50   34   32 am   
    51   35   34 1    
    52   39   34 1    
    53   36   35 1    
    54   54   35 1    
    55   55   35 1    
    56   37   36 1    
    57   56   36 1    
    58   57   36 1    
    59   38   37 1    
    60   39   38 1    
    61   58   38 1    
    62   59   38 1    
    63   60   39 1    
    64   61   39 1    
@<TRIPOS>SUBSTRUCTURE
     1 BQN1        1 GROUP   
@<TRIPOS>SET

