#    Name: 1n83_CLR_1_INTS_M
#    Modification time : Mon Mar 24 17:51:13 2014

@<TRIPOS>MOLECULE
1n83_CLR_1_INTS_M
   89     0     3     0     0
SMALL
NO_CHARGES


@<TRIPOS>ATOM
      1 CA         18.8280   25.3000   14.8530 C.3       1 GLC5        0.0000 
      2 CA         18.1620   26.6830   16.0970 C.3       3 GLL5        0.0000 
      3 CA         19.4940   23.9170   13.6090 C.3       2 GLP5        0.0000 
      4 CA         15.6570   27.0190   14.3820 C.3       1 GLC5        0.0000 
      5 CA         16.6490   26.9790   16.2050 C.3       3 GLL5        0.0000 
      6 CA         14.6650   27.0590   12.5590 C.3       2 GLP5        0.0000 
      7 CA         20.6485   22.6280   20.3925 C.3       1 GLC5        0.0000 
      8 CA         19.9330   23.9290   18.9580 C.3       3 GLL5        0.0000 
      9 CA         21.3640   21.3270   21.8270 C.3       2 GLP5        0.0000 
     10 CA         20.5880   22.0145   18.1730 C.3       1 GLC5        0.0000 
     11 CA         21.2430   20.1000   17.3880 C.3       2 GLP5        0.0000 
     12 CA         19.8555   24.8560   15.4350 C.3       1 GLC5        0.0000 
     13 CA         20.2170   25.7950   17.2610 C.3       3 GLL5        0.0000 
     14 CA         20.7630   28.5265   15.8735 C.3       1 GLC5        0.0000 
     15 CA         21.1900   26.8660   16.7210 C.3       3 GLL5        0.0000 
     16 CA         20.3360   30.1870   15.0260 C.3       2 GLP5        0.0000 
     17 CA         21.2170   28.8145   17.6415 C.3       1 GLC5        0.0000 
     18 CA         21.2440   30.7630   18.5620 C.3       2 GLP5        0.0000 
     19 CA         23.3360   26.4525   14.7115 C.3       1 GLC5        0.0000 
     20 CA         22.6770   26.4180   16.6340 C.3       3 GLL5        0.0000 
     21 CA         23.9950   26.4870   12.7890 C.3       2 GLP5        0.0000 
     22 CA         22.3635   28.2050   15.6565 C.3       1 GLC5        0.0000 
     23 CA         22.0500   29.9920   14.6790 C.3       2 GLP5        0.0000 
     24 CA         22.1190   22.5910   20.6045 C.3       1 GLC5        0.0000 
     25 CA         22.8740   23.8550   19.3820 C.3       3 GLL5        0.0000 
     26 CA         23.0620   24.5920   21.1145 C.3       1 GLC5        0.0000 
     27 CA         23.2500   25.3290   22.8470 C.3       2 GLP5        0.0000 
     28 CA         25.7215   22.7580   19.8305 C.3       1 GLC5        0.0000 
     29 CA         24.3780   24.0460   19.1290 C.3       3 GLL5        0.0000 
     30 CA         27.0650   21.4700   20.5320 C.3       2 GLP5        0.0000 
     31 CA         24.2320   24.1600   21.1615 C.3       1 GLC5        0.0000 
     32 CA         24.0860   24.2740   23.1940 C.3       2 GLP5        0.0000 
     33 CA         25.6010   25.4030   20.3840 C.3       1 GLC5        0.0000 
     34 CA         26.8240   26.7600   21.6390 C.3       2 GLP5        0.0000 
     35 CA         23.1760   28.8520   19.5615 C.3       1 GLC5        0.0000 
     36 CA         23.0690   26.9140   19.1010 C.3       3 GLL5        0.0000 
     37 CA         23.2830   30.7900   20.0220 C.3       2 GLP5        0.0000 
     38 CA         23.1595   26.1215   20.9740 C.3       1 GLC5        0.0000 
     39 CA         24.6070   27.4315   20.3720 C.3       1 GLC5        0.0000 
     40 CA         26.1450   27.9490   21.6430 C.3       2 GLP5        0.0000 
     41 CA         17.3990   29.1620   18.5235 C.3       1 GLC5        0.0000 
     42 CA         18.7480   27.5930   18.4080 C.3       3 GLL5        0.0000 
     43 CA         16.0500   30.7310   18.6390 C.3       2 GLP5        0.0000 
     44 CA         19.9960   29.1780   18.4850 C.3       1 GLC5        0.0000 
     45 CA         24.9535   26.6660   14.8165 C.3       1 GLC5        0.0000 
     46 CA         25.9120   26.8450   16.8440 C.3       3 GLL5        0.0000 
     47 CA         28.0195   27.2435   17.2010 C.3       1 GLC5        0.0000 
     48 CA         30.1270   27.6420   17.5580 C.3       2 GLP5        0.0000 
     49 CA         25.8550   28.2775   15.6295 C.3       1 GLC5        0.0000 
     50 CA         25.7980   29.7100   14.4150 C.3       2 GLP5        0.0000 
     51 CA         27.3205   23.9725   19.8290 C.3       1 GLC5        0.0000 
     52 CA         27.0790   25.0440   18.1720 C.3       3 GLL5        0.0000 
     53 CA         27.5620   22.9010   21.4860 C.3       2 GLP5        0.0000 
     54 CA         29.1115   24.7055   18.8715 C.3       1 GLC5        0.0000 
     55 CA         31.1440   24.3670   19.5710 C.3       2 GLP5        0.0000 
     56 CA         28.6030   26.3430   17.8650 C.3       1 GLC5        0.0000 
     57 CA         25.9770   22.5645   16.5760 C.3       1 GLC5        0.0000 
     58 CA         27.2530   23.9450   17.1080 C.3       3 GLL5        0.0000 
     59 CA         24.7010   21.1840   16.0440 C.3       2 GLP5        0.0000 
     60 CA         29.9360   23.9035   18.3515 C.3       1 GLC5        0.0000 
     61 CA         28.7280   23.4400   17.1320 C.3       3 GLL5        0.0000 
     62 CA         29.4275   25.5410   17.3450 C.3       1 GLC5        0.0000 
     63 CA         31.5495   20.7200   15.8420 C.3       1 GLC5        0.0000 
     64 CA         30.4380   22.0740   15.9350 C.3       3 GLL5        0.0000 
     65 CA         32.6610   19.3660   15.7490 C.3       2 GLP5        0.0000 
     66 CA         30.7910   23.2205   17.7530 C.3       1 GLC5        0.0000 
     67 CA         29.9720   19.7815   16.5050 C.3       1 GLC5        0.0000 
     68 CA         28.3000   20.9910   16.7550 C.3       3 GLL5        0.0000 
     69 CA         31.6440   18.5720   16.2550 C.3       2 GLP5        0.0000 
     70 CA         27.6825   21.2305   18.6435 C.3       1 GLC5        0.0000 
     71 CA         17.6803   28.3140   15.1940 C.3       1 GLC5        0.0000 
     72 CA         17.9550   29.7970   14.2370 C.3       2 GLP5        0.0000 
     73 CA         16.6315   23.7253   16.9525 C.3       1 GLC5        0.0000 
     74 CA         15.9100   25.7820   16.8160 C.3       3 GLL5        0.0000 
     75 CA         17.0780   21.8090   16.3810 C.3       2 GLP5        0.0000 
     76 CA         18.0742   23.0753   17.5506 C.3       1 GLC5        0.0000 
     77 CA         17.9500   25.2840   18.1690 C.3       3 GLL5        0.0000 
     78 CA         26.6308   26.1148   19.8780 C.3       1 GLC5        0.0000 
     79 CA         25.7960   25.8950   18.0620 C.3       3 GLL5        0.0000 
     80 CA         27.5278   22.5812   18.8260 C.3       1 GLC5        0.0000 
     81 CA         28.7903   24.4068   15.4580 C.3       1 GLC5        0.0000 
     82 CA         29.5900   25.1210   13.7960 C.3       2 GLP5        0.0000 
     83 CA         26.6555   21.4075   16.2480 C.3       1 GLC5        0.0000 
     84 CA         28.9200   22.2710   16.1490 C.3       3 GLL5        0.0000 
     85 CA         29.6345   23.6467   14.9190 C.3       1 GLC5        0.0000 
     86 CA         28.5143   20.9814   14.5627 C.3       1 GLC5        0.0000 
     87 CA         28.0390   20.3810   12.7270 C.3       2 GLP5        0.0000 
     88 CA         23.3960   22.8241   17.6534 C.3       1 GLC5        0.0000 
     89 CA         23.3010   21.2440   16.6280 C.3       2 GLP5        0.0000 
@<TRIPOS>BOND
@<TRIPOS>SUBSTRUCTURE
     1 GLC5        1 GROUP        1 X    GLC  0     ROOT GLC X 6
     2 GLP5        3 GROUP        1 Y    GLP  0     ROOT GLP Y 13
     3 GLL5        2 GROUP        1 Z    GLL  0     ROOT GLL Z 20
@<TRIPOS>SET

