#    Name: 1n83_CLR_1_ligand
#    Modification time : Mon Mar 24 17:51:13 2014

@<TRIPOS>MOLECULE
1n83_CLR_1_ligand
   74    77     1     0     0
SMALL
NO_CHARGES


@<TRIPOS>ATOM
      1 C1         18.1620   26.6830   16.0970 C.3       1 CLR1000     0.0000 
      2 C2         16.6490   26.9790   16.2050 C.3       1 CLR1000     0.0000 
      3 C3         15.9100   25.7820   16.8160 C.3       1 CLR1000     0.0000 
      4 C4         16.4600   25.5010   18.2320 C.3       1 CLR1000     0.0000 
      5 C5         17.9500   25.2840   18.1690 C.2       1 CLR1000     0.0000 
      6 C6         18.4660   24.2240   18.7960 C.2       1 CLR1000     0.0000 
      7 C7         19.9330   23.9290   18.9580 C.3       1 CLR1000     0.0000 
      8 C8         20.7970   25.1260   18.5420 C.3       1 CLR1000     0.0000 
      9 C9         20.2170   25.7950   17.2610 C.3       1 CLR1000     0.0000 
     10 C10        18.7870   26.3410   17.4780 C.3       1 CLR1000     0.0000 
     11 C11        21.1900   26.8660   16.7210 C.3       1 CLR1000     0.0000 
     12 C12        22.6770   26.4180   16.6340 C.3       1 CLR1000     0.0000 
     13 C13        23.1500   25.8270   17.9850 C.3       1 CLR1000     0.0000 
     14 C14        22.2140   24.6490   18.2490 C.3       1 CLR1000     0.0000 
     15 C15        22.8740   23.8550   19.3820 C.3       1 CLR1000     0.0000 
     16 C16        24.3780   24.0460   19.1290 C.3       1 CLR1000     0.0000 
     17 C17        24.4980   25.0670   17.9550 C.3       1 CLR1000     0.0000 
     18 C18        23.0690   26.9140   19.1010 C.3       1 CLR1000     0.0000 
     19 C19        18.7480   27.5930   18.4080 C.3       1 CLR1000     0.0000 
     20 C20        25.7960   25.8950   18.0620 C.3       1 CLR1000     0.0000 
     21 C21        25.9120   26.8450   16.8440 C.3       1 CLR1000     0.0000 
     22 C22        27.0790   25.0440   18.1720 C.3       1 CLR1000     0.0000 
     23 C23        27.2530   23.9450   17.1080 C.3       1 CLR1000     0.0000 
     24 C24        28.7280   23.4400   17.1320 C.3       1 CLR1000     0.0000 
     25 C25        28.9200   22.2710   16.1490 C.3       1 CLR1000     0.0000 
     26 C26        30.4380   22.0740   15.9350 C.3       1 CLR1000     0.0000 
     27 C27        28.3000   20.9910   16.7550 C.3       1 CLR1000     0.0000 
     28 O1         14.5130   26.0470   16.9670 O.3       1 CLR1000     0.0000 
     29 H          18.6685   27.5562   15.6890 H         1 CLR1000     0.0000 
     30 H          18.3139   25.8403   15.4245 H         1 CLR1000     0.0000 
     31 H          16.2569   27.1773   15.2132 H         1 CLR1000     0.0000 
     32 H          16.5044   27.8514   16.8332 H         1 CLR1000     0.0000 
     33 H          16.0893   24.9139   16.2206 H         1 CLR1000     0.0000 
     34 H          15.9700   24.6159   18.6246 H         1 CLR1000     0.0000 
     35 H          16.2330   26.3514   18.8668 H         1 CLR1000     0.0000 
     36 H          17.8424   23.4883   19.2404 H         1 CLR1000     0.0000 
     37 H          20.2083   23.0676   18.3429 H         1 CLR1000     0.0000 
     38 H          20.1495   23.6867   20.0022 H         1 CLR1000     0.0000 
     39 H          20.8169   25.8443   19.3255 H         1 CLR1000     0.0000 
     40 H          20.1544   24.9992   16.4922 H         1 CLR1000     0.0000 
     41 H          21.1320   27.7577   17.3660 H         1 CLR1000     0.0000 
     42 H          20.8593   27.1733   15.7156 H         1 CLR1000     0.0000 
     43 H          23.2889   27.2764   16.3867 H         1 CLR1000     0.0000 
     44 H          22.7726   25.6644   15.8623 H         1 CLR1000     0.0000 
     45 H          22.2198   24.0298   17.3587 H         1 CLR1000     0.0000 
     46 H          22.6256   22.8304   19.2944 H         1 CLR1000     0.0000 
     47 H          22.6135   24.2782   20.3160 H         1 CLR1000     0.0000 
     48 H          24.8163   23.1219   18.8307 H         1 CLR1000     0.0000 
     49 H          24.8426   24.4575   19.9950 H         1 CLR1000     0.0000 
     50 H          24.5160   24.4635   17.0446 H         1 CLR1000     0.0000 
     51 H          25.7280   26.5263   18.9505 H         1 CLR1000     0.0000 
     52 H          27.1038   24.5732   19.1753 H         1 CLR1000     0.0000 
     53 H          27.9553   25.7216   18.1284 H         1 CLR1000     0.0000 
     54 H          27.0393   24.3484   16.1327 H         1 CLR1000     0.0000 
     55 H          26.5989   23.1191   17.3305 H         1 CLR1000     0.0000 
     56 H          28.9662   23.1106   18.1366 H         1 CLR1000     0.0000 
     57 H          29.3803   24.2588   16.8520 H         1 CLR1000     0.0000 
     58 H          28.4574   22.4985   15.2315 H         1 CLR1000     0.0000 
     59 H          23.3677   26.5595   19.9871 H         1 CLR1000     0.0000 
     60 H          23.6451   27.7043   18.8922 H         1 CLR1000     0.0000 
     61 H          22.1364   27.2545   19.2208 H         1 CLR1000     0.0000 
     62 H          19.1424   27.4006   19.3066 H         1 CLR1000     0.0000 
     63 H          19.2607   28.3593   18.0208 H         1 CLR1000     0.0000 
     64 H          17.8130   27.9132   18.5608 H         1 CLR1000     0.0000 
     65 H          26.7429   27.4000   16.8837 H         1 CLR1000     0.0000 
     66 H          25.9372   26.3408   15.9808 H         1 CLR1000     0.0000 
     67 H          25.1393   27.4776   16.7915 H         1 CLR1000     0.0000 
     68 H          30.8692   22.8933   15.5570 H         1 CLR1000     0.0000 
     69 H          30.9095   21.8631   16.7913 H         1 CLR1000     0.0000 
     70 H          30.6296   21.3236   15.3024 H         1 CLR1000     0.0000 
     71 H          28.4024   20.2045   16.1460 H         1 CLR1000     0.0000 
     72 H          28.7291   20.7462   17.6245 H         1 CLR1000     0.0000 
     73 H          27.3217   21.0998   16.9313 H         1 CLR1000     0.0000 
     74 H          14.3665   26.9274   16.5160 H         1 CLR1000     0.0000 
@<TRIPOS>BOND
     1    2    1 1    
     2   10    1 1    
     3   29    1 1    
     4   30    1 1    
     5    3    2 1    
     6   31    2 1    
     7   32    2 1    
     8    4    3 1    
     9   28    3 1    
    10   33    3 1    
    11    5    4 1    
    12   34    4 1    
    13   35    4 1    
    14    6    5 2    
    15   10    5 1    
    16    7    6 1    
    17   36    6 1    
    18    8    7 1    
    19   37    7 1    
    20   38    7 1    
    21    9    8 1    
    22   14    8 1    
    23   39    8 1    
    24   10    9 1    
    25   11    9 1    
    26   40    9 1    
    27   19   10 1    
    28   12   11 1    
    29   41   11 1    
    30   42   11 1    
    31   13   12 1    
    32   43   12 1    
    33   44   12 1    
    34   14   13 1    
    35   17   13 1    
    36   18   13 1    
    37   15   14 1    
    38   45   14 1    
    39   16   15 1    
    40   46   15 1    
    41   47   15 1    
    42   17   16 1    
    43   48   16 1    
    44   49   16 1    
    45   20   17 1    
    46   50   17 1    
    47   59   18 1    
    48   60   18 1    
    49   61   18 1    
    50   62   19 1    
    51   63   19 1    
    52   64   19 1    
    53   21   20 1    
    54   22   20 1    
    55   51   20 1    
    56   65   21 1    
    57   66   21 1    
    58   67   21 1    
    59   23   22 1    
    60   52   22 1    
    61   53   22 1    
    62   24   23 1    
    63   54   23 1    
    64   55   23 1    
    65   25   24 1    
    66   56   24 1    
    67   57   24 1    
    68   26   25 1    
    69   27   25 1    
    70   58   25 1    
    71   68   26 1    
    72   69   26 1    
    73   70   26 1    
    74   71   27 1    
    75   72   27 1    
    76   73   27 1    
    77   74   28 1    
@<TRIPOS>SUBSTRUCTURE
     1 CLR1000     1 GROUP   
@<TRIPOS>SET

