#    Name: 3sw1_FMN_1_INTS_M
#    Modification time : Mon Mar 24 18:38:41 2014

@<TRIPOS>MOLECULE
3sw1_FMN_1_INTS_M
  103     0    12     0     0
SMALL
NO_CHARGES


@<TRIPOS>ATOM
      1 N          -6.2870   18.5445    3.1015 N.am      2 SEC2        0.0000 
      2 N          -5.7420   18.2910    4.6150 N.am     10 SEL2        0.0000 
      3 N          -6.8320   18.7980    1.5880 N.am      6 SEP2        0.0000 
      4 N          -6.4970   17.1160    5.2375 N.am      2 SEC2        0.0000 
      5 N          -7.2520   15.9410    5.8600 N.am      6 SEP2        0.0000 
      6 O          -5.8635   18.2405    7.0760 O.2       1 ALC1        0.0000 
      7 O          -5.3510   19.4330    6.5440 O.2       9 ALL1        0.0000 
      8 O          -6.3760   17.0480    7.6080 O.2       5 ALP1        0.0000 
      9 N          -4.2540   21.4815    9.1670 N.am      2 SEC2        0.0000 
     10 N          -4.4510   20.3480    8.4180 N.am     10 SEL2        0.0000 
     11 N          -4.0570   22.6150    9.9160 N.am      6 SEP2        0.0000 
     12 N          -4.1945   22.7495    8.4930 N.am      2 SEC2        0.0000 
     13 N          -4.3320   22.8840    7.0700 N.am     10 SEL2        0.0000 
     14 CA         -2.9340   22.4000    6.2340 C.3       4 GLC5        0.0000 
     15 CA         -4.0210   24.0460    6.3070 C.3      12 GLL5        0.0000 
     16 CA         -1.8470   20.7540    6.1610 C.3       8 GLP5        0.0000 
     17 CA         -4.4775   28.3670    6.2275 C.3       4 GLC5        0.0000 
     18 CA         -2.7620   27.5650    6.9120 C.3      12 GLL5        0.0000 
     19 CA         -6.1930   29.1690    5.5430 C.3       8 GLP5        0.0000 
     20 CA         -2.5550   29.1160    5.9800 C.3       4 GLC5        0.0000 
     21 CA         -2.3480   30.6670    5.0480 C.3       8 GLP5        0.0000 
     22 CA         -2.3450   29.1930    8.2690 C.3       4 GLC5        0.0000 
     23 CA         -1.9280   30.8210    9.6260 C.3       8 GLP5        0.0000 
     24 CA         -0.9420   27.4480    4.2790 C.3       4 GLC5        0.0000 
     25 CA         -3.0670   27.4550    3.9420 C.3      12 GLL5        0.0000 
     26 CA          1.1830   27.4410    4.6160 C.3       8 GLP5        0.0000 
     27 CA         -1.7610   27.3845    2.3905 C.3       4 GLC5        0.0000 
     28 CA         -0.4550   27.3140    0.8390 C.3       8 GLP5        0.0000 
     29 CA         -4.2740   27.8860    2.4450 C.3       4 GLC5        0.0000 
     30 CA         -5.4810   28.3170    0.9480 C.3       8 GLP5        0.0000 
     31 CA         -4.6300   28.3120    4.7425 C.3       4 GLC5        0.0000 
     32 CA         -2.7075   29.0610    4.4950 C.3       4 GLC5        0.0000 
     33 CA         -7.6350   23.1040    3.2350 C.3       4 GLC5        0.0000 
     34 CA         -5.4480   22.7300    3.0540 C.3      12 GLL5        0.0000 
     35 CA         -9.8220   23.4780    3.4160 C.3       8 GLP5        0.0000 
     36 CA         -6.7065   22.4645    4.6950 C.3       4 GLC5        0.0000 
     37 CA         -7.9650   22.1990    6.3360 C.3       8 GLP5        0.0000 
     38 CA         -3.8685   20.6170    1.5595 C.3       4 GLC5        0.0000 
     39 CA         -4.5990   22.4620    1.7260 C.3      12 GLL5        0.0000 
     40 CA         -3.1380   18.7720    1.3930 C.3       8 GLP5        0.0000 
     41 O          -2.3135   22.2550    0.9740 O.2       1 ALC1        0.0000 
     42 O          -3.1890   22.7960    1.9130 O.2       9 ALL1        0.0000 
     43 O          -1.4380   21.7140    0.0350 O.2       5 ALP1        0.0000 
     44 CA         -4.3060   21.1090    0.1690 C.3       4 GLC5        0.0000 
     45 CA         -5.2370   23.1400    0.4200 C.3      12 GLL5        0.0000 
     46 CA         -3.3750   19.0780   -0.0820 C.3       8 GLP5        0.0000 
     47 N          -6.8215   20.0590    0.8280 N.am      2 SEC2        0.0000 
     48 N          -6.8110   21.3200    0.0680 N.am     10 SEL2        0.0000 
     49 CA         -9.3160   22.6155   -0.7845 C.3       4 GLC5        0.0000 
     50 CA         -7.3080   23.4760   -1.0290 C.3      12 GLL5        0.0000 
     51 CA        -11.3240   21.7550   -0.5400 C.3       8 GLP5        0.0000 
     52 CA         -8.5265   24.8520   -2.2150 C.3       4 GLC5        0.0000 
     53 CA         -9.7450   26.2280   -3.4010 C.3       8 GLP5        0.0000 
     54 CA         -6.7220   25.5650   -0.8085 C.3       4 GLC5        0.0000 
     55 CA         -6.1360   27.6540   -0.5880 C.3       8 GLP5        0.0000 
     56 NZ         -8.2070   20.9455   -4.5840 N.4       3 LYC4        0.0000 
     57 NZ         -7.8670   22.1100   -3.7870 N.4      11 LYL4        0.0000 
     58 NZ         -9.0060   18.9440   -4.4500 N.4       7 LYP4        0.0000 
     59 NZ         -8.5970   23.1340   -4.6025 N.4       3 LYC4        0.0000 
     60 NZ        -10.5820   23.7770   -5.6480 N.4       7 LYP4        0.0000 
     61 N          -8.5595   20.7500   -3.5010 N.am      2 SEC2        0.0000 
     62 N          -7.8670   22.1100   -3.7870 N.am     10 SEL2        0.0000 
     63 N          -9.2520   19.3900   -3.2150 N.am      6 SEP2        0.0000 
     64 N          -8.2070   20.9455   -4.5840 N.am      2 SEC2        0.0000 
     65 N          -8.5470   19.7810   -5.3810 N.am      6 SEP2        0.0000 
     66 N          -8.5970   23.1340   -4.6025 N.am      2 SEC2        0.0000 
     67 N          -9.3270   24.1580   -5.4180 N.am      6 SEP2        0.0000 
     68 NZ         -4.2705   22.6000   -4.0245 N.4       3 LYC4        0.0000 
     69 NZ         -5.5890   22.8570   -4.4740 N.4      11 LYL4        0.0000 
     70 NZ         -2.3500   21.1800   -3.2900 N.4       7 LYP4        0.0000 
     71 N          -4.2705   22.6000   -4.0245 N.am      2 SEC2        0.0000 
     72 N          -5.5890   22.8570   -4.4740 N.am     10 SEL2        0.0000 
     73 N          -2.9520   22.3430   -3.5750 N.am      6 SEP2        0.0000 
     74 NZ         -4.5120   20.5780   -2.7775 N.4       3 LYC4        0.0000 
     75 NZ         -5.9720   20.9900   -2.7680 N.4      11 LYL4        0.0000 
     76 NZ         -6.1450   19.5535   -2.5740 N.4       3 LYC4        0.0000 
     77 NZ         -6.1530   17.5060   -3.5550 N.4       7 LYP4        0.0000 
     78 N          -4.5120   20.5780   -2.7775 N.am      2 SEC2        0.0000 
     79 N          -5.9720   20.9900   -2.7680 N.am     10 SEL2        0.0000 
     80 N          -3.0520   20.1660   -2.7870 N.am      6 SEP2        0.0000 
     81 N          -4.4620   21.6665   -3.1715 N.am      2 SEC2        0.0000 
     82 N          -6.1450   19.5535   -2.5740 N.am      2 SEC2        0.0000 
     83 N          -6.3180   18.1170   -2.3800 N.am      6 SEP2        0.0000 
     84 N          -5.9285   19.6100   -3.7070 N.am      2 SEC2        0.0000 
     85 N          -5.8850   18.2300   -4.6460 N.am      6 SEP2        0.0000 
     86 CA         -6.0338   23.0892    5.9745 C.3       4 GLC5        0.0000 
     87 CA         -4.1840   23.9130    4.9190 C.3      12 GLL5        0.0000 
     88 CA         -5.3750   25.4005    6.0832 C.3       4 GLC5        0.0000 
     89 CA         -6.9570   26.1790    5.5450 C.3       8 GLP5        0.0000 
     90 CA         -5.1452   26.2293    5.5192 C.3       4 GLC5        0.0000 
     91 CA         -3.2480   26.3380    6.1870 C.3      12 GLL5        0.0000 
     92 CA         -1.8481   26.0038    8.0839 C.3       4 GLC5        0.0000 
     93 CA         -3.5650   25.1980    6.9360 C.3      12 GLL5        0.0000 
     94 CA         -0.6120   25.3410    9.4310 C.3       8 GLP5        0.0000 
     95 CA         -3.4756   27.1333    8.4904 C.3       4 GLC5        0.0000 
     96 CA         -3.8670   27.6000   10.2440 C.3       8 GLP5        0.0000 
     97 CA         -2.6627   23.0658    4.6232 C.3       4 GLC5        0.0000 
     98 CA         -3.8650   25.0780    4.1640 C.3      12 GLL5        0.0000 
     99 CA         -1.3010   21.6360    4.7050 C.3       8 GLP5        0.0000 
    100 CA         -5.4908   25.3372    5.0432 C.3       4 GLC5        0.0000 
    101 CA         -7.8450   24.5755    0.8238 C.3       4 GLC5        0.0000 
    102 CA         -6.7080   22.7340    0.2060 C.3      12 GLL5        0.0000 
    103 CA         -8.6820   26.0460    2.0590 C.3       8 GLP5        0.0000 
@<TRIPOS>BOND
@<TRIPOS>SUBSTRUCTURE
     1 ALC1        6 GROUP        1 X    ALC  0     ROOT ALC X 1
     2 SEC2        1 GROUP        1 X    SEC  0     **** SEC X 2
     3 LYC4       56 GROUP        1 X    LYC  0     **** LYC X 4
     4 GLC5       14 GROUP        1 X    GLC  0     **** GLC X 6
     5 ALP1        8 GROUP        1 Y    ALP  0     ROOT ALP Y 8
     6 SEP2        3 GROUP        1 Y    SEP  0     **** SEP Y 9
     7 LYP4       58 GROUP        1 Y    LYP  0     **** LYP Y 11
     8 GLP5       16 GROUP        1 Y    GLP  0     **** GLP Y 13
     9 ALL1        7 GROUP        1 Z    ALL  0     ROOT ALL Z 15
    10 SEL2        2 GROUP        1 Z    SEL  0     **** SEL Z 16
    11 LYL4       57 GROUP        1 Z    LYL  0     **** LYL Z 18
    12 GLL5       15 GROUP        1 Z    GLL  0     **** GLL Z 20
@<TRIPOS>SET

