#    Name: 3sw1_FMN_1_ligand
#    Modification time : Mon Mar 24 18:38:41 2014

@<TRIPOS>MOLECULE
3sw1_FMN_1_ligand
   50    52     1     0     0
SMALL
NO_CHARGES


@<TRIPOS>ATOM
      1 N1         -5.1700   20.4360    4.4090 N.2       1 FMN500      0.0000 
      2 C2         -5.4650   19.3280    5.1780 C.2       1 FMN500      0.0000 
      3 O2         -5.7420   18.2910    4.6150 O.2       1 FMN500      0.0000 
      4 N3         -5.3510   19.4330    6.5440 N.am      1 FMN500      0.0000 
      5 C4         -4.7910   20.4700    7.2340 C.2       1 FMN500      0.0000 
      6 O4         -4.4510   20.3480    8.4180 O.2       1 FMN500      0.0000 
      7 C4A        -4.0550   21.6000    6.4260 C.2       1 FMN500      0.0000 
      8 N5         -4.3320   22.8840    7.0700 N.2       1 FMN500      0.0000 
      9 C5A        -4.0210   24.0460    6.3070 C.ar      1 FMN500      0.0000 
     10 C6         -3.5650   25.1980    6.9360 C.ar      1 FMN500      0.0000 
     11 C7         -3.2480   26.3380    6.1870 C.ar      1 FMN500      0.0000 
     12 C7M        -2.7620   27.5650    6.9120 C.3       1 FMN500      0.0000 
     13 C8         -3.4190   26.2210    4.8000 C.ar      1 FMN500      0.0000 
     14 C8M        -3.0670   27.4550    3.9420 C.3       1 FMN500      0.0000 
     15 C9         -3.8650   25.0780    4.1640 C.ar      1 FMN500      0.0000 
     16 C9A        -4.1840   23.9130    4.9190 C.ar      1 FMN500      0.0000 
     17 N10        -4.6320   22.7650    4.2970 N.pl3     1 FMN500      0.0000 
     18 C10        -4.7730   21.5740    5.0440 C.2       1 FMN500      0.0000 
     19 C1'        -5.4480   22.7300    3.0540 C.3       1 FMN500      0.0000 
     20 C2'        -4.5990   22.4620    1.7260 C.3       1 FMN500      0.0000 
     21 O2'        -3.1890   22.7960    1.9130 O.3       1 FMN500      0.0000 
     22 C3'        -5.2370   23.1400    0.4200 C.3       1 FMN500      0.0000 
     23 O3'        -5.0550   24.5280    0.3610 O.3       1 FMN500      0.0000 
     24 C4'        -6.7080   22.7340    0.2060 C.3       1 FMN500      0.0000 
     25 O4'        -6.8110   21.3200    0.0680 O.3       1 FMN500      0.0000 
     26 C5'        -7.3080   23.4760   -1.0290 C.3       1 FMN500      0.0000 
     27 O5'        -6.4490   23.5100   -2.1690 O.3       1 FMN500      0.0000 
     28 P          -6.4310   22.3680   -3.3070 P.3       1 FMN500      0.0000 
     29 O1P        -7.8670   22.1100   -3.7870 O.co2     1 FMN500      0.0000 
     30 O2P        -5.5890   22.8570   -4.4740 O.co2     1 FMN500      0.0000 
     31 O3P        -5.9720   20.9900   -2.7680 O.co2     1 FMN500      0.0000 
     32 H          -5.7443   18.6123    7.1260 H         1 FMN500      0.0000 
     33 H          -3.4577   25.2185    7.9603 H         1 FMN500      0.0000 
     34 H          -3.9732   25.0495    3.1436 H         1 FMN500      0.0000 
     35 H          -5.9764   23.6830    2.9024 H         1 FMN500      0.0000 
     36 H          -6.2102   21.9382    3.1050 H         1 FMN500      0.0000 
     37 H          -4.6845   21.3553    1.5501 H         1 FMN500      0.0000 
     38 H          -4.6713   22.6520   -0.4368 H         1 FMN500      0.0000 
     39 H          -7.2651   23.0807    1.0826 H         1 FMN500      0.0000 
     40 H          -7.5743   24.4995   -0.6835 H         1 FMN500      0.0000 
     41 H          -8.2758   22.9769   -1.2575 H         1 FMN500      0.0000 
     42 H          -1.9222   27.3854    7.4244 H         1 FMN500      0.0000 
     43 H          -2.5656   28.3157    6.2812 H         1 FMN500      0.0000 
     44 H          -3.4386   27.9018    7.5669 H         1 FMN500      0.0000 
     45 H          -2.1089   27.7206    4.0489 H         1 FMN500      0.0000 
     46 H          -3.2172   27.2852    2.9680 H         1 FMN500      0.0000 
     47 H          -3.6209   28.2499    4.1898 H         1 FMN500      0.0000 
     48 H          -2.7092   22.3119    1.1813 H         1 FMN500      0.0000 
     49 H          -4.1505   24.6532   -0.0467 H         1 FMN500      0.0000 
     50 H          -6.1230   21.0760   -0.6154 H         1 FMN500      0.0000 
@<TRIPOS>BOND
     1    2    1 1    
     2   18    1 2    
     3    3    2 2    
     4    4    2 am   
     5    5    4 am   
     6   32    4 1    
     7    6    5 2    
     8    7    5 1    
     9    8    7 2    
    10   18    7 1    
    11    9    8 1    
    12   10    9 ar   
    13   16    9 ar   
    14   11   10 ar   
    15   33   10 1    
    16   12   11 1    
    17   13   11 ar   
    18   42   12 1    
    19   43   12 1    
    20   44   12 1    
    21   14   13 1    
    22   15   13 ar   
    23   45   14 1    
    24   46   14 1    
    25   47   14 1    
    26   16   15 ar   
    27   34   15 1    
    28   17   16 1    
    29   18   17 1    
    30   19   17 1    
    31   20   19 1    
    32   35   19 1    
    33   36   19 1    
    34   21   20 1    
    35   22   20 1    
    36   37   20 1    
    37   48   21 1    
    38   23   22 1    
    39   24   22 1    
    40   38   22 1    
    41   49   23 1    
    42   25   24 1    
    43   26   24 1    
    44   39   24 1    
    45   50   25 1    
    46   27   26 1    
    47   40   26 1    
    48   41   26 1    
    49   28   27 1    
    50   29   28 ar   
    51   30   28 ar   
    52   31   28 ar   
@<TRIPOS>SUBSTRUCTURE
     1 FMN500      1 GROUP   
@<TRIPOS>SET

