#    Name: 1ktt_C02_1_INTS_M
#    Modification time : Tue Mar 25 10:36:05 2014

@<TRIPOS>MOLECULE
1ktt_C02_1_INTS_M
   63     0     9     0     0
SMALL
NO_CHARGES


@<TRIPOS>ATOM
      1 O           9.4340  -10.3460   25.0400 O.2       1 ALC1        0.0000 
      2 O          10.5800  -10.5680   24.5650 O.2       7 ALL1        0.0000 
      3 O           8.2880  -10.1240   25.5150 O.2       4 ALP1        0.0000 
      4 O           9.3555  -11.4385   25.0160 O.2       1 ALC1        0.0000 
      5 O           8.1310  -12.3090   25.4670 O.2       4 ALP1        0.0000 
      6 O           9.0460  -12.4670   24.5575 O.2       1 ALC1        0.0000 
      7 O           9.9610  -12.6250   23.6480 O.2       7 ALL1        0.0000 
      8 O          10.2430  -14.0700   23.6320 O.2       1 ALC1        0.0000 
      9 O          10.5250  -15.5150   23.6160 O.2       4 ALP1        0.0000 
     10 CA         11.0200   -9.3040   22.5570 C.3       3 GLC5        0.0000 
     11 CA         12.8560  -10.4630   22.8750 C.3       9 GLL5        0.0000 
     12 CA          9.1840   -8.1450   22.2390 C.3       6 GLP5        0.0000 
     13 CA         10.5765  -13.7945   21.5785 C.3       3 GLC5        0.0000 
     14 CA         12.3660  -12.7030   22.1330 C.3       9 GLL5        0.0000 
     15 CA          8.7870  -14.8860   21.0240 C.3       6 GLP5        0.0000 
     16 CA         15.3305  -10.0285   19.2225 C.3       3 GLC5        0.0000 
     17 CA         15.6440  -11.5630   20.5380 C.3       9 GLL5        0.0000 
     18 CA         15.0170   -8.4940   17.9070 C.3       6 GLP5        0.0000 
     19 N          15.6400  -13.0750   23.3525 N.am      2 SEC2        0.0000 
     20 N          16.3080  -13.6130   21.8710 N.am      8 SEL2        0.0000 
     21 N          14.9720  -12.5370   24.8340 N.am      5 SEP2        0.0000 
     22 CA         19.1095  -10.5540   19.1050 C.3       3 GLC5        0.0000 
     23 CA         18.7180  -11.6760   20.0070 C.3       9 GLL5        0.0000 
     24 CA         19.5010   -9.4320   18.2030 C.3       6 GLP5        0.0000 
     25 CA         18.6950  -13.1565   18.5885 C.3       3 GLC5        0.0000 
     26 CA         18.6720  -14.6370   17.1700 C.3       6 GLP5        0.0000 
     27 CA         19.9850  -11.3160   21.5585 C.3       3 GLC5        0.0000 
     28 CA         21.2520  -10.9560   23.1100 C.3       6 GLP5        0.0000 
     29 CA         22.6365  -11.9955   24.6140 C.3       3 GLC5        0.0000 
     30 CA         22.5950  -13.5020   25.9050 C.3       9 GLL5        0.0000 
     31 CA         22.6780  -10.4890   23.3230 C.3       6 GLP5        0.0000 
     32 CA         21.2880  -12.1215   24.7765 C.3       3 GLC5        0.0000 
     33 CA         21.3240  -13.2870   26.4430 C.3       9 GLL5        0.0000 
     34 CA         21.4705  -13.5565   28.4425 C.3       3 GLC5        0.0000 
     35 CA         21.6170  -13.8260   30.4420 C.3       6 GLP5        0.0000 
     36 CA         20.4210  -15.1400   28.1255 C.3       3 GLC5        0.0000 
     37 CA         20.3580  -14.2910   26.3720 C.3       9 GLL5        0.0000 
     38 CA         20.4840  -15.9890   29.8790 C.3       6 GLP5        0.0000 
     39 CA         10.5905  -11.9660   21.1703 C.3       3 GLC5        0.0000 
     40 CA          8.9850  -11.7890   19.8270 C.3       6 GLP5        0.0000 
     41 CA         13.0957   -8.7225   22.0515 C.3       3 GLC5        0.0000 
     42 CA         12.7520   -6.9870   21.6110 C.3       6 GLP5        0.0000 
     43 CA         14.9292  -10.5920   23.3520 C.3       3 GLC5        0.0000 
     44 CA         16.4190  -10.7260   24.2120 C.3       6 GLP5        0.0000 
     45 CA         13.5865  -11.9695   24.0499 C.3       3 GLC5        0.0000 
     46 CA         14.0230  -10.4530   22.1090 C.3       9 GLL5        0.0000 
     47 CA         13.9410  -13.2010   25.6030 C.3       6 GLP5        0.0000 
     48 CA         15.7133  -11.1472   22.5775 C.3       3 GLC5        0.0000 
     49 CA         14.3710  -11.5740   21.3480 C.3       9 GLL5        0.0000 
     50 CA         13.4460  -12.9510   23.6753 C.3       3 GLC5        0.0000 
     51 CA         13.5360  -12.6990   21.3620 C.3       9 GLL5        0.0000 
     52 CA         20.1833  -12.4550   22.3310 C.3       3 GLC5        0.0000 
     53 CA         18.4710  -13.6880   21.4910 C.3       9 GLL5        0.0000 
     54 CA         17.7643  -13.0540   23.4907 C.3       3 GLC5        0.0000 
     55 CA         17.4150  -14.3100   22.1470 C.3       9 GLL5        0.0000 
     56 CA         17.7390  -11.3860   24.6170 C.3       6 GLP5        0.0000 
     57 CA         21.5263  -16.1175   27.3908 C.3       3 GLC5        0.0000 
     58 CA         20.6620  -15.5090   25.7670 C.3       9 GLL5        0.0000 
     59 CA         21.7550  -16.6180   29.2840 C.3       6 GLP5        0.0000 
     60 CA         23.3280  -12.8514   26.9066 C.3       3 GLC5        0.0000 
     61 CA         22.9010  -14.7190   25.2980 C.3       9 GLL5        0.0000 
     62 CA         24.6200  -12.0040   27.7910 C.3       6 GLP5        0.0000 
     63 CA         19.2900  -12.5875   25.5123 C.3       3 GLC5        0.0000 
@<TRIPOS>BOND
@<TRIPOS>SUBSTRUCTURE
     1 ALC1        1 GROUP        1 X    ALC  0     ROOT ALC X 1
     2 SEC2       19 GROUP        1 X    SEC  0     **** SEC X 2
     3 GLC5       10 GROUP        1 X    GLC  0     **** GLC X 6
     4 ALP1        3 GROUP        1 Y    ALP  0     ROOT ALP Y 8
     5 SEP2       21 GROUP        1 Y    SEP  0     **** SEP Y 9
     6 GLP5       12 GROUP        1 Y    GLP  0     **** GLP Y 13
     7 ALL1        2 GROUP        1 Z    ALL  0     ROOT ALL Z 15
     8 SEL2       20 GROUP        1 Z    SEL  0     **** SEL Z 16
     9 GLL5       11 GROUP        1 Z    GLL  0     **** GLL Z 20
@<TRIPOS>SET

