#    Name: 1ktt_C02_1_ligand
#    Modification time : Tue Mar 25 10:36:05 2014

@<TRIPOS>MOLECULE
1ktt_C02_1_ligand
   52    55     1     0     0
SMALL
NO_CHARGES


@<TRIPOS>ATOM
      1 N1         10.5800  -10.5680   24.5650 N.pl3     1 C021        0.0000 
      2 C2         10.8260  -11.5850   23.7070 C.ar      1 C021        0.0000 
      3 N3          9.9610  -12.6250   23.6480 N.pl3     1 C021        0.0000 
      4 C4         12.0260  -11.5830   22.8940 C.ar      1 C021        0.0000 
      5 C5         12.8560  -10.4630   22.8750 C.ar      1 C021        0.0000 
      6 C6         14.0230  -10.4530   22.1090 C.ar      1 C021        0.0000 
      7 C7         14.3710  -11.5740   21.3480 C.ar      1 C021        0.0000 
      8 C8         13.5360  -12.6990   21.3620 C.ar      1 C021        0.0000 
      9 C9         12.3660  -12.7030   22.1330 C.ar      1 C021        0.0000 
     10 C10        15.6440  -11.5630   20.5380 C.3       1 C021        0.0000 
     11 C11        16.6320  -12.5900   21.0740 C.2       1 C021        0.0000 
     12 N12        16.3080  -13.6130   21.8710 N.2       1 C021        0.0000 
     13 C13        17.4150  -14.3100   22.1470 C.ar      1 C021        0.0000 
     14 C14        18.4710  -13.6880   21.4910 C.ar      1 C021        0.0000 
     15 N15        17.9620  -12.6300   20.8380 N.pl3     1 C021        0.0000 
     16 C16        18.7180  -11.6760   20.0070 C.3       1 C021        0.0000 
     17 C17        19.7580  -14.2200   21.6130 C.ar      1 C021        0.0000 
     18 C18        19.9860  -15.3780   22.3920 C.ar      1 C021        0.0000 
     19 C19        18.9250  -15.9900   23.0380 C.ar      1 C021        0.0000 
     20 C20        17.6360  -15.4450   22.9100 C.ar      1 C021        0.0000 
     21 N21        19.1080  -17.0040   23.9640 N.pl3     1 C021        0.0000 
     22 S22        19.4730  -16.7620   25.6550 S.o2      1 C021        0.0000 
     23 C23        20.6620  -15.5090   25.7670 C.ar      1 C021        0.0000 
     24 C24        21.9330  -15.7250   25.2280 C.ar      1 C021        0.0000 
     25 C25        22.9010  -14.7190   25.2980 C.ar      1 C021        0.0000 
     26 C26        22.5950  -13.5020   25.9050 C.ar      1 C021        0.0000 
     27 C27        21.3240  -13.2870   26.4430 C.ar      1 C021        0.0000 
     28 C28        20.3580  -14.2910   26.3720 C.ar      1 C021        0.0000 
     29 O29        18.2750  -16.3900   26.3610 O.2       1 C021        0.0000 
     30 O30        20.0010  -17.9430   26.2710 O.2       1 C021        0.0000 
     31 H           9.7415  -10.6410   25.1051 H         1 C021        0.0000 
     32 H          11.2585   -9.8336   24.5830 H         1 C021        0.0000 
     33 H           9.1571  -12.5628   24.2394 H         1 C021        0.0000 
     34 H          10.2027  -13.3632   23.0182 H         1 C021        0.0000 
     35 H          12.6057   -9.6319   23.4330 H         1 C021        0.0000 
     36 H          14.6270   -9.6232   22.1033 H         1 C021        0.0000 
     37 H          13.7828  -13.5255   20.8040 H         1 C021        0.0000 
     38 H          11.7600  -13.5310   22.1368 H         1 C021        0.0000 
     39 H          16.0990  -10.5725   20.5833 H         1 C021        0.0000 
     40 H          15.4179  -11.7951   19.4963 H         1 C021        0.0000 
     41 H          20.5490  -13.7714   21.1358 H         1 C021        0.0000 
     42 H          20.9354  -15.7517   22.4697 H         1 C021        0.0000 
     43 H          16.8475  -15.9039   23.3954 H         1 C021        0.0000 
     44 H          19.0545  -18.0074   23.7828 H         1 C021        0.0000 
     45 H          22.1557  -16.6210   24.7813 H         1 C021        0.0000 
     46 H          23.8341  -14.8777   24.9030 H         1 C021        0.0000 
     47 H          23.3048  -12.7609   25.9574 H         1 C021        0.0000 
     48 H          21.1016  -12.3904   26.8902 H         1 C021        0.0000 
     49 H          19.4229  -14.1318   26.7659 H         1 C021        0.0000 
     50 H          19.6913  -11.9030   19.9732 H         1 C021        0.0000 
     51 H          18.3873  -11.6621   19.0634 H         1 C021        0.0000 
     52 H          18.6469  -10.7417   20.3563 H         1 C021        0.0000 
@<TRIPOS>BOND
     1    2    1 ar   
     2   31    1 1    
     3   32    1 1    
     4    3    2 ar   
     5    4    2 1    
     6   33    3 1    
     7   34    3 1    
     8    5    4 ar   
     9    9    4 ar   
    10    6    5 ar   
    11   35    5 1    
    12    7    6 ar   
    13   36    6 1    
    14    8    7 ar   
    15   10    7 1    
    16    9    8 ar   
    17   37    8 1    
    18   38    9 1    
    19   11   10 1    
    20   39   10 1    
    21   40   10 1    
    22   12   11 2    
    23   15   11 1    
    24   13   12 1    
    25   14   13 ar   
    26   20   13 ar   
    27   15   14 1    
    28   17   14 ar   
    29   16   15 1    
    30   50   16 1    
    31   51   16 1    
    32   52   16 1    
    33   18   17 ar   
    34   41   17 1    
    35   19   18 ar   
    36   42   18 1    
    37   20   19 ar   
    38   21   19 1    
    39   43   20 1    
    40   22   21 1    
    41   44   21 1    
    42   23   22 1    
    43   29   22 2    
    44   30   22 2    
    45   24   23 ar   
    46   28   23 ar   
    47   25   24 ar   
    48   45   24 1    
    49   26   25 ar   
    50   46   25 1    
    51   27   26 ar   
    52   47   26 1    
    53   28   27 ar   
    54   48   27 1    
    55   49   28 1    
@<TRIPOS>SUBSTRUCTURE
     1 C021        1 GROUP   
@<TRIPOS>SET

