#    Name: 4bgi_I4I_2_INTS_M
#    Modification time : Tue Mar 25 07:44:05 2014

@<TRIPOS>MOLECULE
4bgi_I4I_2_INTS_M
   73     0     6     0     0
SMALL
NO_CHARGES


@<TRIPOS>ATOM
      1 N          14.3600   -7.7375    8.3840 N.am      1 SEC2        0.0000 
      2 N          14.4690   -7.0600    9.5000 N.am      5 SEL2        0.0000 
      3 N          14.2510   -8.4150    7.2680 N.am      3 SEP2        0.0000 
      4 CA         17.9410   -4.1785    5.4960 C.3       2 GLC5        0.0000 
      5 CA         16.6050   -3.0270    5.3560 C.3       6 GLL5        0.0000 
      6 CA         19.2770   -5.3300    5.6360 C.3       4 GLP5        0.0000 
      7 CA         15.2515   -0.5095    3.6970 C.3       2 GLC5        0.0000 
      8 CA         15.2550   -0.9460    5.7130 C.3       6 GLL5        0.0000 
      9 CA         15.2480   -0.0730    1.6810 C.3       4 GLP5        0.0000 
     10 CA         14.2740    0.6955    5.4965 C.3       2 GLC5        0.0000 
     11 CA         13.2930    2.3370    5.2800 C.3       4 GLP5        0.0000 
     12 CA         10.3655   -3.8375    7.4795 C.3       2 GLC5        0.0000 
     13 CA         11.6490   -2.4800    7.6680 C.3       6 GLL5        0.0000 
     14 CA          9.0820   -5.1950    7.2910 C.3       4 GLP5        0.0000 
     15 CA         10.0940   -2.0645    9.0780 C.3       2 GLC5        0.0000 
     16 CA          8.5390   -1.6490   10.4880 C.3       4 GLP5        0.0000 
     17 CA         10.4295   -1.8935    6.3710 C.3       2 GLC5        0.0000 
     18 CA          9.2100   -1.3070    5.0740 C.3       4 GLP5        0.0000 
     19 N          15.7645  -10.8985   10.5020 N.am      1 SEC2        0.0000 
     20 N          16.3840   -9.7480   11.0910 N.am      5 SEL2        0.0000 
     21 N          15.1450  -12.0490    9.9130 N.am      3 SEP2        0.0000 
     22 N          10.9190   -2.7670   12.0165 N.am      1 SEC2        0.0000 
     23 N          11.6510   -2.9940   10.6190 N.am      5 SEL2        0.0000 
     24 N          10.1870   -2.5400   13.4140 N.am      3 SEP2        0.0000 
     25 CA         18.4595  -12.2145   14.5570 C.3       2 GLC5        0.0000 
     26 CA         16.6460  -11.1580   14.4360 C.3       6 GLL5        0.0000 
     27 CA         20.2730  -13.2710   14.6780 C.3       4 GLP5        0.0000 
     28 CA         13.4245  -10.9210   13.9330 C.3       2 GLC5        0.0000 
     29 CA         13.4430   -9.0880   13.3460 C.3       6 GLL5        0.0000 
     30 CA         13.4060  -12.7540   14.5200 C.3       4 GLP5        0.0000 
     31 CA         11.9635   -5.0520   14.5185 C.3       2 GLC5        0.0000 
     32 CA         12.8740   -6.7300   13.4150 C.3       6 GLL5        0.0000 
     33 CA         11.0530   -3.3740   15.6220 C.3       4 GLP5        0.0000 
     34 CA         11.5285   -8.5880    9.9445 C.3       2 GLC5        0.0000 
     35 CA         11.9820   -8.2480   11.7350 C.3       6 GLL5        0.0000 
     36 CA         11.0750   -8.9280    8.1540 C.3       4 GLP5        0.0000 
     37 CA         10.0730   -4.2750   11.5370 C.3       2 GLC5        0.0000 
     38 CA         11.4510   -5.7610   11.5770 C.3       6 GLL5        0.0000 
     39 CA          8.6950   -2.7890   11.4970 C.3       4 GLP5        0.0000 
     40 CA         11.2135   -4.6390    7.4040 C.3       2 GLC5        0.0000 
     41 CA         12.4450   -3.5590    8.4190 C.3       6 GLL5        0.0000 
     42 CA          9.9820   -5.7190    6.3890 C.3       4 GLP5        0.0000 
     43 CA         13.3675   -4.9205    7.3200 C.3       2 GLC5        0.0000 
     44 CA         14.2900   -6.2820    6.2210 C.3       4 GLP5        0.0000 
     45 CA         10.2580   -4.9610    9.0665 C.3       2 GLC5        0.0000 
     46 CA         11.7110   -4.0570    9.6750 C.3       6 GLL5        0.0000 
     47 CA          8.8050   -5.8650    8.4580 C.3       4 GLP5        0.0000 
     48 CA         10.2030   -3.4230   10.5860 C.3       2 GLC5        0.0000 
     49 CA         15.9330   -6.4080    7.4995 C.3       2 GLC5        0.0000 
     50 CA         17.5760   -6.5340    8.7780 C.3       6 GLL5        0.0000 
     51 CA         17.8330   -8.2980    8.3920 C.3       2 GLC5        0.0000 
     52 CA         18.0900  -10.0620    8.0060 C.3       4 GLP5        0.0000 
     53 CA         18.9102   -5.4733    8.0978 C.3       2 GLC5        0.0000 
     54 CA         20.4500   -4.9720    6.9530 C.3       4 GLP5        0.0000 
     55 CA         17.0363  -12.0627   15.9125 C.3       2 GLC5        0.0000 
     56 CA         16.9430   -9.9690   15.1640 C.3       6 GLL5        0.0000 
     57 CA         17.2780  -13.5620   17.0250 C.3       4 GLP5        0.0000 
     58 CA         14.9860  -11.9392   14.1305 C.3       2 GLC5        0.0000 
     59 CA         12.4398   -7.4977   15.1706 C.3       2 GLC5        0.0000 
     60 CA         13.5830   -7.8180   13.9450 C.3       6 GLL5        0.0000 
     61 CA         11.6860   -7.4040   16.8110 C.3       4 GLP5        0.0000 
     62 CA         10.2603   -8.0930   13.0060 C.3       2 GLC5        0.0000 
     63 CA          8.4960   -8.5980   14.0030 C.3       4 GLP5        0.0000 
     64 CA         10.6540   -6.3228    9.8450 C.3       2 GLC5        0.0000 
     65 CA          9.4530   -7.0730    8.7400 C.3       4 GLP5        0.0000 
     66 CA         18.3674  -10.4461   12.1759 C.3       2 GLC5        0.0000 
     67 CA         16.6090   -9.8420   12.4050 C.3       6 GLL5        0.0000 
     68 CA         20.0120  -11.3200   11.3990 C.3       4 GLP5        0.0000 
     69 CA         16.2353   -1.0225    8.6627 C.3       2 GLC5        0.0000 
     70 CA         15.9520   -2.3480    7.7030 C.3       6 GLL5        0.0000 
     71 CA         16.3310    0.0620   10.3270 C.3       4 GLP5        0.0000 
     72 CA         15.1385   -3.9426    5.9325 C.3       2 GLC5        0.0000 
     73 CA         14.0680   -5.4880    5.1010 C.3       4 GLP5        0.0000 
@<TRIPOS>BOND
@<TRIPOS>SUBSTRUCTURE
     1 SEC2        1 GROUP        1 X    SEC  0     ROOT SEC X 2
     2 GLC5        4 GROUP        1 X    GLC  0     **** GLC X 6
     3 SEP2        3 GROUP        1 Y    SEP  0     ROOT SEP Y 9
     4 GLP5        6 GROUP        1 Y    GLP  0     **** GLP Y 13
     5 SEL2        2 GROUP        1 Z    SEL  0     ROOT SEL Z 16
     6 GLL5        5 GROUP        1 Z    GLL  0     **** GLL Z 20
@<TRIPOS>SET

