#    Name: 4bgi_I4I_2_ligand
#    Modification time : Tue Mar 25 07:44:05 2014

@<TRIPOS>MOLECULE
4bgi_I4I_2_ligand
   70    72     1     0     0
SMALL
NO_CHARGES


@<TRIPOS>ATOM
      1 C          14.6750   -6.0920   10.2110 C.2       1 I4I1270     0.0000 
      2 N          16.3820   -7.0490   11.4250 N.am      1 I4I1270     0.0000 
      3 O          14.4690   -7.0600    9.5000 O.2       1 I4I1270     0.0000 
      4 CA         16.0990   -5.7850   10.7450 C.3       1 I4I1270     0.0000 
      5 CB         17.1650   -5.4150    9.7070 C.3       1 I4I1270     0.0000 
      6 CAA        16.6050   -3.0270    5.3560 C.3       1 I4I1270     0.0000 
      7 CAB        15.2550   -0.9460    5.7130 C.3       1 I4I1270     0.0000 
      8 CAD        11.6490   -2.4800    7.6680 C.3       1 I4I1270     0.0000 
      9 OAE        17.1200   -6.3050   13.4600 O.2       1 I4I1270     0.0000 
     10 OAG        14.1730   -2.4400    9.8480 O.2       1 I4I1270     0.0000 
     11 OAH        18.1940   -3.0020    8.6280 O.2       1 I4I1270     0.0000 
     12 OAI        16.3840   -9.7480   11.0910 O.3       1 I4I1270     0.0000 
     13 OAJ        11.6510   -2.9940   10.6190 O.3       1 I4I1270     0.0000 
     14 CAK        13.5830   -7.8180   13.9450 C.ar      1 I4I1270     0.0000 
     15 CAL        16.6460  -11.1580   14.4360 C.ar      1 I4I1270     0.0000 
     16 CAM        13.4430   -9.0880   13.3460 C.ar      1 I4I1270     0.0000 
     17 CAN        16.9430   -9.9690   15.1640 C.ar      1 I4I1270     0.0000 
     18 CAO        12.8740   -6.7300   13.4150 C.ar      1 I4I1270     0.0000 
     19 CAP        16.4860  -11.0910   13.0460 C.ar      1 I4I1270     0.0000 
     20 CAQ        11.9820   -8.2480   11.7350 C.ar      1 I4I1270     0.0000 
     21 CAR        11.4510   -5.7610   11.5770 C.3       1 I4I1270     0.0000 
     22 NAS        12.6740   -9.3250   12.2530 N.ar      1 I4I1270     0.0000 
     23 NAT        17.0720   -8.7720   14.5610 N.ar      1 I4I1270     0.0000 
     24 NAV        13.6730   -5.2620   10.6620 N.am      1 I4I1270     0.0000 
     25 OAX        14.6280   -2.9240    7.6600 O.3       1 I4I1270     0.0000 
     26 CAY        16.8100   -7.2420   12.7200 C.2       1 I4I1270     0.0000 
     27 CBA        13.7960   -2.8960    8.7550 C.2       1 I4I1270     0.0000 
     28 CBB        17.0020   -3.2570    8.4570 C.2       1 I4I1270     0.0000 
     29 CBC        12.0670   -6.9280   12.2830 C.ar      1 I4I1270     0.0000 
     30 CBD        16.6090   -9.8420   12.4050 C.ar      1 I4I1270     0.0000 
     31 CBE        16.8980   -8.6780   13.1800 C.ar      1 I4I1270     0.0000 
     32 CBF        16.3270   -1.8660    6.2940 C.3       1 I4I1270     0.0000 
     33 CBH        12.4450   -3.5590    8.4190 C.3       1 I4I1270     0.0000 
     34 CBI        11.7110   -4.0570    9.6750 C.3       1 I4I1270     0.0000 
     35 CBJ        12.2590   -5.3840   10.3230 C.3       1 I4I1270     0.0000 
     36 CBL        15.9520   -2.3480    7.7030 C.3       1 I4I1270     0.0000 
     37 OG1        16.4520   -4.4100    8.9360 O.3       1 I4I1270     0.0000 
     38 CG2        17.5760   -6.5340    8.7780 C.3       1 I4I1270     0.0000 
     39 H          16.2268   -7.9210   10.8093 H         1 I4I1270     0.0000 
     40 H          15.9949   -5.0131   11.4891 H         1 I4I1270     0.0000 
     41 H          17.9869   -4.9783   10.1945 H         1 I4I1270     0.0000 
     42 H          14.1914   -7.6970   14.7510 H         1 I4I1270     0.0000 
     43 H          16.5534  -12.0409   14.9311 H         1 I4I1270     0.0000 
     44 H          13.9759   -9.8855   13.7899 H         1 I4I1270     0.0000 
     45 H          17.0583  -10.0645   16.1990 H         1 I4I1270     0.0000 
     46 H          12.9429   -5.8101   13.8441 H         1 I4I1270     0.0000 
     47 H          16.2845  -11.9271   12.5052 H         1 I4I1270     0.0000 
     48 H          11.3617   -8.3811   10.9044 H         1 I4I1270     0.0000 
     49 H          11.4177   -4.8944   12.2407 H         1 I4I1270     0.0000 
     50 H          10.4304   -6.0017   11.2717 H         1 I4I1270     0.0000 
     51 H          13.9158   -4.4603   11.3091 H         1 I4I1270     0.0000 
     52 H          17.2537   -1.2768    6.3826 H         1 I4I1270     0.0000 
     53 H          12.6292   -4.3709    7.7467 H         1 I4I1270     0.0000 
     54 H          10.6611   -4.2904    9.3472 H         1 I4I1270     0.0000 
     55 H          12.1167   -6.1768    9.5886 H         1 I4I1270     0.0000 
     56 H          15.8751   -1.4004    8.3320 H         1 I4I1270     0.0000 
     57 H          16.9253   -2.7137    4.4620 H         1 I4I1270     0.0000 
     58 H          17.3066   -3.6392    5.7206 H         1 I4I1270     0.0000 
     59 H          15.7872   -3.5801    5.1971 H         1 I4I1270     0.0000 
     60 H          15.0604   -0.1740    6.3181 H         1 I4I1270     0.0000 
     61 H          15.5313   -0.5646    4.8309 H         1 I4I1270     0.0000 
     62 H          14.3914   -1.4283    5.5662 H         1 I4I1270     0.0000 
     63 H          11.5122   -1.6625    8.2275 H         1 I4I1270     0.0000 
     64 H          12.1150   -2.1887    6.8325 H         1 I4I1270     0.0000 
     65 H          10.7427   -2.8065    7.3995 H         1 I4I1270     0.0000 
     66 H          18.2728   -6.2375    8.1249 H         1 I4I1270     0.0000 
     67 H          17.9557   -7.3119    9.2788 H         1 I4I1270     0.0000 
     68 H          16.8025   -6.8776    8.2454 H         1 I4I1270     0.0000 
     69 H          17.1920  -10.1507   10.6607 H         1 I4I1270     0.0000 
     70 H          12.5534   -2.5646   10.5827 H         1 I4I1270     0.0000 
@<TRIPOS>BOND
     1    3    1 2    
     2    4    1 1    
     3   24    1 am   
     4    4    2 1    
     5   26    2 am   
     6   39    2 1    
     7    5    4 1    
     8   40    4 1    
     9   37    5 1    
    10   38    5 1    
    11   41    5 1    
    12   32    6 1    
    13   57    6 1    
    14   58    6 1    
    15   59    6 1    
    16   32    7 1    
    17   60    7 1    
    18   61    7 1    
    19   62    7 1    
    20   33    8 1    
    21   63    8 1    
    22   64    8 1    
    23   65    8 1    
    24   26    9 2    
    25   27   10 2    
    26   28   11 2    
    27   30   12 1    
    28   69   12 1    
    29   34   13 1    
    30   70   13 1    
    31   16   14 ar   
    32   18   14 ar   
    33   42   14 1    
    34   17   15 ar   
    35   19   15 ar   
    36   43   15 1    
    37   22   16 ar   
    38   44   16 1    
    39   23   17 ar   
    40   45   17 1    
    41   29   18 ar   
    42   46   18 1    
    43   30   19 ar   
    44   47   19 1    
    45   22   20 ar   
    46   29   20 ar   
    47   48   20 1    
    48   29   21 1    
    49   35   21 1    
    50   49   21 1    
    51   50   21 1    
    52   31   23 ar   
    53   35   24 1    
    54   51   24 1    
    55   27   25 1    
    56   36   25 1    
    57   31   26 1    
    58   33   27 1    
    59   36   28 1    
    60   37   28 1    
    61   31   30 ar   
    62   36   32 1    
    63   52   32 1    
    64   34   33 1    
    65   53   33 1    
    66   35   34 1    
    67   54   34 1    
    68   55   35 1    
    69   56   36 1    
    70   66   38 1    
    71   67   38 1    
    72   68   38 1    
@<TRIPOS>SUBSTRUCTURE
     1 I4I1270     1 GROUP   
@<TRIPOS>SET

