#    Name: 1g9q_APR_2_INTS_M
#    Modification time : Tue Mar 25 02:52:14 2014

@<TRIPOS>MOLECULE
1g9q_APR_2_INTS_M
   65     0    12     0     0
SMALL
NO_CHARGES


@<TRIPOS>ATOM
      1 N          38.0065   28.1225    1.6525 N.am      2 SEC2        0.0000 
      2 N          37.6750   29.2800    2.5240 N.am     10 SEL2        0.0000 
      3 N          38.3380   26.9650    0.7810 N.am      6 SEP2        0.0000 
      4 CA         36.4445   28.5345    1.6160 C.3       4 GLC5        0.0000 
      5 CA         36.9610   30.4410    2.2150 C.3      12 GLL5        0.0000 
      6 CA         35.9280   26.6280    1.0170 C.3       8 GLP5        0.0000 
      7 CA         38.4255   29.6865    0.6990 C.3       4 GLC5        0.0000 
      8 CA         39.8900   28.9320   -0.8170 C.3       8 GLP5        0.0000 
      9 CA         38.2715   31.7285    1.3435 C.3       4 GLC5        0.0000 
     10 CA         39.5820   33.0160    0.4720 C.3       8 GLP5        0.0000 
     11 O          39.2585   26.9180    3.3700 O.2       1 ALC1        0.0000 
     12 O          38.2350   27.5970    4.1140 O.2       9 ALL1        0.0000 
     13 O          40.2820   26.2390    2.6260 O.2       5 ALP1        0.0000 
     14 O          38.2725   26.9350    5.5555 O.2       1 ALC1        0.0000 
     15 O          38.3100   26.2730    6.9970 O.2       5 ALP1        0.0000 
     16 CA         36.4175   33.7250    4.7385 C.3       4 GLC5        0.0000 
     17 CA         35.0540   32.7730    5.4560 C.3      12 GLL5        0.0000 
     18 CA         37.7810   34.6770    4.0210 C.3       8 GLP5        0.0000 
     19 N          37.8050   34.7875   12.1130 N.am      2 SEC2        0.0000 
     20 N          36.8960   34.3530   11.1550 N.am     10 SEL2        0.0000 
     21 N          38.7140   35.2220   13.0710 N.am      6 SEP2        0.0000 
     22 NZ         35.3795   28.5830   10.7320 N.4       3 LYC4        0.0000 
     23 NZ         35.5490   29.8760   10.9180 N.4      11 LYL4        0.0000 
     24 NZ         34.9840   26.7570   11.7380 N.4       7 LYP4        0.0000 
     25 N          35.3795   28.5830   10.7320 N.am      2 SEC2        0.0000 
     26 N          35.5490   29.8760   10.9180 N.am     10 SEL2        0.0000 
     27 N          35.2100   27.2900   10.5460 N.am      6 SEP2        0.0000 
     28 N          35.2965   28.6965   11.8700 N.am      2 SEC2        0.0000 
     29 N          35.0440   27.5170   12.8220 N.am      6 SEP2        0.0000 
     30 N          39.1645   30.2290   10.5810 N.am      2 SEC2        0.0000 
     31 N          37.8760   29.8760   11.6040 N.am     10 SEL2        0.0000 
     32 N          40.4530   30.5820    9.5580 N.am      6 SEP2        0.0000 
     33 CA         40.3270   31.2605   13.8790 C.3       4 GLC5        0.0000 
     34 CA         38.7280   30.2920   12.7910 C.3      12 GLL5        0.0000 
     35 CA         41.9260   32.2290   14.9670 C.3       8 GLP5        0.0000 
     36 N          39.4015   25.6950   10.7580 N.am      2 SEC2        0.0000 
     37 N          40.0920   26.8890   11.4170 N.am     10 SEL2        0.0000 
     38 N          38.7110   24.5010   10.0990 N.am      6 SEP2        0.0000 
     39 O          41.4110   26.4590   11.4985 O.2       1 ALC1        0.0000 
     40 O          40.0920   26.8890   11.4170 O.2       9 ALL1        0.0000 
     41 O          42.7300   26.0290   11.5800 O.2       5 ALP1        0.0000 
     42 CA         41.0745   25.4270   12.7140 C.3       4 GLC5        0.0000 
     43 CA         39.7940   27.0420   12.8640 C.3      12 GLL5        0.0000 
     44 CA         42.3550   23.8120   12.5640 C.3       8 GLP5        0.0000 
     45 CA         38.9255   26.2545   11.0460 C.3       4 GLC5        0.0000 
     46 CA         38.0570   25.4670    9.2280 C.3       8 GLP5        0.0000 
     47 O          42.2510   26.6090   12.9825 O.2       1 ALC1        0.0000 
     48 O          41.7720   27.1890   14.3850 O.2       9 ALL1        0.0000 
     49 CA         42.1115   26.4500   12.8560 C.3       4 GLC5        0.0000 
     50 CA         40.8640   27.9870   13.5340 C.3      12 GLL5        0.0000 
     51 CA         43.3590   24.9130   12.1780 C.3       8 GLP5        0.0000 
     52 CA         41.0090   30.5810   14.6815 C.3       4 GLC5        0.0000 
     53 CA         40.0920   28.9330   14.3960 C.3      12 GLL5        0.0000 
     54 CA         36.1650   27.8340    3.9082 C.3       4 GLC5        0.0000 
     55 CA         37.0510   29.6350    4.8930 C.3      12 GLL5        0.0000 
     56 CA         34.9790   26.4590    3.4410 C.3       8 GLP5        0.0000 
     57 CA         31.5580   32.0480    5.7523 C.3       4 GLC5        0.0000 
     58 CA         33.6160   32.4400    5.6370 C.3      12 GLL5        0.0000 
     59 CA         29.6600   31.4790    5.0970 C.3       8 GLP5        0.0000 
     60 CA         36.6430   33.7450    8.0727 C.3       4 GLC5        0.0000 
     61 CA         34.3460   33.6120    7.6250 C.3      12 GLL5        0.0000 
     62 CA         38.6590   34.1880    7.9630 C.3       8 GLP5        0.0000 
     63 CA         38.2950   29.8278   15.6245 C.3       4 GLC5        0.0000 
     64 CA         38.7560   29.0220   13.8000 C.3      12 GLL5        0.0000 
     65 CA         37.1660   30.6780   17.1510 C.3       8 GLP5        0.0000 
@<TRIPOS>BOND
@<TRIPOS>SUBSTRUCTURE
     1 ALC1       11 GROUP        1 X    ALC  0     ROOT ALC X 1
     2 SEC2        1 GROUP        1 X    SEC  0     **** SEC X 2
     3 LYC4       22 GROUP        1 X    LYC  0     **** LYC X 4
     4 GLC5        4 GROUP        1 X    GLC  0     **** GLC X 6
     5 ALP1       13 GROUP        1 Y    ALP  0     ROOT ALP Y 8
     6 SEP2        3 GROUP        1 Y    SEP  0     **** SEP Y 9
     7 LYP4       24 GROUP        1 Y    LYP  0     **** LYP Y 11
     8 GLP5        6 GROUP        1 Y    GLP  0     **** GLP Y 13
     9 ALL1       12 GROUP        1 Z    ALL  0     ROOT ALL Z 15
    10 SEL2        2 GROUP        1 Z    SEL  0     **** SEL Z 16
    11 LYL4       23 GROUP        1 Z    LYL  0     **** LYL Z 18
    12 GLL5        5 GROUP        1 Z    GLL  0     **** GLL Z 20
@<TRIPOS>SET

