#    Name: 1g9q_APR_2_ligand
#    Modification time : Tue Mar 25 02:52:14 2014

@<TRIPOS>MOLECULE
1g9q_APR_2_ligand
   57    60     1     0     0
SMALL
NO_CHARGES


@<TRIPOS>ATOM
      1 N1         37.6750   29.2800    2.5240 N.ar      1 APR302      0.0000 
      2 C2         36.9610   30.4410    2.2150 C.ar      1 APR302      0.0000 
      3 N3         36.2770   31.2120    3.0720 N.ar      1 APR302      0.0000 
      4 C4         36.4050   30.7940    4.4210 C.ar      1 APR302      0.0000 
      5 C5         37.0510   29.6350    4.8930 C.ar      1 APR302      0.0000 
      6 C6         37.6510   28.7830    3.8580 C.ar      1 APR302      0.0000 
      7 N6         38.2350   27.5970    4.1140 N.pl3     1 APR302      0.0000 
      8 N7         37.0050   29.5810    6.2820 N.2       1 APR302      0.0000 
      9 C8         36.3380   30.6800    6.6330 C.2       1 APR302      0.0000 
     10 N9         35.9470   31.4390    5.5530 N.pl3     1 APR302      0.0000 
     11 C1'        35.0540   32.7730    5.4560 C.3       1 APR302      0.0000 
     12 C2'        33.6160   32.4400    5.6370 C.3       1 APR302      0.0000 
     13 O2'        32.8640   33.2670    4.7880 O.3       1 APR302      0.0000 
     14 C3'        33.2960   32.7940    7.1780 C.3       1 APR302      0.0000 
     15 O3'        32.0200   33.4660    7.3440 O.3       1 APR302      0.0000 
     16 O4'        35.3490   33.6030    6.5480 O.3       1 APR302      0.0000 
     17 C4'        34.3460   33.6120    7.6250 C.3       1 APR302      0.0000 
     18 C5'        34.9080   32.9920    8.7400 C.3       1 APR302      0.0000 
     19 O5'        35.4270   33.9100    9.5360 O.3       1 APR302      0.0000 
     20 PA         35.9900   33.5060   10.8300 P.3       1 APR302      0.0000 
     21 O1A        34.8140   33.5520   11.9190 O.co2     1 APR302      0.0000 
     22 O2A        36.8960   34.3530   11.1550 O.co2     1 APR302      0.0000 
     23 O3A        36.6610   31.9650   10.7160 O.3       1 APR302      0.0000 
     24 PB         36.4900   30.6670   11.5550 P.3       1 APR302      0.0000 
     25 O1B        35.5490   29.8760   10.9180 O.co2     1 APR302      0.0000 
     26 O2B        36.0400   30.9500   12.8950 O.co2     1 APR302      0.0000 
     27 O5D        37.8760   29.8760   11.6040 O.3       1 APR302      0.0000 
     28 C5D        38.7280   30.2920   12.7910 C.3       1 APR302      0.0000 
     29 O4D        38.5300   27.6870   13.0090 O.3       1 APR302      0.0000 
     30 O1D        40.0920   26.8890   11.4170 O.3       1 APR302      0.0000 
     31 C1D        39.7940   27.0420   12.8640 C.3       1 APR302      0.0000 
     32 O2D        41.7720   27.1890   14.3850 O.3       1 APR302      0.0000 
     33 C2D        40.8640   27.9870   13.5340 C.3       1 APR302      0.0000 
     34 O3D        39.9450   28.2890   15.8970 O.3       1 APR302      0.0000 
     35 C3D        40.0920   28.9330   14.3960 C.3       1 APR302      0.0000 
     36 C4D        38.7560   29.0220   13.8000 C.3       1 APR302      0.0000 
     37 H          36.9750   30.7288    1.1716 H         1 APR302      0.0000 
     38 H          38.6260   27.1201    3.3268 H         1 APR302      0.0000 
     39 H          38.2257   27.2988    5.0685 H         1 APR302      0.0000 
     40 H          36.1328   30.9443    7.5683 H         1 APR302      0.0000 
     41 H          35.2242   33.2184    4.5299 H         1 APR302      0.0000 
     42 H          33.4567   31.4155    5.5184 H         1 APR302      0.0000 
     43 H          33.3046   31.8394    7.6928 H         1 APR302      0.0000 
     44 H          34.0303   34.5955    7.8142 H         1 APR302      0.0000 
     45 H          35.6712   32.2426    8.4015 H         1 APR302      0.0000 
     46 H          34.1244   32.3765    9.2556 H         1 APR302      0.0000 
     47 H          38.2868   31.1010   13.3181 H         1 APR302      0.0000 
     48 H          39.7308   30.4818   12.4987 H         1 APR302      0.0000 
     49 H          39.8303   26.1127   13.3630 H         1 APR302      0.0000 
     50 H          41.3699   28.5010   12.7766 H         1 APR302      0.0000 
     51 H          40.5579   29.8506   14.4857 H         1 APR302      0.0000 
     52 H          38.0055   29.1445   14.5108 H         1 APR302      0.0000 
     53 H          32.1638   33.6725    5.3755 H         1 APR302      0.0000 
     54 H          31.3509   32.7296    7.4443 H         1 APR302      0.0000 
     55 H          41.0394   26.5711   11.3802 H         1 APR302      0.0000 
     56 H          42.2963   26.6256   13.7466 H         1 APR302      0.0000 
     57 H          40.6195   27.5514   15.9292 H         1 APR302      0.0000 
@<TRIPOS>BOND
     1    2    1 ar   
     2    6    1 ar   
     3    3    2 ar   
     4   37    2 1    
     5    4    3 ar   
     6    5    4 ar   
     7   10    4 1    
     8    6    5 ar   
     9    8    5 1    
    10    7    6 1    
    11   38    7 1    
    12   39    7 1    
    13    9    8 2    
    14   10    9 1    
    15   40    9 1    
    16   11   10 1    
    17   12   11 1    
    18   16   11 1    
    19   41   11 1    
    20   13   12 1    
    21   14   12 1    
    22   42   12 1    
    23   53   13 1    
    24   15   14 1    
    25   17   14 1    
    26   43   14 1    
    27   54   15 1    
    28   17   16 1    
    29   18   17 1    
    30   44   17 1    
    31   19   18 1    
    32   45   18 1    
    33   46   18 1    
    34   20   19 1    
    35   21   20 ar   
    36   22   20 ar   
    37   23   20 1    
    38   24   23 1    
    39   25   24 ar   
    40   26   24 ar   
    41   27   24 1    
    42   28   27 1    
    43   36   28 1    
    44   47   28 1    
    45   48   28 1    
    46   31   29 1    
    47   36   29 1    
    48   31   30 1    
    49   55   30 1    
    50   33   31 1    
    51   49   31 1    
    52   33   32 1    
    53   56   32 1    
    54   35   33 1    
    55   50   33 1    
    56   35   34 1    
    57   57   34 1    
    58   36   35 1    
    59   51   35 1    
    60   52   36 1    
@<TRIPOS>SUBSTRUCTURE
     1 APR302      1 GROUP   
@<TRIPOS>SET

