#    Name: 1XMS_1_CAVITY_N1_6.mol2
#    Modification time : Mon Mar 10 18:43:28 2014

@<TRIPOS>MOLECULE
1XMS_1_CAVITY_N1_6.mol2
   70     0     6     0     0
SMALL
NO_CHARGES


@<TRIPOS>ATOM
      1 CZ         28.1340   10.7368   15.6864 C.ar      4 PHE5        0.0000 
      2 O          28.3612    9.4203   16.3685 O.2       2 ALA2        0.0000 
      3 CZ         26.7222   11.4770   14.2868 C.ar      4 PHE5        0.0000 
      4 CZ         26.9494   10.1606   14.9690 C.ar      4 PHE5        0.0000 
      5 DU         27.1767    8.8441   15.6511 H         6 CUB7        0.0000 
      6 CZ         27.4039    7.5277   16.3332 C.ar      4 PHE5        0.0000 
      7 DU         25.5376   10.9008   13.5694 H         6 CUB7        0.0000 
      8 DU         25.7648    9.5844   14.2515 H         6 CUB7        0.0000 
      9 DU         26.2193    6.9514   15.6158 H         6 CUB7        0.0000 
     10 CZ         26.4465    5.6350   16.2979 C.ar      4 PHE5        0.0000 
     11 DU         25.0347    6.3752   14.8983 H         6 CUB7        0.0000 
     12 CZ         25.2620    5.0588   15.5804 C.ar      4 PHE5        0.0000 
     13 OG         25.4892    3.7423   16.2626 O.2       1 SER1        0.0000 
     14 CA         23.8501    5.7990   14.1809 C.3       5 GLY6        0.0000 
     15 N          24.0774    4.4825   14.8630 N.2       2 ALA2        0.0000 
     16 OG         24.3046    3.1661   15.5451 O.2       1 SER1        0.0000 
     17 OG         22.4383    6.5392   12.7813 O.2       1 SER1        0.0000 
     18 OG         21.0265    7.2795   11.3817 O.2       1 SER1        0.0000 
     19 CZ         27.8411    9.7306   13.8420 C.ar      4 PHE5        0.0000 
     20 OG         28.0684    8.4141   14.5242 O.2       1 SER1        0.0000 
     21 CA         28.2956    7.0977   15.2063 C.3       5 GLY6        0.0000 
     22 CZ         28.5228    5.7812   15.8884 C.ar      4 PHE5        0.0000 
     23 OG         26.6565    9.1543   13.1246 O.2       1 SER1        0.0000 
     24 OG         26.8838    7.8379   13.8067 O.2       1 SER1        0.0000 
     25 DU         27.1110    6.5214   14.4888 H         6 CUB7        0.0000 
     26 CZ         27.3382    5.2050   15.1710 C.ar      4 PHE5        0.0000 
     27 DU         25.0175   11.2110   11.0429 H         6 CUB7        0.0000 
     28 DU         25.2447    9.8946   11.7250 H         6 CUB7        0.0000 
     29 DU         25.4720    8.5781   12.4071 H         6 CUB7        0.0000 
     30 DU         25.6992    7.2617   13.0893 H         6 CUB7        0.0000 
     31 DU         25.9264    5.9452   13.7714 H         6 CUB7        0.0000 
     32 OG         26.1537    4.6288   14.4535 O.2       1 SER1        0.0000 
     33 OD1        23.8329   10.6348   10.3254 O.3       3 ASP3        0.0000 
     34 DU         24.0602    9.3184   11.0075 H         6 CUB7        0.0000 
     35 DU         24.2874    8.0019   11.6897 H         6 CUB7        0.0000 
     36 CA         24.5146    6.6855   12.3718 C.3       5 GLY6        0.0000 
     37 N          24.7418    5.3690   13.0539 N.2       2 ALA2        0.0000 
     38 N          24.9691    4.0525   13.7361 N.2       2 ALA2        0.0000 
     39 OD1        22.6483   10.0586    9.6080 O.3       3 ASP3        0.0000 
     40 OD1        22.8756    8.7421   10.2901 O.3       3 ASP3        0.0000 
     41 CA         23.1028    7.4257   10.9722 C.3       5 GLY6        0.0000 
     42 OD1        21.6910    8.1659    9.5726 O.3       3 ASP3        0.0000 
     43 OG         27.7755    7.4079   12.6798 O.2       1 SER1        0.0000 
     44 CA         28.0027    6.0914   13.3619 C.3       5 GLY6        0.0000 
     45 CA         28.2299    4.7750   14.0441 C.3       5 GLY6        0.0000 
     46 OG         26.1364    9.4646   10.5981 O.2       1 SER1        0.0000 
     47 OG         26.3637    8.1481   11.2802 O.2       1 SER1        0.0000 
     48 OG         26.5909    6.8317   11.9623 O.2       1 SER1        0.0000 
     49 CA         26.8181    5.5152   12.6445 C.3       5 GLY6        0.0000 
     50 OG         27.0454    4.1987   13.3266 O.2       1 SER1        0.0000 
     51 CA         24.7246   10.2048    9.1985 C.3       5 GLY6        0.0000 
     52 CA         24.9519    8.8884    9.8806 C.3       5 GLY6        0.0000 
     53 DU         25.1791    7.5719   10.5628 H         6 CUB7        0.0000 
     54 O          25.4063    6.2554   11.2449 O.2       2 ALA2        0.0000 
     55 N          25.6335    4.9390   11.9270 N.2       2 ALA2        0.0000 
     56 OD1        23.7673    8.3121    9.1632 O.3       3 ASP3        0.0000 
     57 CA         23.9945    6.9957    9.8453 C.3       5 GLY6        0.0000 
     58 CA         24.2217    5.6792   10.5274 C.3       5 GLY6        0.0000 
     59 OD1        22.5827    7.7359    8.4457 O.3       3 ASP3        0.0000 
     60 O          22.8099    6.4195    9.1278 O.2       2 ALA2        0.0000 
     61 CA         27.6968    8.5339   18.1776 C.3       5 GLY6        0.0000 
     62 CZ         25.5548    6.0650   17.4248 C.ar      4 PHE5        0.0000 
     63 OG         23.4129    3.5961   16.6721 O.2       1 SER1        0.0000 
     64 OG         27.4826    6.4017   10.8354 O.2       1 SER1        0.0000 
     65 CA         27.7098    5.0852   11.5175 C.3       5 GLY6        0.0000 
     66 CA         27.9371    3.7687   12.1997 C.3       5 GLY6        0.0000 
     67 CA         25.8436    8.4583    8.7537 C.3       5 GLY6        0.0000 
     68 CA         26.0708    7.1419    9.4358 C.3       5 GLY6        0.0000 
     69 OD1        24.6590    7.8821    8.0362 O.3       3 ASP3        0.0000 
     70 O          24.8862    6.5657    8.7184 O.2       2 ALA2        0.0000 
@<TRIPOS>BOND
@<TRIPOS>SUBSTRUCTURE
     1 SER1       13 GROUP   
     2 ALA2        2 GROUP   
     3 ASP3       33 GROUP   
     4 PHE5        1 GROUP   
     5 GLY6       14 GROUP   
     6 CUB7        5 GROUP   
@<TRIPOS>SET

