#    Name: 1xms_ANP_1_INTS_M
#    Modification time : Tue Mar 25 10:20:00 2014

@<TRIPOS>MOLECULE
1xms_ANP_1_INTS_M
   51     0    12     0     0
SMALL
NO_CHARGES


@<TRIPOS>ATOM
      1 NZ         21.1340    6.3550    5.9660 N.4       2 LYC4        0.0000 
      2 NZ         20.4570    7.5950    6.5820 N.4      10 LYL4        0.0000 
      3 NZ         21.8110    5.1150    5.3500 N.4       6 LYP4        0.0000 
      4 N          21.1340    6.3550    5.9660 N.am      1 SEC2        0.0000 
      5 N          20.4570    7.5950    6.5820 N.am      9 SEL2        0.0000 
      6 N          21.8110    5.1150    5.3500 N.am      5 SEP2        0.0000 
      7 N          20.8055    5.6585    9.3480 N.am      1 SEC2        0.0000 
      8 N          20.4890    6.7580    8.8680 N.am      9 SEL2        0.0000 
      9 N          21.1220    4.5590    9.8280 N.am      5 SEP2        0.0000 
     10 NZ         22.5070    5.3620    6.4325 N.4       2 LYC4        0.0000 
     11 NZ         23.2030    5.6090    7.5150 N.4      10 LYL4        0.0000 
     12 N          23.2895    4.3125    8.4375 N.am      1 SEC2        0.0000 
     13 N          23.2030    5.6090    7.5150 N.am      9 SEL2        0.0000 
     14 N          23.3760    3.0160    9.3600 N.am      5 SEP2        0.0000 
     15 N          24.5420    4.7565    8.1785 N.am      1 SEC2        0.0000 
     16 N          25.8810    3.9040    8.8420 N.am      5 SEP2        0.0000 
     17 N          22.5070    5.3620    6.4325 N.am      1 SEC2        0.0000 
     18 Zn         23.8930    8.6415    7.0415 Zn        3 ZIC7        0.0000 
     19 Zn         24.7190    7.5820    7.4310 Zn       11 ZIL7        0.0000 
     20 Zn         23.0670    9.7010    6.6520 Zn        7 ZIP7        0.0000 
     21 N          25.7990    7.8945    6.7495 N.am      1 SEC2        0.0000 
     22 N          24.7190    7.5820    7.4310 N.am      9 SEL2        0.0000 
     23 N          26.8790    8.2070    6.0680 N.am      5 SEP2        0.0000 
     24 N          27.8650    8.2755    8.8255 N.am      1 SEC2        0.0000 
     25 N          26.7900    7.6380    9.7440 N.am      9 SEL2        0.0000 
     26 N          28.9400    8.9130    7.9070 N.am      5 SEP2        0.0000 
     27 N          28.0950    7.9640   10.2565 N.am      1 SEC2        0.0000 
     28 N          29.4000    8.2900   10.7690 N.am      5 SEP2        0.0000 
     29 N          25.1730    5.2335    9.1590 N.am      1 SEC2        0.0000 
     30 N          24.4650    6.5630    9.4760 N.am      9 SEL2        0.0000 
     31 CA         27.0655    5.3215   10.5060 C.3       4 GLC5        0.0000 
     32 CA         26.9570    6.0770   12.2090 C.3      12 GLL5        0.0000 
     33 CA         27.1740    4.5660    8.8030 C.3       8 GLP5        0.0000 
     34 CA         27.4505    6.2705   17.0205 C.3       4 GLC5        0.0000 
     35 CA         26.6250    7.4310   15.4790 C.3      12 GLL5        0.0000 
     36 CA         28.2760    5.1100   18.5620 C.3       8 GLP5        0.0000 
     37 CA         29.0835    9.3785   13.9935 C.3       4 GLC5        0.0000 
     38 CA         27.6020    8.2510   14.6600 C.3      12 GLL5        0.0000 
     39 CA         30.5650   10.5060   13.3270 C.3       8 GLP5        0.0000 
     40 CA         29.7735   11.2085   17.8240 C.3       4 GLC5        0.0000 
     41 CA         28.0800   11.6010   17.4200 C.3      12 GLL5        0.0000 
     42 CA         31.4670   10.8160   18.2280 C.3       8 GLP5        0.0000 
     43 N          29.4080    9.9890   17.4490 N.am      1 SEC2        0.0000 
     44 N          28.0810   10.4060   16.7940 N.am      9 SEL2        0.0000 
     45 N          30.7350    9.5720   18.1040 N.am      5 SEP2        0.0000 
     46 CA         28.9670    5.5700   13.1410 C.3       4 GLC5        0.0000 
     47 CA         27.2310    6.2270   13.5110 C.3      12 GLL5        0.0000 
     48 CA         30.8400    4.9880   13.4220 C.3       8 GLP5        0.0000 
     49 CA         28.2947   13.4623   14.7430 C.3       4 GLC5        0.0000 
     50 CA         26.8910   11.6900   14.9360 C.3      12 GLL5        0.0000 
     51 CA         29.6730   14.6420   14.1840 C.3       8 GLP5        0.0000 
@<TRIPOS>BOND
@<TRIPOS>SUBSTRUCTURE
     1 SEC2        4 GROUP        1 X    SEC  0     ROOT SEC X 2
     2 LYC4        1 GROUP        1 X    LYC  0     **** LYC X 4
     3 ZIC7       18 GROUP        1 X    ZIC  0     **** ZIC X 5
     4 GLC5       31 GROUP        1 X    GLC  0     **** GLC X 6
     5 SEP2        6 GROUP        1 Y    SEP  0     ROOT SEP Y 9
     6 LYP4        3 GROUP        1 Y    LYP  0     **** LYP Y 11
     7 ZIP7       20 GROUP        1 Y    ZIP  0     **** ZIP Y 12
     8 GLP5       33 GROUP        1 Y    GLP  0     **** GLP Y 13
     9 SEL2        5 GROUP        1 Z    SEL  0     ROOT SEL Z 16
    10 LYL4        2 GROUP        1 Z    LYL  0     **** LYL Z 18
    11 ZIL7       19 GROUP        1 Z    ZIL  0     **** ZIL Z 19
    12 GLL5       32 GROUP        1 Z    GLL  0     **** GLL Z 20
@<TRIPOS>SET

