#    Name: 1xms_ANP_1_ligand
#    Modification time : Tue Mar 25 10:20:00 2014

@<TRIPOS>MOLECULE
1xms_ANP_1_ligand
   42    44     1     0     0
SMALL
NO_CHARGES


@<TRIPOS>ATOM
      1 PG         20.8340    7.8590    7.9310 P.3       1 ANP400      0.0000 
      2 O1G        20.4570    7.5950    6.5820 O.co2     1 ANP400      0.0000 
      3 O2G        20.4890    6.7580    8.8680 O.co2     1 ANP400      0.0000 
      4 O3G        20.1770    9.0810    8.3230 O.co2     1 ANP400      0.0000 
      5 PB         23.6680    6.8710    8.1300 P.3       1 ANP400      0.0000 
      6 O1B        23.2030    5.6090    7.5150 O.co2     1 ANP400      0.0000 
      7 O2B        24.7190    7.5820    7.4310 O.co2     1 ANP400      0.0000 
      8 N3B        22.4560    7.8460    8.2830 N.4       1 ANP400      0.0000 
      9 PA         25.3810    7.5630   10.3570 P.3       1 ANP400      0.0000 
     10 O1A        26.7900    7.6380    9.7440 O.co2     1 ANP400      0.0000 
     11 O2A        24.8820    8.9540   10.3720 O.co2     1 ANP400      0.0000 
     12 O3A        24.4650    6.5630    9.4760 O.3       1 ANP400      0.0000 
     13 O5'        25.6960    6.8740   11.8290 O.3       1 ANP400      0.0000 
     14 C5'        26.9570    6.0770   12.2090 C.3       1 ANP400      0.0000 
     15 C4'        27.2310    6.2270   13.5110 C.3       1 ANP400      0.0000 
     16 O4'        27.5750    7.6460   13.3780 O.3       1 ANP400      0.0000 
     17 C3'        26.0150    6.3300   14.5050 C.3       1 ANP400      0.0000 
     18 O3'        25.3390    5.2430   15.0120 O.3       1 ANP400      0.0000 
     19 C2'        26.6250    7.4310   15.4790 C.3       1 ANP400      0.0000 
     20 O2'        27.3650    6.6310   16.5470 O.3       1 ANP400      0.0000 
     21 C1'        27.6020    8.2510   14.6600 C.3       1 ANP400      0.0000 
     22 N9         27.2520    9.5480   14.5840 N.pl3     1 ANP400      0.0000 
     23 C8         26.6000   10.2340   13.5560 C.2       1 ANP400      0.0000 
     24 N7         26.3690   11.4790   13.7150 N.2       1 ANP400      0.0000 
     25 C5         26.8910   11.6900   14.9360 C.ar      1 ANP400      0.0000 
     26 C6         26.9420   12.8750   15.6680 C.ar      1 ANP400      0.0000 
     27 N6         26.4850   14.1090   15.3450 N.pl3     1 ANP400      0.0000 
     28 N1         27.5560   12.8250   16.9490 N.ar      1 ANP400      0.0000 
     29 C2         28.0800   11.6010   17.4200 C.ar      1 ANP400      0.0000 
     30 N3         28.0810   10.4060   16.7940 N.ar      1 ANP400      0.0000 
     31 C4         27.4490   10.5260   15.5120 C.ar      1 ANP400      0.0000 
     32 H          27.7609    6.4383   11.5337 H         1 ANP400      0.0000 
     33 H          26.7564    5.0273   11.9076 H         1 ANP400      0.0000 
     34 H          28.0041    5.7321   13.9175 H         1 ANP400      0.0000 
     35 H          25.2977    7.0256   13.8737 H         1 ANP400      0.0000 
     36 H          25.8612    7.9853   15.8718 H         1 ANP400      0.0000 
     37 H          28.5826    8.0889   15.1041 H         1 ANP400      0.0000 
     38 H          26.3352    9.6960   12.7120 H         1 ANP400      0.0000 
     39 H          28.5318   11.6522   18.4077 H         1 ANP400      0.0000 
     40 H          25.5397    4.4953   14.3790 H         1 ANP400      0.0000 
     41 H          26.8878    5.7533   16.5898 H         1 ANP400      0.0000 
     42 H          27.2740   14.7137   15.4538 H         1 ANP400      0.0000 
@<TRIPOS>BOND
     1    2    1 ar   
     2    3    1 ar   
     3    4    1 ar   
     4    8    1 1    
     5    6    5 ar   
     6    7    5 ar   
     7    8    5 1    
     8   12    5 1    
     9   10    9 ar   
    10   11    9 ar   
    11   12    9 1    
    12   13    9 1    
    13   14   13 1    
    14   15   14 1    
    15   32   14 1    
    16   33   14 1    
    17   16   15 1    
    18   17   15 1    
    19   34   15 1    
    20   21   16 1    
    21   18   17 1    
    22   19   17 1    
    23   35   17 1    
    24   40   18 1    
    25   20   19 1    
    26   21   19 1    
    27   36   19 1    
    28   41   20 1    
    29   22   21 1    
    30   37   21 1    
    31   23   22 1    
    32   31   22 1    
    33   24   23 2    
    34   38   23 1    
    35   25   24 1    
    36   26   25 ar   
    37   31   25 ar   
    38   27   26 1    
    39   28   26 ar   
    40   42   27 1    
    41   29   28 ar   
    42   30   29 ar   
    43   39   29 1    
    44   31   30 ar   
@<TRIPOS>SUBSTRUCTURE
     1 ANP400      1 GROUP   
@<TRIPOS>SET

