#    Name: 2bju_IH4_1_INTS_M
#    Modification time : Mon Mar 24 21:07:21 2014

@<TRIPOS>MOLECULE
2bju_IH4_1_INTS_M
   79     0     6     0     0
SMALL
NO_CHARGES


@<TRIPOS>ATOM
      1 CA          0.0485   67.2225    2.1100 C.3       2 GLC5        0.0000 
      2 CA         -1.6310   66.7920    2.5170 C.3       6 GLL5        0.0000 
      3 CA          1.7280   67.6530    1.7030 C.3       4 GLP5        0.0000 
      4 CA         -2.0510   66.4635    1.0825 C.3       2 GLC5        0.0000 
      5 CA         -2.4710   66.1350   -0.3520 C.3       4 GLP5        0.0000 
      6 CA         -0.4565   64.1895    2.6030 C.3       2 GLC5        0.0000 
      7 CA         -1.2410   65.0330    4.2950 C.3       6 GLL5        0.0000 
      8 CA          0.3280   63.3460    0.9110 C.3       4 GLP5        0.0000 
      9 CA         -3.1395   59.7575    5.8665 C.3       2 GLC5        0.0000 
     10 CA         -3.4340   60.8790    7.5620 C.3       6 GLL5        0.0000 
     11 CA         -2.8450   58.6360    4.1710 C.3       4 GLP5        0.0000 
     12 CA         -6.1625   59.9615    7.9470 C.3       2 GLC5        0.0000 
     13 CA         -4.9520   60.1540    9.4040 C.3       6 GLL5        0.0000 
     14 CA         -7.3730   59.7690    6.4900 C.3       4 GLP5        0.0000 
     15 CA        -11.7910   58.2450    8.9130 C.3       2 GLC5        0.0000 
     16 CA        -11.3810   60.1450    8.5830 C.3       6 GLL5        0.0000 
     17 CA        -12.2010   56.3450    9.2430 C.3       4 GLP5        0.0000 
     18 CA        -11.3010   59.9020   10.7120 C.3       2 GLC5        0.0000 
     19 CA        -11.2210   59.6590   12.8410 C.3       4 GLP5        0.0000 
     20 CA        -13.2455   60.5395    9.2055 C.3       2 GLC5        0.0000 
     21 CA        -15.1100   60.9340    9.8280 C.3       4 GLP5        0.0000 
     22 CA         -9.2875   59.8340    6.7845 C.3       2 GLC5        0.0000 
     23 CA        -11.2020   59.8990    7.0790 C.3       6 GLL5        0.0000 
     24 CA        -13.8225   60.3645    8.0895 C.3       2 GLC5        0.0000 
     25 CA        -12.5350   59.7950    6.3510 C.3       6 GLL5        0.0000 
     26 CA        -14.2420   58.6750    6.5705 C.3       2 GLC5        0.0000 
     27 CA        -15.9490   57.5550    6.7900 C.3       4 GLP5        0.0000 
     28 CA        -12.1970   61.0490    3.5105 C.3       2 GLC5        0.0000 
     29 CA        -12.3300   59.5450    4.8560 C.3       6 GLL5        0.0000 
     30 CA        -12.0640   62.5530    2.1650 C.3       4 GLP5        0.0000 
     31 CA        -14.1630   58.3740    2.5295 C.3       2 GLC5        0.0000 
     32 CA        -13.6550   59.4710    4.0960 C.3       6 GLL5        0.0000 
     33 CA        -14.6710   57.2770    0.9630 C.3       4 GLP5        0.0000 
     34 CA        -14.8020   58.5130    5.4430 C.3       2 GLC5        0.0000 
     35 CA        -15.0725   61.1535    4.4885 C.3       2 GLC5        0.0000 
     36 CA        -16.4900   62.8360    4.8810 C.3       4 GLP5        0.0000 
     37 CA        -13.5265   61.0075    2.9460 C.3       2 GLC5        0.0000 
     38 CA        -13.3980   62.5440    1.7960 C.3       4 GLP5        0.0000 
     39 O          -0.9075   59.8340   11.7095 O.2       1 ALC1        0.0000 
     40 O          -1.2360   60.7380   12.6050 O.2       5 ALL1        0.0000 
     41 O          -0.5790   58.9300   10.8140 O.2       3 ALP1        0.0000 
     42 CA          1.7000   61.6270   14.2540 C.3       2 GLC5        0.0000 
     43 CA         -0.3000   61.3920   13.5590 C.3       6 GLL5        0.0000 
     44 CA          3.7000   61.8620   14.9490 C.3       4 GLP5        0.0000 
     45 CA         -2.4900   65.1035    1.9610 C.3       2 GLC5        0.0000 
     46 CA         -2.1350   65.8060    3.5640 C.3       6 GLL5        0.0000 
     47 CA         -2.1670   64.4760    0.2420 C.3       4 GLP5        0.0000 
     48 CA         -5.0348   66.3330    4.9460 C.3       2 GLC5        0.0000 
     49 CA         -3.4910   65.6560    3.7960 C.3       6 GLL5        0.0000 
     50 CA         -6.3650   67.4560    5.6090 C.3       4 GLP5        0.0000 
     51 CA         -3.5314   62.7104    4.3181 C.3       2 GLC5        0.0000 
     52 CA         -3.9180   64.7640    4.7700 C.3       6 GLL5        0.0000 
     53 CA         -4.4770   61.1610    3.4360 C.3       4 GLP5        0.0000 
     54 CA         -3.8653   61.7862    5.0040 C.3       2 GLC5        0.0000 
     55 CA         -3.5380   63.0400    6.5110 C.3       6 GLL5        0.0000 
     56 CA         -1.3153   60.2705    7.1193 C.3       2 GLC5        0.0000 
     57 CA         -2.9690   61.7830    6.6330 C.3       6 GLL5        0.0000 
     58 CA          0.5710   59.2100    7.1410 C.3       4 GLP5        0.0000 
     59 CA         -5.9459   60.7572    7.3164 C.3       2 GLC5        0.0000 
     60 CA         -8.8050   59.4250   11.9653 C.3       2 GLC5        0.0000 
     61 CA         -7.5870   60.6850   10.5280 C.3       6 GLL5        0.0000 
     62 CA         -9.7620   58.8060   13.4680 C.3       4 GLP5        0.0000 
     63 CA         -7.6105   59.9065    8.4763 C.3       2 GLC5        0.0000 
     64 CA         -8.1090   59.4030   10.3970 C.3       6 GLL5        0.0000 
     65 CA         -8.5273   59.7722    8.0102 C.3       2 GLC5        0.0000 
     66 CA         -9.3290   59.2290    9.7690 C.3       6 GLL5        0.0000 
     67 CA        -10.4051   60.1731   11.1556 C.3       2 GLC5        0.0000 
     68 CA         -8.1292   60.7278    8.1080 C.3       2 GLC5        0.0000 
     69 CA         -9.4970   61.5990    9.4100 C.3       6 GLL5        0.0000 
     70 CA        -11.1931   61.8402    6.7785 C.3       2 GLC5        0.0000 
     71 CA        -10.4730   63.7720    6.4660 C.3       4 GLP5        0.0000 
     72 CA        -11.9956   57.8990    6.2252 C.3       2 GLC5        0.0000 
     73 CA        -11.8920   56.1020    6.6650 C.3       4 GLP5        0.0000 
     74 CA        -11.6822   58.5975    3.2130 C.3       2 GLC5        0.0000 
     75 CA        -10.3720   57.6870    1.9500 C.3       4 GLP5        0.0000 
     76 CA          2.5267   58.2078   16.8400 C.3       2 GLC5        0.0000 
     77 CA          1.3660   58.7150   15.4440 C.3       6 GLL5        0.0000 
     78 CA          4.0660   57.4130   17.7560 C.3       4 GLP5        0.0000 
     79 CA          2.3438   60.4322   15.4365 C.3       2 GLC5        0.0000 
@<TRIPOS>BOND
@<TRIPOS>SUBSTRUCTURE
     1 ALC1       39 GROUP        1 X    ALC  0     ROOT ALC X 1
     2 GLC5        1 GROUP        1 X    GLC  0     **** GLC X 6
     3 ALP1       41 GROUP        1 Y    ALP  0     ROOT ALP Y 8
     4 GLP5        3 GROUP        1 Y    GLP  0     **** GLP Y 13
     5 ALL1       40 GROUP        1 Z    ALL  0     ROOT ALL Z 15
     6 GLL5        2 GROUP        1 Z    GLL  0     **** GLL Z 20
@<TRIPOS>SET

