#    Name: 2bju_IH4_1_ligand
#    Modification time : Mon Mar 24 21:07:21 2014

@<TRIPOS>MOLECULE
2bju_IH4_1_ligand
   89    93     1     0     0
SMALL
NO_CHARGES


@<TRIPOS>ATOM
      1 O27        -0.8910   68.9470    3.2560 O.2       1 IH41330     0.0000 
      2 C26        -1.8400   68.2670    2.8570 C.2       1 IH41330     0.0000 
      3 O28        -3.0220   68.8790    2.5530 O.3       1 IH41330     0.0000 
      4 C29        -3.0090   70.2800    2.8640 C.3       1 IH41330     0.0000 
      5 C25        -1.6310   66.7920    2.5170 C.3       1 IH41330     0.0000 
      6 C24        -2.1350   65.8060    3.5640 C.ar      1 IH41330     0.0000 
      7 C30        -3.4910   65.6560    3.7960 C.ar      1 IH41330     0.0000 
      8 C31        -3.9180   64.7640    4.7700 C.ar      1 IH41330     0.0000 
      9 C23        -1.2410   65.0330    4.2950 C.ar      1 IH41330     0.0000 
     10 C22        -1.6910   64.1420    5.2570 C.ar      1 IH41330     0.0000 
     11 C21        -3.0430   63.9910    5.5170 C.ar      1 IH41330     0.0000 
     12 C20        -3.5380   63.0400    6.5110 C.ar      1 IH41330     0.0000 
     13 C32        -2.9690   61.7830    6.6330 C.ar      1 IH41330     0.0000 
     14 C33        -3.4340   60.8790    7.5620 C.ar      1 IH41330     0.0000 
     15 C19        -4.5980   63.3510    7.3690 C.ar      1 IH41330     0.0000 
     16 C18        -5.0780   62.4550    8.3000 C.ar      1 IH41330     0.0000 
     17 C17        -4.4850   61.1930    8.4090 C.ar      1 IH41330     0.0000 
     18 C16        -4.9520   60.1540    9.4040 C.3       1 IH41330     0.0000 
     19 N3         -5.0380   60.7340   10.7380 N.am      1 IH41330     0.0000 
     20 C2         -6.3330   60.9490   11.3390 C.2       1 IH41330     0.0000 
     21 C34        -7.5870   60.6850   10.5280 C.ar      1 IH41330     0.0000 
     22 C35        -8.1090   59.4030   10.3970 C.ar      1 IH41330     0.0000 
     23 C36        -9.3290   59.2290    9.7690 C.ar      1 IH41330     0.0000 
     24 C37       -10.0340   60.3220    9.2920 C.ar      1 IH41330     0.0000 
     25 C43        -9.4970   61.5990    9.4100 C.ar      1 IH41330     0.0000 
     26 C44        -8.2740   61.7740   10.0420 C.ar      1 IH41330     0.0000 
     27 C38       -11.3810   60.1450    8.5830 C.3       1 IH41330     0.0000 
     28 C39       -11.2020   59.8990    7.0790 C.3       1 IH41330     0.0000 
     29 C40       -12.5350   59.7950    6.3510 C.3       1 IH41330     0.0000 
     30 C41       -12.3300   59.5450    4.8560 C.3       1 IH41330     0.0000 
     31 C42       -13.6550   59.4710    4.0960 C.3       1 IH41330     0.0000 
     32 O1         -6.4380   61.3570   12.5140 O.2       1 IH41330     0.0000 
     33 C4         -3.8760   61.0000   11.5890 C.3       1 IH41330     0.0000 
     34 C5         -3.4970   59.7310   12.3300 C.3       1 IH41330     0.0000 
     35 C6         -2.3740   60.1040   13.3230 C.3       1 IH41330     0.0000 
     36 N7         -1.2360   60.7380   12.6050 N.4       1 IH41330     0.0000 
     37 C14        -1.6340   61.8880   11.7690 C.3       1 IH41330     0.0000 
     38 C15        -2.7030   61.4740   10.7650 C.3       1 IH41330     0.0000 
     39 C8         -0.3000   61.3920   13.5590 C.3       1 IH41330     0.0000 
     40 C9          0.2830   60.3450   14.4860 C.2       1 IH41330     0.0000 
     41 N10        -0.0690   60.3280   15.8140 N.pl3     1 IH41330     0.0000 
     42 C11         0.6090   59.2900   16.4040 C.2       1 IH41330     0.0000 
     43 C12         1.3660   58.7150   15.4440 C.2       1 IH41330     0.0000 
     44 N13         1.1930   59.3620   14.2420 N.2       1 IH41330     0.0000 
     45 H          -0.5494   66.6157    2.3502 H         1 IH41330     0.0000 
     46 H          -2.1307   66.5757    1.5515 H         1 IH41330     0.0000 
     47 H          -4.1737   66.1965    3.2559 H         1 IH41330     0.0000 
     48 H          -4.9481   64.6714    4.9479 H         1 IH41330     0.0000 
     49 H          -0.2249   65.1249    4.1176 H         1 IH41330     0.0000 
     50 H          -1.0024   63.5785    5.7914 H         1 IH41330     0.0000 
     51 H          -2.1784   61.5212    6.0117 H         1 IH41330     0.0000 
     52 H          -2.9900   59.9407    7.6324 H         1 IH41330     0.0000 
     53 H          -5.0351   64.2971    7.2949 H         1 IH41330     0.0000 
     54 H          -5.8625   62.7027    8.9115 H         1 IH41330     0.0000 
     55 H          -4.2461   59.3153    9.3895 H         1 IH41330     0.0000 
     56 H          -5.9290   59.7760    9.0807 H         1 IH41330     0.0000 
     57 H          -7.5924   58.5971   10.7632 H         1 IH41330     0.0000 
     58 H          -9.7177   58.2786    9.6545 H         1 IH41330     0.0000 
     59 H         -10.0034   62.4074    9.0312 H         1 IH41330     0.0000 
     60 H          -7.8838   62.7234   10.1451 H         1 IH41330     0.0000 
     61 H         -11.9833   61.0432    8.7285 H         1 IH41330     0.0000 
     62 H         -11.9089   59.2974    9.0229 H         1 IH41330     0.0000 
     63 H         -10.6376   58.9722    6.9365 H         1 IH41330     0.0000 
     64 H         -10.6190   60.7213    6.6526 H         1 IH41330     0.0000 
     65 H         -13.0937   60.7221    6.4844 H         1 IH41330     0.0000 
     66 H         -13.1153   58.9740    6.7738 H         1 IH41330     0.0000 
     67 H         -11.7867   58.6048    4.7213 H         1 IH41330     0.0000 
     68 H         -11.7218   60.3528    4.4379 H         1 IH41330     0.0000 
     69 H          -4.1161   61.7576   12.3209 H         1 IH41330     0.0000 
     70 H          -3.1248   58.9986   11.6407 H         1 IH41330     0.0000 
     71 H          -4.3397   59.3590   12.8792 H         1 IH41330     0.0000 
     72 H          -2.0487   59.1945   13.8277 H         1 IH41330     0.0000 
     73 H          -2.7871   60.7878   14.0643 H         1 IH41330     0.0000 
     74 H          -0.6923   60.0410   12.0192 H         1 IH41330     0.0000 
     75 H          -0.7724   62.2776   11.2193 H         1 IH41330     0.0000 
     76 H          -2.0344   62.6931   12.3917 H         1 IH41330     0.0000 
     77 H          -2.9865   62.3208   10.1751 H         1 IH41330     0.0000 
     78 H          -2.3328   60.6739   10.1583 H         1 IH41330     0.0000 
     79 H          -0.8276   62.1372   14.1511 H         1 IH41330     0.0000 
     80 H           0.5093   61.8778   13.0173 H         1 IH41330     0.0000 
     81 H          -0.6701   60.9241   16.2438 H         1 IH41330     0.0000 
     82 H           0.5481   59.0340   17.3189 H         1 IH41330     0.0000 
     83 H           1.9553   57.9503   15.5708 H         1 IH41330     0.0000 
     84 H          -2.8394   70.4431    3.8359 H         1 IH41330     0.0000 
     85 H          -2.2977   70.7665    2.3567 H         1 IH41330     0.0000 
     86 H          -3.8798   70.7181    2.6408 H         1 IH41330     0.0000 
     87 H         -13.5143   59.3114    3.1189 H         1 IH41330     0.0000 
     88 H         -14.2358   58.7302    4.4334 H         1 IH41330     0.0000 
     89 H         -14.1803   60.3176    4.1820 H         1 IH41330     0.0000 
@<TRIPOS>BOND
     1    2    1 2    
     2    3    2 1    
     3    5    2 1    
     4    4    3 1    
     5   84    4 1    
     6   85    4 1    
     7   86    4 1    
     8    6    5 1    
     9   45    5 1    
    10   46    5 1    
    11    7    6 ar   
    12    9    6 ar   
    13    8    7 ar   
    14   47    7 1    
    15   11    8 ar   
    16   48    8 1    
    17   10    9 ar   
    18   49    9 1    
    19   11   10 ar   
    20   50   10 1    
    21   12   11 1    
    22   13   12 ar   
    23   15   12 ar   
    24   14   13 ar   
    25   51   13 1    
    26   17   14 ar   
    27   52   14 1    
    28   16   15 ar   
    29   53   15 1    
    30   17   16 ar   
    31   54   16 1    
    32   18   17 1    
    33   19   18 1    
    34   55   18 1    
    35   56   18 1    
    36   20   19 am   
    37   33   19 1    
    38   21   20 1    
    39   32   20 2    
    40   22   21 ar   
    41   26   21 ar   
    42   23   22 ar   
    43   57   22 1    
    44   24   23 ar   
    45   58   23 1    
    46   25   24 ar   
    47   27   24 1    
    48   26   25 ar   
    49   59   25 1    
    50   60   26 1    
    51   28   27 1    
    52   61   27 1    
    53   62   27 1    
    54   29   28 1    
    55   63   28 1    
    56   64   28 1    
    57   30   29 1    
    58   65   29 1    
    59   66   29 1    
    60   31   30 1    
    61   67   30 1    
    62   68   30 1    
    63   87   31 1    
    64   88   31 1    
    65   89   31 1    
    66   34   33 1    
    67   38   33 1    
    68   69   33 1    
    69   35   34 1    
    70   70   34 1    
    71   71   34 1    
    72   36   35 1    
    73   72   35 1    
    74   73   35 1    
    75   37   36 1    
    76   39   36 1    
    77   74   36 1    
    78   38   37 1    
    79   75   37 1    
    80   76   37 1    
    81   77   38 1    
    82   78   38 1    
    83   40   39 1    
    84   79   39 1    
    85   80   39 1    
    86   41   40 1    
    87   44   40 2    
    88   42   41 1    
    89   81   41 1    
    90   43   42 2    
    91   82   42 1    
    92   44   43 1    
    93   83   43 1    
@<TRIPOS>SUBSTRUCTURE
     1 IH41330     1 GROUP   
@<TRIPOS>SET

