#    Name: 1g1a_NAD_3_INTS_M
#    Modification time : Tue Mar 25 02:17:34 2014

@<TRIPOS>MOLECULE
1g1a_NAD_3_INTS_M
  107     0     9     0     0
SMALL
NO_CHARGES


@<TRIPOS>ATOM
      1 N           1.6630    1.7885   78.3810 N.am      2 SEC2        0.0000 
      2 N           1.3740    3.2470   78.2800 N.am      8 SEL2        0.0000 
      3 N           1.9520    0.3300   78.4820 N.am      5 SEP2        0.0000 
      4 N           0.5665    6.7230   79.6900 N.am      2 SEC2        0.0000 
      5 N           0.9100    5.5500   79.0310 N.am      8 SEL2        0.0000 
      6 N           0.2230    7.8960   80.3490 N.am      5 SEP2        0.0000 
      7 CA         -0.3340    4.7610   81.0630 C.3       3 GLC5        0.0000 
      8 CA          1.7200    4.5580   81.9440 C.3       9 GLL5        0.0000 
      9 CA         -2.3880    4.9640   80.1820 C.3       6 GLP5        0.0000 
     10 CA          2.5750    2.6750   84.3150 C.3       3 GLC5        0.0000 
     11 CA          1.3630    3.6520   83.1250 C.3       9 GLL5        0.0000 
     12 CA          3.7870    1.6980   85.5050 C.3       6 GLP5        0.0000 
     13 O          -0.7010    1.6220   84.8780 O.2       1 ALC1        0.0000 
     14 O          -0.1940    1.7680   83.3280 O.2       7 ALL1        0.0000 
     15 O          -1.2080    1.4760   86.4280 O.2       4 ALP1        0.0000 
     16 O           0.2560    1.2585   84.4630 O.2       1 ALC1        0.0000 
     17 O           0.7060    0.7490   85.5980 O.2       4 ALP1        0.0000 
     18 CA         -2.1655    5.4940   84.9425 C.3       3 GLC5        0.0000 
     19 CA         -0.6990    4.1200   84.2210 C.3       9 GLL5        0.0000 
     20 CA         -3.6320    6.8680   85.6640 C.3       6 GLP5        0.0000 
     21 N          -2.6695    4.7765   84.1675 N.am      2 SEC2        0.0000 
     22 N          -1.8530    3.5740   84.9160 N.am      8 SEL2        0.0000 
     23 N          -3.4860    5.9790   83.4190 N.am      5 SEP2        0.0000 
     24 N          -3.2165    3.8645   85.1600 N.am      2 SEC2        0.0000 
     25 N          -4.5800    4.1550   85.4040 N.am      5 SEP2        0.0000 
     26 O          -1.5305    2.5250   85.6720 O.2       1 ALC1        0.0000 
     27 O          -1.8530    3.5740   84.9160 O.2       7 ALL1        0.0000 
     28 CA          2.1135    3.0005   85.3465 C.3       3 GLC5        0.0000 
     29 CA          0.4400    4.3030   85.1880 C.3       9 GLL5        0.0000 
     30 CA          0.1440    6.7325   90.9910 C.3       3 GLC5        0.0000 
     31 CA          0.7030    7.4060   88.9260 C.3       9 GLL5        0.0000 
     32 CA         -0.4150    6.0590   93.0560 C.3       6 GLP5        0.0000 
     33 CA          2.3300    7.8145   90.0045 C.3       3 GLC5        0.0000 
     34 CA          3.9570    8.2230   91.0830 C.3       6 GLP5        0.0000 
     35 O           0.4020    8.7130   90.8870 O.2       1 ALC1        0.0000 
     36 O           0.5780    8.6820   89.3410 O.2       7 ALL1        0.0000 
     37 O           0.2260    8.7440   92.4330 O.2       4 ALP1        0.0000 
     38 O           0.5580    9.9550   88.5330 O.2       1 ALC1        0.0000 
     39 O           0.5380   11.2280   87.7250 O.2       4 ALP1        0.0000 
     40 N           1.5065    6.5140   91.2615 N.am      2 SEC2        0.0000 
     41 N           1.0670    6.4130   89.8230 N.am      8 SEL2        0.0000 
     42 N           1.9460    6.6150   92.7000 N.am      5 SEP2        0.0000 
     43 CA          0.7585    3.0315   89.2010 C.3       3 GLC5        0.0000 
     44 CA          1.1800    5.1040   89.3610 C.3       9 GLL5        0.0000 
     45 CA          0.3370    0.9590   89.0410 C.3       6 GLP5        0.0000 
     46 CA         -0.6780    4.9095   89.7170 C.3       3 GLC5        0.0000 
     47 CA         -2.5360    4.7150   90.0730 C.3       6 GLP5        0.0000 
     48 CA          0.3825    5.5815   91.2085 C.3       3 GLC5        0.0000 
     49 CA          2.7225    5.4120   90.2820 C.3       3 GLC5        0.0000 
     50 CA          4.2650    5.7200   91.2030 C.3       6 GLP5        0.0000 
     51 CA          2.8190    5.1845   88.1775 C.3       3 GLC5        0.0000 
     52 CA          4.4580    5.2650   86.9940 C.3       6 GLP5        0.0000 
     53 N          -0.1725    3.6885   88.7115 N.am      2 SEC2        0.0000 
     54 N           0.9790    4.6510   88.1370 N.am      8 SEL2        0.0000 
     55 N          -1.3240    2.7260   89.2860 N.am      5 SEP2        0.0000 
     56 CA         -0.9950    5.6360   88.0710 C.3       3 GLC5        0.0000 
     57 CA          0.6280    5.6730   87.2680 C.3       9 GLL5        0.0000 
     58 CA         -2.6180    5.5990   88.8740 C.3       6 GLP5        0.0000 
     59 N           4.6130    1.2985   77.9250 N.am      2 SEC2        0.0000 
     60 N           4.3710    2.6290   78.2020 N.am      8 SEL2        0.0000 
     61 N           4.8550   -0.0320   77.6480 N.am      5 SEP2        0.0000 
     62 CA          9.5135    4.7535   80.3580 C.3       3 GLC5        0.0000 
     63 CA          7.5450    5.0750   80.1900 C.3       9 GLL5        0.0000 
     64 CA         11.4820    4.4320   80.5260 C.3       6 GLP5        0.0000 
     65 N           8.7395    8.3640   82.0115 N.am      2 SEC2        0.0000 
     66 N           8.0420    7.0970   81.6290 N.am      8 SEL2        0.0000 
     67 N           9.4370    9.6310   82.3940 N.am      5 SEP2        0.0000 
     68 CA          8.6135    8.9120   80.2195 C.3       3 GLC5        0.0000 
     69 CA          7.6160    7.2540   79.1920 C.3       9 GLL5        0.0000 
     70 CA          9.6110   10.5700   81.2470 C.3       6 GLP5        0.0000 
     71 CA          8.2700    4.5315   77.5425 C.3       3 GLC5        0.0000 
     72 CA          8.6580    6.3760   78.6330 C.3       9 GLL5        0.0000 
     73 CA          7.8820    2.6870   76.4520 C.3       6 GLP5        0.0000 
     74 CA         10.0700    5.4040   79.5795 C.3       3 GLC5        0.0000 
     75 N           7.8365    4.7820   71.7870 N.am      2 SEC2        0.0000 
     76 N           7.1560    5.7060   72.8290 N.am      8 SEL2        0.0000 
     77 N           8.5170    3.8580   70.7450 N.am      5 SEP2        0.0000 
     78 CA          9.2825    6.2255   72.1055 C.3       3 GLC5        0.0000 
     79 CA          9.0640    6.5640   74.3050 C.3       9 GLL5        0.0000 
     80 CA          9.5010    5.8870   69.9060 C.3       6 GLP5        0.0000 
     81 CA          1.0134    1.9515   81.8191 C.3       3 GLC5        0.0000 
     82 CA         -0.1060    3.2050   83.1220 C.3       9 GLL5        0.0000 
     83 CA          1.3090    0.2480   80.8100 C.3       6 GLP5        0.0000 
     84 CA         -1.3952    4.3133   81.9267 C.3       3 GLC5        0.0000 
     85 CA         -1.8113    2.3048   83.0162 C.3       3 GLC5        0.0000 
     86 CA         -3.2200    0.9470   82.3610 C.3       6 GLP5        0.0000 
     87 CA         -1.0238    7.1322   88.7680 C.3       3 GLC5        0.0000 
     88 CA          0.4740    7.0210   87.5780 C.3       9 GLL5        0.0000 
     89 CA         -2.6360    7.0510   89.2840 C.3       6 GLP5        0.0000 
     90 CA          2.5045    5.8060   87.2085 C.3       3 GLC5        0.0000 
     91 CA          1.5657    8.6668   87.5655 C.3       3 GLC5        0.0000 
     92 CA          2.5430   10.1200   86.8790 C.3       6 GLP5        0.0000 
     93 CA          7.3985    3.6858   78.2680 C.3       3 GLC5        0.0000 
     94 CA          6.2850    4.2940   79.9780 C.3       9 GLL5        0.0000 
     95 CA          7.4575    3.6272   81.7020 C.3       3 GLC5        0.0000 
     96 CA          8.0000    2.5700   83.3200 C.3       6 GLP5        0.0000 
     97 CA          6.4287    7.8135   81.3108 C.3       3 GLC5        0.0000 
     98 CA          7.3190    6.5700   80.5190 C.3       9 GLL5        0.0000 
     99 CA          5.3900    8.7150   82.7660 C.3       6 GLP5        0.0000 
    100 CA          7.8310    4.3782   76.1132 C.3       3 GLC5        0.0000 
    101 CA          7.7180    6.0660   76.4980 C.3       9 GLL5        0.0000 
    102 CA         10.5295    8.7155   76.0747 C.3       3 GLC5        0.0000 
    103 CA         10.1650    7.0560   75.2900 C.3       9 GLL5        0.0000 
    104 CA         10.9280   10.3850   76.1890 C.3       6 GLP5        0.0000 
    105 CA         11.1404    5.7930   75.5601 C.3       3 GLC5        0.0000 
    106 CA         10.0970    7.0360   76.6310 C.3       9 GLL5        0.0000 
    107 CA         12.4250    4.6630   75.4060 C.3       6 GLP5        0.0000 
@<TRIPOS>BOND
@<TRIPOS>SUBSTRUCTURE
     1 ALC1       13 GROUP        1 X    ALC  0     ROOT ALC X 1
     2 SEC2        1 GROUP        1 X    SEC  0     **** SEC X 2
     3 GLC5        7 GROUP        1 X    GLC  0     **** GLC X 6
     4 ALP1       15 GROUP        1 Y    ALP  0     ROOT ALP Y 8
     5 SEP2        3 GROUP        1 Y    SEP  0     **** SEP Y 9
     6 GLP5        9 GROUP        1 Y    GLP  0     **** GLP Y 13
     7 ALL1       14 GROUP        1 Z    ALL  0     ROOT ALL Z 15
     8 SEL2        2 GROUP        1 Z    SEL  0     **** SEL Z 16
     9 GLL5        8 GROUP        1 Z    GLL  0     **** GLL Z 20
@<TRIPOS>SET

