#    Name: 1g1a_NAD_3_ligand
#    Modification time : Tue Mar 25 02:17:34 2014

@<TRIPOS>MOLECULE
1g1a_NAD_3_ligand
   70    74     1     0     0
SMALL
NO_CHARGES


@<TRIPOS>ATOM
      1 PA          1.7250    4.3340   79.2770 P.3       1 NAD600      0.0000 
      2 O1A         1.3740    3.2470   78.2800 O.co2     1 NAD600      0.0000 
      3 O2A         0.9100    5.5500   79.0310 O.co2     1 NAD600      0.0000 
      4 O5B         1.4830    3.7640   80.7510 O.3       1 NAD600      0.0000 
      5 C5B         1.7200    4.5580   81.9440 C.3       1 NAD600      0.0000 
      6 C4B         1.3630    3.6520   83.1250 C.3       1 NAD600      0.0000 
      7 O4B         1.5990    4.3190   84.4270 O.3       1 NAD600      0.0000 
      8 C3B        -0.1060    3.2050   83.1220 C.3       1 NAD600      0.0000 
      9 O3B        -0.1940    1.7680   83.3280 O.3       1 NAD600      0.0000 
     10 C2B        -0.6990    4.1200   84.2210 C.3       1 NAD600      0.0000 
     11 O2B        -1.8530    3.5740   84.9160 O.3       1 NAD600      0.0000 
     12 C1B         0.4400    4.3030   85.1880 C.3       1 NAD600      0.0000 
     13 N9A         0.3670    5.5560   85.9000 N.pl3     1 NAD600      0.0000 
     14 C8A         0.0630    6.8230   85.4690 C.2       1 NAD600      0.0000 
     15 N7A         0.1140    7.7550   86.4620 N.2       1 NAD600      0.0000 
     16 C5A         0.4740    7.0210   87.5780 C.ar      1 NAD600      0.0000 
     17 C6A         0.7030    7.4060   88.9260 C.ar      1 NAD600      0.0000 
     18 N6A         0.5780    8.6820   89.3410 N.pl3     1 NAD600      0.0000 
     19 N1A         1.0670    6.4130   89.8230 N.ar      1 NAD600      0.0000 
     20 C2A         1.1800    5.1040   89.3610 C.ar      1 NAD600      0.0000 
     21 N3A         0.9790    4.6510   88.1370 N.ar      1 NAD600      0.0000 
     22 C4A         0.6280    5.6730   87.2680 C.ar      1 NAD600      0.0000 
     23 O3          3.2240    4.6970   79.1550 O.3       1 NAD600      0.0000 
     24 PN          4.3460    4.1440   78.2020 P.3       1 NAD600      0.0000 
     25 O1N         4.3710    2.6290   78.2020 O.co2     1 NAD600      0.0000 
     26 O2N         4.0810    4.6390   76.8510 O.co2     1 NAD600      0.0000 
     27 O5D         5.7330    4.7150   78.7280 O.3       1 NAD600      0.0000 
     28 C5D         6.2850    4.2940   79.9780 C.3       1 NAD600      0.0000 
     29 C4D         7.5450    5.0750   80.1900 C.3       1 NAD600      0.0000 
     30 O4D         8.3080    5.0600   78.9460 O.3       1 NAD600      0.0000 
     31 C3D         7.3190    6.5700   80.5190 C.3       1 NAD600      0.0000 
     32 O3D         8.0420    7.0970   81.6290 O.3       1 NAD600      0.0000 
     33 C2D         7.6160    7.2540   79.1920 C.3       1 NAD600      0.0000 
     34 O2D         8.0950    8.5740   79.4280 O.3       1 NAD600      0.0000 
     35 C1D         8.6580    6.3760   78.6330 C.3       1 NAD600      0.0000 
     36 N1N         8.8560    6.5180   77.1820 N.pl3     1 NAD600      0.0000 
     37 C2N         7.7180    6.0660   76.4980 C.ar      1 NAD600      0.0000 
     38 C3N         7.8420    6.0730   75.0510 C.ar      1 NAD600      0.0000 
     39 C7N         6.7870    5.5980   74.0390 C.2       1 NAD600      0.0000 
     40 O7N         7.1560    5.7060   72.8290 O.2       1 NAD600      0.0000 
     41 N7N         5.5920    5.1250   74.4440 N.am      1 NAD600      0.0000 
     42 C4N         9.0640    6.5640   74.3050 C.ar      1 NAD600      0.0000 
     43 C5N        10.1650    7.0560   75.2900 C.ar      1 NAD600      0.0000 
     44 C6N        10.0970    7.0360   76.6310 C.ar      1 NAD600      0.0000 
     45 H           1.0832    5.4257   81.9760 H         1 NAD600      0.0000 
     46 H           2.7551    4.8412   82.0330 H         1 NAD600      0.0000 
     47 H           1.9759    2.7527   83.0788 H         1 NAD600      0.0000 
     48 H          -0.5128    3.5265   82.1795 H         1 NAD600      0.0000 
     49 H          -0.9023    5.0754   83.7738 H         1 NAD600      0.0000 
     50 H           0.4405    3.4741   85.8726 H         1 NAD600      0.0000 
     51 H          -0.1694    7.0336   84.5300 H         1 NAD600      0.0000 
     52 H           0.7584    8.8491   90.3103 H         1 NAD600      0.0000 
     53 H           0.3160    9.3481   88.6427 H         1 NAD600      0.0000 
     54 H           1.4738    4.3789   90.1296 H         1 NAD600      0.0000 
     55 H           6.5276    3.2329   79.9706 H         1 NAD600      0.0000 
     56 H           5.6047    4.4957   80.8034 H         1 NAD600      0.0000 
     57 H           8.1315    4.6429   80.9736 H         1 NAD600      0.0000 
     58 H           6.2204    6.6694   80.6555 H         1 NAD600      0.0000 
     59 H           6.7461    7.2066   78.6009 H         1 NAD600      0.0000 
     60 H           9.6103    6.6226   79.1400 H         1 NAD600      0.0000 
     61 H           6.8974    5.7659   76.9360 H         1 NAD600      0.0000 
     62 H           5.4501    5.0764   75.4327 H         1 NAD600      0.0000 
     63 H           4.9534    4.8647   73.7198 H         1 NAD600      0.0000 
     64 H           9.1645    6.5790   73.3969 H         1 NAD600      0.0000 
     65 H          11.0136    7.4258   74.7761 H         1 NAD600      0.0000 
     66 H          10.8131    7.3409   77.2498 H         1 NAD600      0.0000 
     67 H           0.2024    1.6116   84.2326 H         1 NAD600      0.0000 
     68 H          -1.4897    3.2081   85.7728 H         1 NAD600      0.0000 
     69 H           8.8681    6.5367   81.6891 H         1 NAD600      0.0000 
     70 H           8.1922    8.6402   80.4210 H         1 NAD600      0.0000 
@<TRIPOS>BOND
     1    2    1 ar   
     2    3    1 ar   
     3    4    1 1    
     4   23    1 1    
     5    5    4 1    
     6    6    5 1    
     7   45    5 1    
     8   46    5 1    
     9    7    6 1    
    10    8    6 1    
    11   47    6 1    
    12   12    7 1    
    13    9    8 1    
    14   10    8 1    
    15   48    8 1    
    16   67    9 1    
    17   11   10 1    
    18   12   10 1    
    19   49   10 1    
    20   68   11 1    
    21   13   12 1    
    22   50   12 1    
    23   14   13 1    
    24   22   13 1    
    25   15   14 2    
    26   51   14 1    
    27   16   15 1    
    28   17   16 ar   
    29   22   16 ar   
    30   18   17 1    
    31   19   17 ar   
    32   52   18 1    
    33   53   18 1    
    34   20   19 ar   
    35   21   20 ar   
    36   54   20 1    
    37   22   21 ar   
    38   24   23 1    
    39   25   24 ar   
    40   26   24 ar   
    41   27   24 1    
    42   28   27 1    
    43   29   28 1    
    44   55   28 1    
    45   56   28 1    
    46   30   29 1    
    47   31   29 1    
    48   57   29 1    
    49   35   30 1    
    50   32   31 1    
    51   33   31 1    
    52   58   31 1    
    53   69   32 1    
    54   34   33 1    
    55   35   33 1    
    56   59   33 1    
    57   70   34 1    
    58   36   35 1    
    59   60   35 1    
    60   37   36 ar   
    61   44   36 ar   
    62   38   37 ar   
    63   61   37 1    
    64   39   38 1    
    65   42   38 ar   
    66   40   39 2    
    67   41   39 am   
    68   62   41 1    
    69   63   41 1    
    70   43   42 ar   
    71   64   42 1    
    72   44   43 ar   
    73   65   43 1    
    74   66   44 1    
@<TRIPOS>SUBSTRUCTURE
     1 NAD600      1 GROUP   
@<TRIPOS>SET

