#    Name: 4knn_E1F_2_INTS_M
#    Modification time : Tue Mar 25 08:06:51 2014

@<TRIPOS>MOLECULE
4knn_E1F_2_INTS_M
   50     0    12     0     0
SMALL
NO_CHARGES


@<TRIPOS>ATOM
      1 N          -3.2520   -4.8320   16.4165 N.am      2 SEC2        0.0000 
      2 N          -4.5310   -5.3950   16.7490 N.am     10 SEL2        0.0000 
      3 N          -1.9730   -4.2690   16.0840 N.am      6 SEP2        0.0000 
      4 CA        -13.6615    0.5730   21.9060 C.3       4 GLC5        0.0000 
      5 CA        -12.8810    2.2500   20.6770 C.3      12 GLL5        0.0000 
      6 CA        -14.4420   -1.1040   23.1350 C.3       8 GLP5        0.0000 
      7 CA         -5.4970   -1.0690   19.3470 C.3       4 GLC5        0.0000 
      8 CA         -7.4100   -1.0020   18.4710 C.3      12 GLL5        0.0000 
      9 CA         -3.5840   -1.1360   20.2230 C.3       8 GLP5        0.0000 
     10 CA         -8.4610   -4.9395   19.7660 C.3       4 GLC5        0.0000 
     11 CA         -6.5110   -5.0320   19.2150 C.3      12 GLL5        0.0000 
     12 CA        -10.4110   -4.8470   20.3170 C.3       8 GLP5        0.0000 
     13 CA         -6.4805   -4.8440   21.2990 C.3       4 GLC5        0.0000 
     14 CA         -6.4500   -4.6560   23.3830 C.3       8 GLP5        0.0000 
     15 CA         -7.1005   -6.5845   19.0385 C.3       4 GLC5        0.0000 
     16 CA         -7.6900   -8.1370   18.8620 C.3       8 GLP5        0.0000 
     17 CA         -5.1040   -4.2520   20.1290 C.3       4 GLC5        0.0000 
     18 CA         -3.6970   -3.4720   21.0430 C.3       8 GLP5        0.0000 
     19 CA         -5.2630   -6.1585   20.1695 C.3       4 GLC5        0.0000 
     20 CA         -4.0150   -7.2850   21.1240 C.3       8 GLP5        0.0000 
     21 CA         -8.8165   -3.5645   19.6930 C.3       4 GLC5        0.0000 
     22 CA         -7.2220   -2.2820   19.0690 C.3      12 GLL5        0.0000 
     23 O          -4.1610   -4.2920   13.9380 O.2       1 ALC1        0.0000 
     24 O          -5.3040   -4.1320   14.5630 O.2       9 ALL1        0.0000 
     25 O          -3.0180   -4.4520   13.3130 O.2       5 ALP1        0.0000 
     26 Zn         -6.0485   -4.3615   13.8590 Zn        3 ZIC7        0.0000 
     27 Zn         -5.3040   -4.1320   14.5630 Zn       11 ZIL7        0.0000 
     28 Zn         -6.7930   -4.5910   13.1550 Zn        7 ZIP7        0.0000 
     29 CA        -10.4780   -2.9035   20.1955 C.3       4 GLC5        0.0000 
     30 CA        -10.5450   -0.9600   20.0740 C.3      12 GLL5        0.0000 
     31 N         -13.1025    0.5945   21.8855 N.am      2 SEC2        0.0000 
     32 N         -12.3620    0.9800   20.7670 N.am     10 SEL2        0.0000 
     33 N         -13.8430    0.2090   23.0040 N.am      6 SEP2        0.0000 
     34 N         -12.9455    1.6755   22.2400 N.am      2 SEC2        0.0000 
     35 N         -13.5290    2.3710   23.7130 N.am      6 SEP2        0.0000 
     36 CA         -8.4735   -4.2075   17.7402 C.3       4 GLC5        0.0000 
     37 CA         -6.7180   -3.4650   18.3700 C.3      12 GLL5        0.0000 
     38 CA        -10.3750   -5.0180   17.8010 C.3       8 GLP5        0.0000 
     39 CA         -5.1310   -2.8646   18.8311 C.3       4 GLC5        0.0000 
     40 CA         -6.4260   -3.3290   16.9890 C.3      12 GLL5        0.0000 
     41 CA         -3.5640   -2.6280   19.8080 C.3       8 GLP5        0.0000 
     42 CA         -5.2904   -1.1135   16.3276 C.3       4 GLC5        0.0000 
     43 CA         -3.9390    0.1930   15.7920 C.3       8 GLP5        0.0000 
     44 CA         -9.4783   -0.7737   21.6412 C.3       4 GLC5        0.0000 
     45 CA         -9.0020    0.0710   20.1890 C.3      12 GLL5        0.0000 
     46 CA         -9.1830   -1.1030   23.1510 C.3       8 GLP5        0.0000 
     47 CA        -12.6462   -1.0048   20.9803 C.3       4 GLC5        0.0000 
     48 CA        -14.3830   -1.8650   21.9210 C.3       8 GLP5        0.0000 
     49 CA        -12.0598   -0.9842   19.1263 C.3       4 GLC5        0.0000 
     50 CA        -13.2100   -1.8240   18.2130 C.3       8 GLP5        0.0000 
@<TRIPOS>BOND
@<TRIPOS>SUBSTRUCTURE
     1 ALC1       23 GROUP        1 X    ALC  0     ROOT ALC X 1
     2 SEC2        1 GROUP        1 X    SEC  0     **** SEC X 2
     3 ZIC7       26 GROUP        1 X    ZIC  0     **** ZIC X 5
     4 GLC5        4 GROUP        1 X    GLC  0     **** GLC X 6
     5 ALP1       25 GROUP        1 Y    ALP  0     ROOT ALP Y 8
     6 SEP2        3 GROUP        1 Y    SEP  0     **** SEP Y 9
     7 ZIP7       28 GROUP        1 Y    ZIP  0     **** ZIP Y 12
     8 GLP5        6 GROUP        1 Y    GLP  0     **** GLP Y 13
     9 ALL1       24 GROUP        1 Z    ALL  0     ROOT ALL Z 15
    10 SEL2        2 GROUP        1 Z    SEL  0     **** SEL Z 16
    11 ZIL7       27 GROUP        1 Z    ZIL  0     **** ZIL Z 19
    12 GLL5        5 GROUP        1 Z    GLL  0     **** GLL Z 20
@<TRIPOS>SET

