#    Name: 4knn_E1F_2_ligand
#    Modification time : Tue Mar 25 08:06:51 2014

@<TRIPOS>MOLECULE
4knn_E1F_2_ligand
   30    31     1     0     0
SMALL
NO_CHARGES


@<TRIPOS>ATOM
      1 O18        -4.5310   -5.3950   16.7490 O.2       1 E1F302      0.0000 
      2 C13       -12.8810    2.2500   20.6770 C.ar      1 E1F302      0.0000 
      3 C1         -7.4100   -1.0020   18.4710 C.ar      1 E1F302      0.0000 
      4 C2         -6.7180   -3.4650   18.3700 C.ar      1 E1F302      0.0000 
      5 CL1        -6.5110   -5.0320   19.2150 Cl        1 E1F302      0.0000 
      6 C21        -7.2220   -2.2820   19.0690 C.ar      1 E1F302      0.0000 
      7 C5         -7.1000   -0.9420   17.0870 C.ar      1 E1F302      0.0000 
      8 C4         -6.6150   -2.0800   16.3880 C.ar      1 E1F302      0.0000 
      9 C3         -6.4260   -3.3290   16.9890 C.ar      1 E1F302      0.0000 
     10 S16        -5.8110   -4.7350   16.0580 S.o2      1 E1F302      0.0000 
     11 N19        -5.3040   -4.1320   14.5630 N.pl3     1 E1F302      0.0000 
     12 O17        -6.9800   -5.6010   15.9160 O.2       1 E1F302      0.0000 
     13 C6         -7.9220    0.2360   19.1310 C.2       1 E1F302      0.0000 
     14 O12        -7.4180    1.3850   18.8650 O.2       1 E1F302      0.0000 
     15 C7         -9.0020    0.0710   20.1890 C.3       1 E1F302      0.0000 
     16 S8        -10.5450   -0.9600   20.0740 S.3       1 E1F302      0.0000 
     17 C9        -11.2740    0.6710   20.0050 C.ar      1 E1F302      0.0000 
     18 N11       -10.7380    1.6440   19.1630 N.ar      1 E1F302      0.0000 
     19 C14       -11.2300    2.8850   19.0320 C.ar      1 E1F302      0.0000 
     20 C15       -12.3340    3.2240   19.8280 C.ar      1 E1F302      0.0000 
     21 N10       -12.3620    0.9800   20.7670 N.ar      1 E1F302      0.0000 
     22 H         -13.7109    2.5104   21.2557 H         1 E1F302      0.0000 
     23 H          -7.4572   -2.4000   20.0813 H         1 E1F302      0.0000 
     24 H          -7.2289   -0.0572   16.5795 H         1 E1F302      0.0000 
     25 H          -6.3904   -1.9690   15.3725 H         1 E1F302      0.0000 
     26 H          -4.3506   -4.3079   14.3180 H         1 E1F302      0.0000 
     27 H          -9.4560    1.0721   20.5037 H         1 E1F302      0.0000 
     28 H          -8.5813   -0.3124   21.1807 H         1 E1F302      0.0000 
     29 H         -10.8408    3.5711   18.3924 H         1 E1F302      0.0000 
     30 H         -12.7309    4.1586   19.7906 H         1 E1F302      0.0000 
@<TRIPOS>BOND
     1   10    1 2    
     2   20    2 ar   
     3   21    2 ar   
     4   22    2 1    
     5    6    3 ar   
     6    7    3 ar   
     7   13    3 1    
     8    5    4 1    
     9    6    4 ar   
    10    9    4 ar   
    11   23    6 1    
    12    8    7 ar   
    13   24    7 1    
    14    9    8 ar   
    15   25    8 1    
    16   10    9 1    
    17   11   10 1    
    18   12   10 2    
    19   26   11 1    
    20   14   13 2    
    21   15   13 1    
    22   16   15 1    
    23   27   15 1    
    24   28   15 1    
    25   17   16 1    
    26   18   17 ar   
    27   21   17 ar   
    28   19   18 ar   
    29   20   19 ar   
    30   29   19 1    
    31   30   20 1    
@<TRIPOS>SUBSTRUCTURE
     1 E1F302      1 GROUP   
@<TRIPOS>SET

