#    Name: 3d4q_SM5_2_INTS_M
#    Modification time : Mon Mar 24 22:42:03 2014

@<TRIPOS>MOLECULE
3d4q_SM5_2_INTS_M
   54     0     6     0     0
SMALL
NO_CHARGES


@<TRIPOS>ATOM
      1 CA         58.1390   25.9600   -4.7520 C.3       2 GLC5        0.0000 
      2 CA         58.8440   26.4980   -2.9410 C.3       6 GLL5        0.0000 
      3 CA         57.4340   25.4220   -6.5630 C.3       4 GLP5        0.0000 
      4 CA         56.9800   25.3015   -1.4615 C.3       2 GLC5        0.0000 
      5 CA         58.9570   25.3800   -2.1040 C.3       6 GLL5        0.0000 
      6 CA         55.0030   25.2230   -0.8190 C.3       4 GLP5        0.0000 
      7 CA         65.0210   24.5915   -2.5190 C.3       2 GLC5        0.0000 
      8 CA         64.6240   26.0540   -1.4010 C.3       6 GLL5        0.0000 
      9 CA         65.4180   23.1290   -3.6370 C.3       4 GLP5        0.0000 
     10 CA         66.4930   25.5845   -2.3975 C.3       2 GLC5        0.0000 
     11 CA         68.3620   25.1150   -3.3940 C.3       4 GLP5        0.0000 
     12 CA         64.6200   26.3665    0.6780 C.3       2 GLC5        0.0000 
     13 CA         66.0080   27.6480   -0.4280 C.3       6 GLL5        0.0000 
     14 CA         63.2320   25.0850    1.7840 C.3       4 GLP5        0.0000 
     15 CA         66.9625   26.0385    0.5820 C.3       2 GLC5        0.0000 
     16 CA         67.9170   24.4290    1.5920 C.3       4 GLP5        0.0000 
     17 CA         67.6995   27.0950   -0.8070 C.3       2 GLC5        0.0000 
     18 CA         69.3910   26.5420   -1.1860 C.3       4 GLP5        0.0000 
     19 CA         59.1620   29.4135   -0.5855 C.3       2 GLC5        0.0000 
     20 CA         60.5100   30.4320   -1.6090 C.3       6 GLL5        0.0000 
     21 CA         57.8140   28.3950    0.4380 C.3       4 GLP5        0.0000 
     22 CA         60.6105   28.6085    0.1300 C.3       2 GLC5        0.0000 
     23 CA         61.3180   28.9570   -1.4990 C.3       6 GLL5        0.0000 
     24 CA         59.9030   28.2600    1.7590 C.3       4 GLP5        0.0000 
     25 N          67.1460   26.1155   -0.5680 N.am      1 SEC2        0.0000 
     26 N          65.8400   26.3570   -0.8610 N.am      5 SEL2        0.0000 
     27 N          68.4520   25.8740   -0.2750 N.am      3 SEP2        0.0000 
     28 CA         61.4905   24.5355    0.7310 C.3       2 GLC5        0.0000 
     29 CA         59.7490   23.9860   -0.3220 C.3       6 GLL5        0.0000 
     30 N          55.8295   23.9640   -2.9035 N.am      1 SEC2        0.0000 
     31 N          57.4290   24.1110   -3.1090 N.am      5 SEL2        0.0000 
     32 N          54.2300   23.8170   -2.6980 N.am      3 SEP2        0.0000 
     33 N          55.5250   23.3325   -2.8730 N.am      1 SEC2        0.0000 
     34 N          56.8200   22.8480   -3.0480 N.am      5 SEL2        0.0000 
     35 CA         58.5270   27.7332   -1.1982 C.3       2 GLC5        0.0000 
     36 CA         60.2717   27.6718    0.2730 C.3       2 GLC5        0.0000 
     37 CA         60.5720   27.6870   -1.6680 C.3       6 GLL5        0.0000 
     38 CA         61.7565   25.4920    0.4438 C.3       2 GLC5        0.0000 
     39 CA         60.7090   26.4800   -0.7580 C.3       6 GLL5        0.0000 
     40 CA         58.6095   26.8720   -0.5657 C.3       2 GLC5        0.0000 
     41 CA         59.8530   25.3180   -1.0350 C.3       6 GLL5        0.0000 
     42 CA         63.4385   29.6145    0.7837 C.3       2 GLC5        0.0000 
     43 CA         63.7210   28.3830   -1.0770 C.3       6 GLL5        0.0000 
     44 CA         62.5620   30.6660    2.3680 C.3       4 GLP5        0.0000 
     45 CA         61.7380   30.1803    0.4070 C.3       2 GLC5        0.0000 
     46 CA         63.5673   26.2706    0.2553 C.3       2 GLC5        0.0000 
     47 CA         58.5472   33.7707    0.1625 C.3       2 GLC5        0.0000 
     48 CA         59.6160   33.1560   -1.0860 C.3       6 GLL5        0.0000 
     49 CA         57.7170   33.6930    1.6400 C.3       4 GLP5        0.0000 
     50 CA         60.4862   22.0230   -0.9315 C.3       2 GLC5        0.0000 
     51 CA         61.8170   20.4520   -1.1100 C.3       4 GLP5        0.0000 
     52 CA         57.7458   24.1265    0.1404 C.3       2 GLC5        0.0000 
     53 CA         58.5620   23.2020   -1.1840 C.3       6 GLL5        0.0000 
     54 CA         56.3100   24.3260    1.2120 C.3       4 GLP5        0.0000 
@<TRIPOS>BOND
@<TRIPOS>SUBSTRUCTURE
     1 SEC2       25 GROUP        1 X    SEC  0     ROOT SEC X 2
     2 GLC5        1 GROUP        1 X    GLC  0     **** GLC X 6
     3 SEP2       27 GROUP        1 Y    SEP  0     ROOT SEP Y 9
     4 GLP5        3 GROUP        1 Y    GLP  0     **** GLP Y 13
     5 SEL2       26 GROUP        1 Z    SEL  0     ROOT SEL Z 16
     6 GLL5        2 GROUP        1 Z    GLL  0     **** GLL Z 20
@<TRIPOS>SET

