#    Name: 3d4q_SM5_2_ligand
#    Modification time : Mon Mar 24 22:42:03 2014

@<TRIPOS>MOLECULE
3d4q_SM5_2_ligand
   50    54     1     0     0
SMALL
NO_CHARGES


@<TRIPOS>ATOM
      1 C18        61.0790   32.8830   -1.5020 C.3       1 SM51        0.0000 
      2 N4         61.4330   31.4600   -1.4160 N.pl3     1 SM51        0.0000 
      3 C14        58.8440   26.4980   -2.9410 C.ar      1 SM51        0.0000 
      4 C13        59.6360   27.6450   -2.7280 C.ar      1 SM51        0.0000 
      5 C12        60.5720   27.6870   -1.6680 C.ar      1 SM51        0.0000 
      6 C17        60.7090   26.4800   -0.7580 C.ar      1 SM51        0.0000 
      7 C16        59.8530   25.3180   -1.0350 C.ar      1 SM51        0.0000 
      8 C15        58.9570   25.3800   -2.1040 C.ar      1 SM51        0.0000 
      9 C11        63.5440   27.0050   -1.5390 C.ar      1 SM51        0.0000 
     10 N3         62.7550   31.0340   -1.1800 N.2       1 SM51        0.0000 
     11 C10        64.6240   26.0540   -1.4010 C.ar      1 SM51        0.0000 
     12 C8         66.0080   27.6480   -0.4280 C.ar      1 SM51        0.0000 
     13 C22        61.5790   35.3010   -1.4490 C.3       1 SM51        0.0000 
     14 C7         64.9090   28.7430   -0.5240 C.ar      1 SM51        0.0000 
     15 C5         60.5100   30.4320   -1.6090 C.2       1 SM51        0.0000 
     16 C6         63.7210   28.3830   -1.0770 C.ar      1 SM51        0.0000 
     17 C1         61.3180   28.9570   -1.4990 C.2       1 SM51        0.0000 
     18 C19        59.6160   33.1560   -1.0860 C.3       1 SM51        0.0000 
     19 C20        59.1390   34.5410   -1.5440 C.3       1 SM51        0.0000 
     20 C2         62.6210   29.2930   -1.2490 C.2       1 SM51        0.0000 
     21 N9         65.8400   26.3570   -0.8610 N.ar      1 SM51        0.0000 
     22 N21        60.1300   35.5960   -1.1240 N.4       1 SM51        0.0000 
     23 C23        61.9730   33.7780   -0.9250 C.3       1 SM51        0.0000 
     24 C24        59.7490   23.9860   -0.3220 C.3       1 SM51        0.0000 
     25 C25        58.5620   23.2020   -1.1840 C.3       1 SM51        0.0000 
     26 C26        58.1910   24.2200   -2.2650 C.2       1 SM51        0.0000 
     27 N27        57.4290   24.1110   -3.1090 N.2       1 SM51        0.0000 
     28 O28        56.8200   22.8480   -3.0480 O.3       1 SM51        0.0000 
     29 H          61.0543   33.1164   -2.6475 H         1 SM51        0.0000 
     30 H          58.1746   26.4856   -3.7233 H         1 SM51        0.0000 
     31 H          59.5342   28.4569   -3.3457 H         1 SM51        0.0000 
     32 H          61.3491   26.4967   -0.0212 H         1 SM51        0.0000 
     33 H          62.6686   26.7283   -1.9509 H         1 SM51        0.0000 
     34 H          64.4286   25.0801   -1.7468 H         1 SM51        0.0000 
     35 H          66.8903   27.9841   -0.0024 H         1 SM51        0.0000 
     36 H          62.2450   35.9706   -0.9390 H         1 SM51        0.0000 
     37 H          61.7578   35.3050   -2.5073 H         1 SM51        0.0000 
     38 H          65.1531   29.6351   -0.1723 H         1 SM51        0.0000 
     39 H          59.6228   30.3950   -1.7709 H         1 SM51        0.0000 
     40 H          59.5404   33.0903    0.0002 H         1 SM51        0.0000 
     41 H          58.9757   32.3909   -1.5269 H         1 SM51        0.0000 
     42 H          58.1691   34.7440   -1.0962 H         1 SM51        0.0000 
     43 H          59.0380   34.5372   -2.6267 H         1 SM51        0.0000 
     44 H          63.0049   33.6523   -1.2299 H         1 SM51        0.0000 
     45 H          61.9163   33.8470    0.1546 H         1 SM51        0.0000 
     46 H          59.3835   24.0864    0.6512 H         1 SM51        0.0000 
     47 H          60.6145   23.4115   -0.4301 H         1 SM51        0.0000 
     48 H          57.7744   23.0383   -0.5193 H         1 SM51        0.0000 
     49 H          59.0068   22.3500   -1.5904 H         1 SM51        0.0000 
     50 H          57.3175   22.2886   -3.7110 H         1 SM51        0.0000 
@<TRIPOS>BOND
     1    2    1 1    
     2   18    1 1    
     3   23    1 1    
     4   29    1 1    
     5   10    2 1    
     6   15    2 1    
     7    4    3 ar   
     8    8    3 ar   
     9   30    3 1    
    10    5    4 ar   
    11   31    4 1    
    12    6    5 ar   
    13   17    5 1    
    14    7    6 ar   
    15   32    6 1    
    16    8    7 ar   
    17   24    7 1    
    18   26    8 1    
    19   11    9 ar   
    20   16    9 ar   
    21   33    9 1    
    22   20   10 2    
    23   21   11 ar   
    24   34   11 1    
    25   14   12 ar   
    26   21   12 ar   
    27   35   12 1    
    28   22   13 1    
    29   23   13 1    
    30   36   13 1    
    31   37   13 1    
    32   16   14 ar   
    33   38   14 1    
    34   17   15 2    
    35   39   15 1    
    36   20   16 1    
    37   20   17 1    
    38   19   18 1    
    39   40   18 1    
    40   41   18 1    
    41   22   19 1    
    42   42   19 1    
    43   43   19 1    
    44   44   23 1    
    45   45   23 1    
    46   25   24 1    
    47   46   24 1    
    48   47   24 1    
    49   26   25 1    
    50   48   25 1    
    51   49   25 1    
    52   27   26 2    
    53   28   27 1    
    54   50   28 1    
@<TRIPOS>SUBSTRUCTURE
     1 SM51        1 GROUP   
@<TRIPOS>SET

