#    Name: 2pza_AMP_1_INTS_M
#    Modification time : Mon Mar 24 20:12:00 2014

@<TRIPOS>MOLECULE
2pza_AMP_1_INTS_M
   46     0    12     0     0
SMALL
NO_CHARGES


@<TRIPOS>ATOM
      1 Zn         34.0735  -17.2605   -7.0360 Zn        3 ZIC7        0.0000 
      2 Zn         33.2810  -16.6120   -6.8020 Zn       11 ZIL7        0.0000 
      3 Zn         34.8660  -17.9090   -7.2700 Zn        7 ZIP7        0.0000 
      4 Zn         34.7815  -13.7855   -5.9195 Zn        3 ZIC7        0.0000 
      5 Zn         33.9130  -14.2340   -6.0420 Zn       11 ZIL7        0.0000 
      6 Zn         35.6500  -13.3370   -5.7970 Zn        7 ZIP7        0.0000 
      7 CA         35.4510  -16.5260  -12.0040 C.3       4 GLC5        0.0000 
      8 CA         34.8230  -14.7780  -10.8530 C.3      12 GLL5        0.0000 
      9 CA         36.0790  -18.2740  -13.1550 C.3       8 GLP5        0.0000 
     10 O          35.0265  -17.2480  -11.1150 O.2       1 ALC1        0.0000 
     11 O          35.5620  -15.9910  -10.8550 O.2       9 ALL1        0.0000 
     12 O          34.4910  -18.5050  -11.3750 O.2       5 ALP1        0.0000 
     13 CA         36.0585  -12.5145  -10.7370 C.3       4 GLC5        0.0000 
     14 CA         34.8940  -13.8640  -12.0940 C.3      12 GLL5        0.0000 
     15 CA         37.2230  -11.1650   -9.3800 C.3       8 GLP5        0.0000 
     16 O          36.0130  -13.7795  -13.8140 O.2       1 ALC1        0.0000 
     17 O          35.0280  -14.5110  -13.3620 O.2       9 ALL1        0.0000 
     18 O          36.9980  -13.0480  -14.2660 O.2       5 ALP1        0.0000 
     19 CA         34.2370   -7.7470  -12.6545 C.3       4 GLC5        0.0000 
     20 CA         34.9870   -8.5330  -10.7990 C.3      12 GLL5        0.0000 
     21 CA         33.4870   -6.9610  -14.5100 C.3       8 GLP5        0.0000 
     22 O          35.8915   -6.5245   -9.5310 O.2       1 ALC1        0.0000 
     23 O          34.9470   -7.5370   -9.9000 O.2       9 ALL1        0.0000 
     24 O          36.8360   -5.5120   -9.1620 O.2       5 ALP1        0.0000 
     25 N          35.7485   -7.2850  -13.1045 N.am      2 SEC2        0.0000 
     26 N          35.6780   -8.3250  -11.9450 N.am     10 SEL2        0.0000 
     27 N          35.8190   -6.2450  -14.2640 N.am      6 SEP2        0.0000 
     28 CA         35.9635  -10.4885  -14.4490 C.3       4 GLC5        0.0000 
     29 CA         35.7340   -9.3060  -12.8650 C.3      12 GLL5        0.0000 
     30 CA         36.1930  -11.6710  -16.0330 C.3       8 GLP5        0.0000 
     31 CA         37.4725  -10.3800  -13.2915 C.3       4 GLC5        0.0000 
     32 CA         39.2110  -11.4540  -13.7180 C.3       8 GLP5        0.0000 
     33 CA         37.0210   -9.8630  -11.5100 C.3       4 GLC5        0.0000 
     34 CA         38.3080  -10.4200  -10.1550 C.3       8 GLP5        0.0000 
     35 CA         36.8835   -7.7940  -14.0630 C.3       4 GLC5        0.0000 
     36 CA         38.0330   -6.2820  -15.2610 C.3       8 GLP5        0.0000 
     37 CA         34.6105   -8.1335  -13.6875 C.3       4 GLC5        0.0000 
     38 CA         31.3155  -15.4748  -10.8072 C.3       4 GLC5        0.0000 
     39 CA         33.3520  -15.1250  -10.8250 C.3      12 GLL5        0.0000 
     40 CA         29.5400  -15.5770  -11.4640 C.3       8 GLP5        0.0000 
     41 CA         36.6908  -14.6580  -11.7508 C.3       4 GLC5        0.0000 
     42 CA         38.5230  -14.9950  -12.0280 C.3       8 GLP5        0.0000 
     43 CA         35.8988  -10.5523  -10.2816 C.3       4 GLC5        0.0000 
     44 CA         34.3370   -9.8050  -10.6240 C.3      12 GLL5        0.0000 
     45 CA         32.8792   -9.4477  -11.6766 C.3       4 GLC5        0.0000 
     46 CA         31.1840   -8.9560  -12.1700 C.3       8 GLP5        0.0000 
@<TRIPOS>BOND
@<TRIPOS>SUBSTRUCTURE
     1 ALC1       10 GROUP        1 X    ALC  0     ROOT ALC X 1
     2 SEC2       25 GROUP        1 X    SEC  0     **** SEC X 2
     3 ZIC7        1 GROUP        1 X    ZIC  0     **** ZIC X 5
     4 GLC5        7 GROUP        1 X    GLC  0     **** GLC X 6
     5 ALP1       12 GROUP        1 Y    ALP  0     ROOT ALP Y 8
     6 SEP2       27 GROUP        1 Y    SEP  0     **** SEP Y 9
     7 ZIP7        3 GROUP        1 Y    ZIP  0     **** ZIP Y 12
     8 GLP5        9 GROUP        1 Y    GLP  0     **** GLP Y 13
     9 ALL1       11 GROUP        1 Z    ALL  0     ROOT ALL Z 15
    10 SEL2       26 GROUP        1 Z    SEL  0     **** SEL Z 16
    11 ZIL7        2 GROUP        1 Z    ZIL  0     **** ZIL Z 19
    12 GLL5        8 GROUP        1 Z    GLL  0     **** GLL Z 20
@<TRIPOS>SET

