#    Name: 2pza_AMP_1_ligand
#    Modification time : Mon Mar 24 20:12:00 2014

@<TRIPOS>MOLECULE
2pza_AMP_1_ligand
   35    37     1     0     0
SMALL
NO_CHARGES


@<TRIPOS>ATOM
      1 P          32.9160  -15.1680   -6.9230 P.3       1 AMP4000     0.0000 
      2 O1P        33.2810  -16.6120   -6.8020 O.co2     1 AMP4000     0.0000 
      3 O2P        31.4970  -14.8990   -6.4570 O.co2     1 AMP4000     0.0000 
      4 O3P        33.9130  -14.2340   -6.0420 O.co2     1 AMP4000     0.0000 
      5 O5'        33.0990  -14.7410   -8.3630 O.3       1 AMP4000     0.0000 
      6 C5'        32.8300  -15.6200   -9.4760 C.3       1 AMP4000     0.0000 
      7 C4'        33.3520  -15.1250  -10.8250 C.3       1 AMP4000     0.0000 
      8 O4'        32.7200  -13.8800  -11.1990 O.3       1 AMP4000     0.0000 
      9 C3'        34.8230  -14.7780  -10.8530 C.3       1 AMP4000     0.0000 
     10 O3'        35.5620  -15.9910  -10.8550 O.3       1 AMP4000     0.0000 
     11 C2'        34.8940  -13.8640  -12.0940 C.3       1 AMP4000     0.0000 
     12 O2'        35.0280  -14.5110  -13.3620 O.3       1 AMP4000     0.0000 
     13 C1'        33.6010  -13.0670  -11.9810 C.3       1 AMP4000     0.0000 
     14 N9         33.7950  -11.8120  -11.2690 N.pl3     1 AMP4000     0.0000 
     15 C8         33.2660  -11.5250  -10.0420 C.2       1 AMP4000     0.0000 
     16 N7         33.5660  -10.3430   -9.6110 N.2       1 AMP4000     0.0000 
     17 C5         34.3370   -9.8050  -10.6240 C.ar      1 AMP4000     0.0000 
     18 C6         34.9870   -8.5330  -10.7990 C.ar      1 AMP4000     0.0000 
     19 N6         34.9470   -7.5370   -9.9000 N.pl3     1 AMP4000     0.0000 
     20 N1         35.6780   -8.3250  -11.9450 N.ar      1 AMP4000     0.0000 
     21 C2         35.7340   -9.3060  -12.8650 C.ar      1 AMP4000     0.0000 
     22 N3         35.1740  -10.5390  -12.8230 N.ar      1 AMP4000     0.0000 
     23 C4         34.4870  -10.7100  -11.6550 C.ar      1 AMP4000     0.0000 
     24 H          31.7336  -15.7949   -9.5861 H         1 AMP4000     0.0000 
     25 H          33.2698  -16.6298   -9.2980 H         1 AMP4000     0.0000 
     26 H          33.1632  -15.8628  -11.5862 H         1 AMP4000     0.0000 
     27 H          34.9984  -14.1631   -9.9849 H         1 AMP4000     0.0000 
     28 H          35.6999  -13.1484  -11.8982 H         1 AMP4000     0.0000 
     29 H          33.2068  -12.9122  -12.9529 H         1 AMP4000     0.0000 
     30 H          32.7000  -12.1975   -9.5500 H         1 AMP4000     0.0000 
     31 H          35.4711   -6.7166  -10.1286 H         1 AMP4000     0.0000 
     32 H          34.3967   -7.7044   -9.0820 H         1 AMP4000     0.0000 
     33 H          36.3119   -9.0790  -13.7753 H         1 AMP4000     0.0000 
     34 H          34.8861  -16.7054  -11.0363 H         1 AMP4000     0.0000 
     35 H          35.9847  -14.3776  -13.6206 H         1 AMP4000     0.0000 
@<TRIPOS>BOND
     1    2    1 ar   
     2    3    1 ar   
     3    4    1 ar   
     4    5    1 1    
     5    6    5 1    
     6    7    6 1    
     7   24    6 1    
     8   25    6 1    
     9    8    7 1    
    10    9    7 1    
    11   26    7 1    
    12   13    8 1    
    13   10    9 1    
    14   11    9 1    
    15   27    9 1    
    16   34   10 1    
    17   12   11 1    
    18   13   11 1    
    19   28   11 1    
    20   35   12 1    
    21   14   13 1    
    22   29   13 1    
    23   15   14 1    
    24   23   14 1    
    25   16   15 2    
    26   30   15 1    
    27   17   16 1    
    28   18   17 ar   
    29   23   17 ar   
    30   19   18 1    
    31   20   18 ar   
    32   31   19 1    
    33   32   19 1    
    34   21   20 ar   
    35   22   21 ar   
    36   33   21 1    
    37   23   22 ar   
@<TRIPOS>SUBSTRUCTURE
     1 AMP4000     1 GROUP   
@<TRIPOS>SET

