#    Name: 3nnx_EDD_1_INTS_M
#    Modification time : Tue Mar 25 01:54:05 2014

@<TRIPOS>MOLECULE
3nnx_EDD_1_INTS_M
   96     0     9     0     0
SMALL
NO_CHARGES


@<TRIPOS>ATOM
      1 CA          7.0015  -42.3355  -28.1990 C.3       3 GLC5        0.0000 
      2 CA          6.4490  -40.6340  -27.0080 C.3       9 GLL5        0.0000 
      3 CA          7.5540  -44.0370  -29.3900 C.3       6 GLP5        0.0000 
      4 CA          8.0635  -39.5120  -25.0780 C.3       3 GLC5        0.0000 
      5 CA          7.6370  -38.5850  -26.6300 C.3       9 GLL5        0.0000 
      6 CA          8.4900  -40.4390  -23.5260 C.3       6 GLP5        0.0000 
      7 CA          9.2770  -37.7135  -27.0110 C.3       3 GLC5        0.0000 
      8 CA         10.9170  -36.8420  -27.3920 C.3       6 GLP5        0.0000 
      9 CA          8.0870  -42.1660  -28.7830 C.3       3 GLC5        0.0000 
     10 CA          8.6200  -40.2950  -28.1760 C.3       9 GLL5        0.0000 
     11 CA         10.1620  -40.0310  -29.3960 C.3       3 GLC5        0.0000 
     12 CA         11.7040  -39.7670  -30.6160 C.3       6 GLP5        0.0000 
     13 CA          9.7685  -38.5685  -27.7840 C.3       3 GLC5        0.0000 
     14 N           9.5805  -41.6395  -31.1345 N.am      2 SEC2        0.0000 
     15 N           8.3330  -40.9780  -30.3990 N.am      8 SEL2        0.0000 
     16 N          10.8280  -42.3010  -31.8700 N.am      5 SEP2        0.0000 
     17 CA          7.7055  -35.5840  -22.3105 C.3       3 GLC5        0.0000 
     18 CA          6.7100  -35.1890  -23.8570 C.3       9 GLL5        0.0000 
     19 CA          8.7010  -35.9790  -20.7640 C.3       6 GLP5        0.0000 
     20 CA          6.6835  -34.2330  -22.2250 C.3       3 GLC5        0.0000 
     21 CA          6.6570  -33.2770  -20.5930 C.3       6 GLP5        0.0000 
     22 CA          5.0270  -33.8865  -23.3645 C.3       3 GLC5        0.0000 
     23 CA          3.3440  -32.5840  -22.8720 C.3       6 GLP5        0.0000 
     24 CA         10.4420  -34.7025  -25.0505 C.3       3 GLC5        0.0000 
     25 CA          8.9090  -33.1420  -24.9500 C.3       9 GLL5        0.0000 
     26 CA         11.9750  -36.2630  -25.1510 C.3       6 GLP5        0.0000 
     27 CA         10.2160  -32.4685  -23.6615 C.3       3 GLC5        0.0000 
     28 CA         11.5230  -31.7950  -22.3730 C.3       6 GLP5        0.0000 
     29 CA          8.6735  -31.4005  -23.5740 C.3       3 GLC5        0.0000 
     30 CA          8.4380  -29.6590  -22.1980 C.3       6 GLP5        0.0000 
     31 CA          7.4620  -31.0905  -23.5800 C.3       3 GLC5        0.0000 
     32 CA          6.4860  -32.5220  -24.9620 C.3       9 GLL5        0.0000 
     33 CA          6.5715  -32.8995  -22.7775 C.3       3 GLC5        0.0000 
     34 CA          5.3170  -30.8605  -25.0835 C.3       3 GLC5        0.0000 
     35 CA          4.1480  -29.1990  -25.2050 C.3       6 GLP5        0.0000 
     36 CA          4.9150  -32.5530  -23.9170 C.3       3 GLC5        0.0000 
     37 O           5.4925  -39.3195  -22.0315 O.2       1 ALC1        0.0000 
     38 O           4.7530  -38.2230  -21.3620 O.2       7 ALL1        0.0000 
     39 O           6.2320  -40.4160  -22.7010 O.2       4 ALP1        0.0000 
     40 N           4.0195  -35.2955  -23.1020 N.am      2 SEC2        0.0000 
     41 N           4.8210  -35.9820  -22.0290 N.am      8 SEL2        0.0000 
     42 N           3.2180  -34.6090  -24.1750 N.am      5 SEP2        0.0000 
     43 CA          1.5225  -35.8335  -21.3365 C.3       3 GLC5        0.0000 
     44 CA          2.5650  -37.5930  -20.5820 C.3       9 GLL5        0.0000 
     45 CA          0.4800  -34.0740  -22.0910 C.3       6 GLP5        0.0000 
     46 CA          1.3085  -35.4345  -19.6955 C.3       3 GLC5        0.0000 
     47 CA          1.6420  -37.5540  -19.5600 C.3       9 GLL5        0.0000 
     48 CA          0.9750  -33.3150  -19.8310 C.3       6 GLP5        0.0000 
     49 CA          0.9300  -39.9210  -18.5140 C.3       3 GLC5        0.0000 
     50 CA          1.9440  -38.0880  -18.3020 C.3       9 GLL5        0.0000 
     51 CA         -0.0840  -41.7540  -18.7260 C.3       6 GLP5        0.0000 
     52 CA          4.5825  -41.0480  -18.5390 C.3       3 GLC5        0.0000 
     53 CA          5.6710  -39.4670  -18.7640 C.3       9 GLL5        0.0000 
     54 CA          3.4940  -42.6290  -18.3140 C.3       6 GLP5        0.0000 
     55 CA          7.2245  -38.9780  -19.4320 C.3       3 GLC5        0.0000 
     56 CA          8.7780  -38.4890  -20.1000 C.3       6 GLP5        0.0000 
     57 CA          5.3405  -37.3160  -18.7330 C.3       3 GLC5        0.0000 
     58 CA          5.0100  -35.1650  -18.7020 C.3       6 GLP5        0.0000 
     59 CA          6.6870  -40.7075  -18.1155 C.3       3 GLC5        0.0000 
     60 CA          7.7030  -41.9480  -17.4670 C.3       6 GLP5        0.0000 
     61 CA          2.3520  -38.8380  -15.4020 C.3       3 GLC5        0.0000 
     62 CA          3.5980  -39.4360  -16.3960 C.3       9 GLL5        0.0000 
     63 CA          1.1060  -38.2400  -14.4080 C.3       6 GLP5        0.0000 
     64 CA          3.1800  -40.9295  -14.9965 C.3       3 GLC5        0.0000 
     65 CA          2.7620  -42.4230  -13.5970 C.3       6 GLP5        0.0000 
     66 CA          5.1415  -39.8490  -14.8145 C.3       3 GLC5        0.0000 
     67 CA          6.6850  -40.2620  -13.2330 C.3       6 GLP5        0.0000 
     68 CA          3.7800  -37.8990  -15.8210 C.3       3 GLC5        0.0000 
     69 CA          3.9620  -36.3620  -15.2460 C.3       6 GLP5        0.0000 
     70 CA          4.8193  -37.1382  -25.9998 C.3       3 GLC5        0.0000 
     71 CA          6.6480  -38.1000  -25.7670 C.3       9 GLL5        0.0000 
     72 CA          3.5360  -35.7660  -26.3320 C.3       6 GLP5        0.0000 
     73 CA          3.4810  -39.9325  -26.3180 C.3       3 GLC5        0.0000 
     74 CA          5.5570  -38.9210  -25.5680 C.3       9 GLL5        0.0000 
     75 CA          1.4590  -40.3140  -26.7730 C.3       6 GLP5        0.0000 
     76 CA          7.1329  -39.8924  -24.7194 C.3       3 GLC5        0.0000 
     77 CA          5.4490  -40.1810  -26.1580 C.3       9 GLL5        0.0000 
     78 CA          8.6187  -40.7574  -26.0235 C.3       3 GLC5        0.0000 
     79 CA          9.4300  -41.2540  -24.3930 C.3       6 GLP5        0.0000 
     80 CA          5.2265  -35.3960  -25.4143 C.3       3 GLC5        0.0000 
     81 CA          7.1240  -34.8630  -25.1360 C.3       9 GLL5        0.0000 
     82 CA          5.7339  -32.0674  -26.7310 C.3       3 GLC5        0.0000 
     83 CA          4.4530  -31.1460  -27.8300 C.3       6 GLP5        0.0000 
     84 CA          3.9215  -40.4035  -20.2342 C.3       3 GLC5        0.0000 
     85 CA          3.8200  -38.1750  -20.3620 C.3       9 GLL5        0.0000 
     86 CA          3.8840  -42.3700  -20.7450 C.3       6 GLP5        0.0000 
     87 CA          4.1013  -36.5245  -19.5870 C.3       3 GLC5        0.0000 
     88 CA          1.3042  -37.9442  -21.8935 C.3       3 GLC5        0.0000 
     89 CA          0.5050  -38.3150  -23.7160 C.3       6 GLP5        0.0000 
     90 CA          3.4015  -36.4930  -18.8165 C.3       3 GLC5        0.0000 
     91 CA          1.8345  -38.3145  -16.2890 C.3       3 GLC5        0.0000 
     92 CA          3.4420  -40.8460  -17.7655 C.3       3 GLC5        0.0000 
     93 CA          3.1820  -38.6900  -18.0380 C.3       9 GLL5        0.0000 
     94 CA          4.3250  -36.9297  -18.6318 C.3       3 GLC5        0.0000 
     95 CA          3.6463  -37.4530  -16.9367 C.3       3 GLC5        0.0000 
     96 CA          4.0980  -38.6990  -19.0850 C.3       9 GLL5        0.0000 
@<TRIPOS>BOND
@<TRIPOS>SUBSTRUCTURE
     1 ALC1       37 GROUP        1 X    ALC  0     ROOT ALC X 1
     2 SEC2       14 GROUP        1 X    SEC  0     **** SEC X 2
     3 GLC5        1 GROUP        1 X    GLC  0     **** GLC X 6
     4 ALP1       39 GROUP        1 Y    ALP  0     ROOT ALP Y 8
     5 SEP2       16 GROUP        1 Y    SEP  0     **** SEP Y 9
     6 GLP5        3 GROUP        1 Y    GLP  0     **** GLP Y 13
     7 ALL1       38 GROUP        1 Z    ALL  0     ROOT ALL Z 15
     8 SEL2       15 GROUP        1 Z    SEL  0     **** SEL Z 16
     9 GLL5        2 GROUP        1 Z    GLL  0     **** GLL Z 20
@<TRIPOS>SET

