#    Name: 3nnx_EDD_1_ligand
#    Modification time : Tue Mar 25 01:54:05 2014

@<TRIPOS>MOLECULE
3nnx_EDD_1_ligand
   54    56     1     0     0
SMALL
NO_CHARGES


@<TRIPOS>ATOM
      1 C1          6.6480  -38.1000  -25.7670 C.ar      1 EDD355      0.0000 
      2 C2          5.5570  -38.9210  -25.5680 C.ar      1 EDD355      0.0000 
      3 C3          5.4490  -40.1810  -26.1580 C.ar      1 EDD355      0.0000 
      4 C4          6.4490  -40.6340  -27.0080 C.ar      1 EDD355      0.0000 
      5 C5          7.5410  -39.8190  -27.2560 C.ar      1 EDD355      0.0000 
      6 C6          7.6370  -38.5850  -26.6300 C.ar      1 EDD355      0.0000 
      7 C13         8.6200  -40.2950  -28.1760 C.3       1 EDD355      0.0000 
      8 C14         8.1810  -40.0840  -29.6170 C.2       1 EDD355      0.0000 
      9 N15         7.6860  -38.9170  -30.0140 N.am      1 EDD355      0.0000 
     10 O19         8.3330  -40.9780  -30.3990 O.2       1 EDD355      0.0000 
     11 N21         6.7590  -36.9070  -25.2230 N.pl3     1 EDD355      0.0000 
     12 N23         7.1720  -35.8710  -26.0150 N.pl3     1 EDD355      0.0000 
     13 C24         7.1240  -34.8630  -25.1360 C.2       1 EDD355      0.0000 
     14 C25         6.7100  -35.1890  -23.8570 C.2       1 EDD355      0.0000 
     15 C26         6.4750  -36.5460  -23.9520 C.2       1 EDD355      0.0000 
     16 C32         7.5260  -33.4760  -25.5320 C.3       1 EDD355      0.0000 
     17 C34         7.5610  -33.4350  -27.0720 C.3       1 EDD355      0.0000 
     18 C36         8.9090  -33.1420  -24.9500 C.3       1 EDD355      0.0000 
     19 C38         6.4860  -32.5220  -24.9620 C.3       1 EDD355      0.0000 
     20 N40         6.0800  -37.4770  -23.0330 N.2       1 EDD355      0.0000 
     21 C42         5.1870  -37.1660  -22.0990 C.2       1 EDD355      0.0000 
     22 N43         4.7530  -38.2230  -21.3620 N.am      1 EDD355      0.0000 
     23 C44         3.8200  -38.1750  -20.3620 C.ar      1 EDD355      0.0000 
     24 O48         4.8210  -35.9820  -22.0290 O.2       1 EDD355      0.0000 
     25 C50         2.5650  -37.5930  -20.5820 C.ar      1 EDD355      0.0000 
     26 C51         1.6420  -37.5540  -19.5600 C.ar      1 EDD355      0.0000 
     27 C52         1.9440  -38.0880  -18.3020 C.ar      1 EDD355      0.0000 
     28 C53         3.1820  -38.6900  -18.0380 C.ar      1 EDD355      0.0000 
     29 C54         4.0980  -38.6990  -19.0850 C.ar      1 EDD355      0.0000 
     30 CL61        5.6710  -39.4670  -18.7640 Cl        1 EDD355      0.0000 
     31 CL63        3.5980  -39.4360  -16.3960 Cl        1 EDD355      0.0000 
     32 H           4.7770  -38.5921  -24.9520 H         1 EDD355      0.0000 
     33 H           4.6307  -40.7693  -25.9620 H         1 EDD355      0.0000 
     34 H           6.3788  -41.5567  -27.4440 H         1 EDD355      0.0000 
     35 H           8.4786  -37.9906  -26.8064 H         1 EDD355      0.0000 
     36 H           8.8088  -41.3528  -28.0139 H         1 EDD355      0.0000 
     37 H           9.5350  -39.7365  -27.9984 H         1 EDD355      0.0000 
     38 H           7.4319  -38.8522  -30.9790 H         1 EDD355      0.0000 
     39 H           7.6122  -38.2086  -29.3120 H         1 EDD355      0.0000 
     40 H           7.4101  -35.8843  -26.8974 H         1 EDD355      0.0000 
     41 H           6.6159  -34.6400  -23.1297 H         1 EDD355      0.0000 
     42 H           5.1806  -39.1879  -21.5828 H         1 EDD355      0.0000 
     43 H           2.3440  -37.2001  -21.5044 H         1 EDD355      0.0000 
     44 H           0.7126  -37.1273  -19.7144 H         1 EDD355      0.0000 
     45 H           1.2361  -38.0376  -17.5471 H         1 EDD355      0.0000 
     46 H           7.8260  -32.5333  -27.4136 H         1 EDD355      0.0000 
     47 H           8.2137  -34.0936  -27.4463 H         1 EDD355      0.0000 
     48 H           6.6686  -33.6484  -27.4696 H         1 EDD355      0.0000 
     49 H           9.6114  -33.7754  -25.2747 H         1 EDD355      0.0000 
     50 H           9.2056  -32.2209  -25.2024 H         1 EDD355      0.0000 
     51 H           8.9124  -33.1876  -23.9510 H         1 EDD355      0.0000 
     52 H           6.4326  -32.5832  -23.9653 H         1 EDD355      0.0000 
     53 H           6.6929  -31.5697  -25.1865 H         1 EDD355      0.0000 
     54 H           5.5712  -32.7147  -25.3170 H         1 EDD355      0.0000 
@<TRIPOS>BOND
     1    2    1 ar   
     2    6    1 ar   
     3   11    1 1    
     4    3    2 ar   
     5   32    2 1    
     6    4    3 ar   
     7   33    3 1    
     8    5    4 ar   
     9   34    4 1    
    10    6    5 ar   
    11    7    5 1    
    12   35    6 1    
    13    8    7 1    
    14   36    7 1    
    15   37    7 1    
    16    9    8 am   
    17   10    8 2    
    18   38    9 1    
    19   39    9 1    
    20   12   11 1    
    21   15   11 1    
    22   13   12 1    
    23   40   12 1    
    24   14   13 2    
    25   16   13 1    
    26   15   14 1    
    27   41   14 1    
    28   20   15 2    
    29   17   16 1    
    30   18   16 1    
    31   19   16 1    
    32   46   17 1    
    33   47   17 1    
    34   48   17 1    
    35   49   18 1    
    36   50   18 1    
    37   51   18 1    
    38   52   19 1    
    39   53   19 1    
    40   54   19 1    
    41   21   20 1    
    42   22   21 am   
    43   24   21 2    
    44   23   22 1    
    45   42   22 1    
    46   25   23 ar   
    47   29   23 ar   
    48   26   25 ar   
    49   43   25 1    
    50   27   26 ar   
    51   44   26 1    
    52   28   27 ar   
    53   45   27 1    
    54   29   28 ar   
    55   31   28 1    
    56   30   29 1    
@<TRIPOS>SUBSTRUCTURE
     1 EDD355      1 GROUP   
@<TRIPOS>SET

