#    Name: 4alu_79O_2_INTS_M
#    Modification time : Tue Mar 25 05:44:40 2014

@<TRIPOS>MOLECULE
4alu_79O_2_INTS_M
   53     0     9     0     0
SMALL
NO_CHARGES


@<TRIPOS>ATOM
      1 CA         18.2155   33.4340   -5.2295 C.3       3 GLC5        0.0000 
      2 CA         18.5720   32.1740   -3.5430 C.3       9 GLL5        0.0000 
      3 CA         17.8590   34.6940   -6.9160 C.3       6 GLP5        0.0000 
      4 CA         16.3680   32.3630   -3.2735 C.3       3 GLC5        0.0000 
      5 CA         14.1640   32.5520   -3.0040 C.3       6 GLP5        0.0000 
      6 CA         18.7585   32.8430   -6.3145 C.3       3 GLC5        0.0000 
      7 CA         19.6580   30.9920   -5.7130 C.3       9 GLL5        0.0000 
      8 CA         21.8110   39.3355   -1.9855 C.3       3 GLC5        0.0000 
      9 CA         23.5050   38.8280   -1.2090 C.3       9 GLL5        0.0000 
     10 CA         20.1170   39.8430   -2.7620 C.3       6 GLP5        0.0000 
     11 CA         23.3265   40.4645   -0.2835 C.3       3 GLC5        0.0000 
     12 CA         23.1480   42.1010    0.6420 C.3       6 GLP5        0.0000 
     13 CA         24.8675   40.2550   -2.2350 C.3       3 GLC5        0.0000 
     14 CA         26.2300   41.6820   -3.2610 C.3       6 GLP5        0.0000 
     15 CA         22.2310   35.9265    3.5060 C.3       3 GLC5        0.0000 
     16 CA         22.9990   35.8060    1.6440 C.3       9 GLL5        0.0000 
     17 CA         21.4630   36.0470    5.3680 C.3       6 GLP5        0.0000 
     18 CA         21.4595   34.3970    2.6595 C.3       3 GLC5        0.0000 
     19 CA         22.6180   34.7340    0.8730 C.3       9 GLL5        0.0000 
     20 CA         20.3010   34.0600    4.4460 C.3       6 GLP5        0.0000 
     21 N          20.6140   29.9330    1.3105 N.am      2 SEC2        0.0000 
     22 N          21.5430   30.8260    1.0110 N.am      8 SEL2        0.0000 
     23 N          19.6850   29.0400    1.6100 N.am      5 SEP2        0.0000 
     24 O          20.4695   29.8970   -1.7280 O.2       1 ALC1        0.0000 
     25 O          21.3160   30.9750   -1.3940 O.2       7 ALL1        0.0000 
     26 O          19.6230   28.8190   -2.0620 O.2       4 ALP1        0.0000 
     27 CA         18.6680   32.6538   -2.6023 C.3       3 GLC5        0.0000 
     28 CA         19.8820   31.4710   -4.4220 C.3       9 GLL5        0.0000 
     29 CA         18.1090   33.4850   -1.2220 C.3       6 GLP5        0.0000 
     30 CA         17.7033   31.4596   -5.7284 C.3       3 GLC5        0.0000 
     31 CA         15.9640   31.5120   -6.6090 C.3       6 GLP5        0.0000 
     32 CA         19.4069   29.9886   -3.6354 C.3       3 GLC5        0.0000 
     33 CA         18.5160   28.5860   -2.9210 C.3       6 GLP5        0.0000 
     34 CA         20.0682   33.3425   -0.8422 C.3       3 GLC5        0.0000 
     35 CA         22.0750   33.6080   -1.0290 C.3       9 GLL5        0.0000 
     36 CA         24.5975   36.0215   -0.7915 C.3       3 GLC5        0.0000 
     37 CA         22.4790   34.8430   -0.5160 C.3       9 GLL5        0.0000 
     38 CA         26.5880   36.5940   -0.7550 C.3       6 GLP5        0.0000 
     39 CA         21.6807   37.6805    1.1355 C.3       3 GLC5        0.0000 
     40 CA         23.1260   37.1340   -0.3680 C.3       9 GLL5        0.0000 
     41 CA         20.1690   38.2900    1.9440 C.3       6 GLP5        0.0000 
     42 CA         24.9518   37.2875   -0.7717 C.3       3 GLC5        0.0000 
     43 CA         24.6975   36.4755    2.6020 C.3       3 GLC5        0.0000 
     44 CA         23.2590   37.0080    1.0220 C.3       9 GLL5        0.0000 
     45 CA         26.2660   36.5440    3.8710 C.3       6 GLP5        0.0000 
     46 CA         24.8585   36.5005    0.2890 C.3       3 GLC5        0.0000 
     47 CA         21.4887   36.7800    1.6013 C.3       3 GLC5        0.0000 
     48 CA         24.6683   34.2825    1.1627 C.3       3 GLC5        0.0000 
     49 CA         26.5280   33.2950    1.0670 C.3       6 GLP5        0.0000 
     50 CA         20.6287   35.4978   -0.3223 C.3       3 GLC5        0.0000 
     51 CA         18.6450   35.9040   -0.6670 C.3       6 GLP5        0.0000 
     52 CA         23.7927   32.9774   -0.9661 C.3       3 GLC5        0.0000 
     53 CA         25.4570   32.4460   -1.5980 C.3       6 GLP5        0.0000 
@<TRIPOS>BOND
@<TRIPOS>SUBSTRUCTURE
     1 ALC1       24 GROUP        1 X    ALC  0     ROOT ALC X 1
     2 SEC2       21 GROUP        1 X    SEC  0     **** SEC X 2
     3 GLC5        1 GROUP        1 X    GLC  0     **** GLC X 6
     4 ALP1       26 GROUP        1 Y    ALP  0     ROOT ALP Y 8
     5 SEP2       23 GROUP        1 Y    SEP  0     **** SEP Y 9
     6 GLP5        3 GROUP        1 Y    GLP  0     **** GLP Y 13
     7 ALL1       25 GROUP        1 Z    ALL  0     ROOT ALL Z 15
     8 SEL2       22 GROUP        1 Z    SEL  0     **** SEL Z 16
     9 GLL5        2 GROUP        1 Z    GLL  0     **** GLL Z 20
@<TRIPOS>SET

