#    Name: 4alu_79O_2_ligand
#    Modification time : Tue Mar 25 05:44:40 2014

@<TRIPOS>MOLECULE
4alu_79O_2_ligand
   30    33     1     0     0
SMALL
NO_CHARGES


@<TRIPOS>ATOM
      1 CL1        18.5720   32.1740   -3.5430 Cl        1 79O1308     0.0000 
      2 C9         19.8820   31.4710   -4.4220 C.ar      1 79O1308     0.0000 
      3 C8         19.6580   30.9920   -5.7130 C.ar      1 79O1308     0.0000 
      4 C7         20.7010   30.4190   -6.4390 C.ar      1 79O1308     0.0000 
      5 C6         21.9700   30.3230   -5.8730 C.ar      1 79O1308     0.0000 
      6 C5         22.1940   30.7990   -4.5820 C.ar      1 79O1308     0.0000 
      7 C4         21.1530   31.3750   -3.8520 C.ar      1 79O1308     0.0000 
      8 C3         21.4250   31.8480   -2.5380 C.2       1 79O1308     0.0000 
      9 N2         21.8040   33.1440   -2.2960 N.2       1 79O1308     0.0000 
     10 C10        22.0750   33.6080   -1.0290 C.2       1 79O1308     0.0000 
     11 C11        22.4790   34.8430   -0.5160 C.ar      1 79O1308     0.0000 
     12 C12        22.7350   36.0550   -1.1400 C.ar      1 79O1308     0.0000 
     13 C13        23.1260   37.1340   -0.3680 C.ar      1 79O1308     0.0000 
     14 BR1        23.5050   38.8280   -1.2090 Br        1 79O1308     0.0000 
     15 C14        23.2590   37.0080    1.0220 C.ar      1 79O1308     0.0000 
     16 C15        22.9990   35.8060    1.6440 C.ar      1 79O1308     0.0000 
     17 C16        22.6180   34.7340    0.8730 C.ar      1 79O1308     0.0000 
     18 O2         22.3060   33.4830    1.2390 O.3       1 79O1308     0.0000 
     19 C1         21.9800   32.7920    0.1040 C.2       1 79O1308     0.0000 
     20 C2         21.5990   31.4750   -0.0440 C.2       1 79O1308     0.0000 
     21 O1         21.5430   30.8260    1.0110 O.2       1 79O1308     0.0000 
     22 N1         21.3160   30.9750   -1.3940 N.am      1 79O1308     0.0000 
     23 H          18.7206   31.0620   -6.1299 H         1 79O1308     0.0000 
     24 H          20.5335   30.0685   -7.3892 H         1 79O1308     0.0000 
     25 H          22.7404   29.9020   -6.4058 H         1 79O1308     0.0000 
     26 H          23.1318   30.7257   -4.1641 H         1 79O1308     0.0000 
     27 H          22.6359   36.1474   -2.1532 H         1 79O1308     0.0000 
     28 H          23.5546   37.8282    1.5746 H         1 79O1308     0.0000 
     29 H          23.0883   35.7153    2.6598 H         1 79O1308     0.0000 
     30 H          21.0430   30.0088   -1.5130 H         1 79O1308     0.0000 
@<TRIPOS>BOND
     1    2    1 1    
     2    3    2 ar   
     3    7    2 ar   
     4    4    3 ar   
     5   23    3 1    
     6    5    4 ar   
     7   24    4 1    
     8    6    5 ar   
     9   25    5 1    
    10    7    6 ar   
    11   26    6 1    
    12    8    7 1    
    13    9    8 2    
    14   22    8 1    
    15   10    9 1    
    16   11   10 1    
    17   19   10 2    
    18   12   11 ar   
    19   17   11 ar   
    20   13   12 ar   
    21   27   12 1    
    22   14   13 1    
    23   15   13 ar   
    24   16   15 ar   
    25   28   15 1    
    26   17   16 ar   
    27   29   16 1    
    28   18   17 1    
    29   19   18 1    
    30   20   19 1    
    31   21   20 2    
    32   22   20 am   
    33   30   22 1    
@<TRIPOS>SUBSTRUCTURE
     1 79O1308     1 GROUP   
@<TRIPOS>SET

