#    Name: 3mb6_01I_1_INTS_M
#    Modification time : Mon Mar 24 22:56:42 2014

@<TRIPOS>MOLECULE
3mb6_01I_1_INTS_M
   40     0     9     0     0
SMALL
NO_CHARGES


@<TRIPOS>ATOM
      1 CA         22.3900    5.4915    9.3570 C.3       3 GLC5        0.0000 
      2 CA         23.1100    6.4440   11.0310 C.3       9 GLL5        0.0000 
      3 CA         21.6700    4.5390    7.6830 C.3       6 GLP5        0.0000 
      4 CA         24.5500    5.0030   10.0960 C.3       3 GLC5        0.0000 
      5 CA         25.9900    3.5620    9.1610 C.3       6 GLP5        0.0000 
      6 CA         21.1735    5.5985   10.9580 C.3       3 GLC5        0.0000 
      7 CA         19.2370    4.7530   10.8850 C.3       6 GLP5        0.0000 
      8 NZ         22.8780    1.4325   16.0950 N.4       2 LYC4        0.0000 
      9 NZ         22.3820    2.6270   15.5730 N.4       8 LYL4        0.0000 
     10 NZ         23.3740    0.2380   16.6170 N.4       5 LYP4        0.0000 
     11 N          22.8780    1.4325   16.0950 N.am      1 SEC2        0.0000 
     12 N          22.3820    2.6270   15.5730 N.am      7 SEL2        0.0000 
     13 N          23.3740    0.2380   16.6170 N.am      4 SEP2        0.0000 
     14 NZ         22.9430    1.0565   15.0645 N.4       2 LYC4        0.0000 
     15 NZ         22.5120    1.8750   13.5120 N.4       8 LYL4        0.0000 
     16 N          20.9610    1.7030   13.6460 N.am      1 SEC2        0.0000 
     17 N          22.5120    1.8750   13.5120 N.am      7 SEL2        0.0000 
     18 N          19.4100    1.5310   13.7800 N.am      4 SEP2        0.0000 
     19 CA         24.6447    8.0250   15.2345 C.3       3 GLC5        0.0000 
     20 CA         22.9990    9.9070   14.7290 C.3       9 GLL5        0.0000 
     21 CA         26.3390    7.5370   16.2700 C.3       6 GLP5        0.0000 
     22 CA         24.8783    7.0142   13.1162 C.3       3 GLC5        0.0000 
     23 CA         22.9570    7.8130   13.6190 C.3       9 GLL5        0.0000 
     24 CA         26.8450    6.9100   12.6530 C.3       6 GLP5        0.0000 
     25 CA         21.6582    9.4623   11.5252 C.3       3 GLC5        0.0000 
     26 CA         23.1370    8.5320   12.2970 C.3       9 GLL5        0.0000 
     27 CA         20.1450   10.7420   11.3590 C.3       6 GLP5        0.0000 
     28 CA         24.9352    6.5065   12.1403 C.3       3 GLC5        0.0000 
     29 CA         21.1661    6.1086   13.4649 C.3       3 GLC5        0.0000 
     30 CA         22.9410    5.7620   12.2240 C.3       9 GLL5        0.0000 
     31 CA         19.4060    5.7770   14.0280 C.3       6 GLP5        0.0000 
     32 CA         24.9682    8.6531   11.3476 C.3       3 GLC5        0.0000 
     33 CA         26.7370    8.7760   11.0190 C.3       6 GLP5        0.0000 
     34 CA         21.6622   10.8937   12.5508 C.3       3 GLC5        0.0000 
     35 CA         23.2530   12.0070   13.7010 C.3       9 GLL5        0.0000 
     36 CA         21.0447    5.2815   14.0938 C.3       3 GLC5        0.0000 
     37 CA         22.6940    5.3870   14.5280 C.3       9 GLL5        0.0000 
     38 CA         25.0275   11.3551   14.4200 C.3       3 GLC5        0.0000 
     39 CA         23.1760   10.5980   13.4430 C.3       9 GLL5        0.0000 
     40 CA         26.9170   11.5490   14.5990 C.3       6 GLP5        0.0000 
@<TRIPOS>BOND
@<TRIPOS>SUBSTRUCTURE
     1 SEC2       11 GROUP        1 X    SEC  0     ROOT SEC X 2
     2 LYC4        8 GROUP        1 X    LYC  0     **** LYC X 4
     3 GLC5        1 GROUP        1 X    GLC  0     **** GLC X 6
     4 SEP2       13 GROUP        1 Y    SEP  0     ROOT SEP Y 9
     5 LYP4       10 GROUP        1 Y    LYP  0     **** LYP Y 11
     6 GLP5        3 GROUP        1 Y    GLP  0     **** GLP Y 13
     7 SEL2       12 GROUP        1 Z    SEL  0     ROOT SEL Z 16
     8 LYL4        9 GROUP        1 Z    LYL  0     **** LYL Z 18
     9 GLL5        2 GROUP        1 Z    GLL  0     **** GLL Z 20
@<TRIPOS>SET

