#    Name: 3mb6_01I_1_ligand
#    Modification time : Mon Mar 24 22:56:42 2014

@<TRIPOS>MOLECULE
3mb6_01I_1_ligand
   28    31     1     0     0
SMALL
NO_CHARGES


@<TRIPOS>ATOM
      1 CAA        23.2490    9.9230   12.2360 C.ar      1 01I332      0.0000 
      2 CAB        23.1760   10.5980   13.4430 C.ar      1 01I332      0.0000 
      3 CAC        22.9990    9.9070   14.7290 C.ar      1 01I332      0.0000 
      4 CAD        22.8890    8.5190   14.8290 C.ar      1 01I332      0.0000 
      5 CAE        22.9570    7.8130   13.6190 C.ar      1 01I332      0.0000 
      6 CAF        23.1370    8.5320   12.2970 C.ar      1 01I332      0.0000 
      7 CAG        22.8660    6.4240   13.5400 C.ar      1 01I332      0.0000 
      8 CAH        22.9410    5.7620   12.2240 C.ar      1 01I332      0.0000 
      9 CAI        23.1100    6.4440   11.0310 C.ar      1 01I332      0.0000 
     10 CAJ        23.2060    7.8330   11.0860 C.ar      1 01I332      0.0000 
     11 CAK        23.2530   12.0070   13.7010 C.2       1 01I332      0.0000 
     12 CAL        23.1240   12.1330   15.0910 C.2       1 01I332      0.0000 
     13 OAM        22.9710   10.9160   15.7420 O.3       1 01I332      0.0000 
     14 CAN        22.6940    5.3870   14.5280 C.2       1 01I332      0.0000 
     15 CAO        22.6730    4.1850   13.7910 C.2       1 01I332      0.0000 
     16 OAP        22.8250    4.3600   12.4290 O.3       1 01I332      0.0000 
     17 CAQ        22.5140    2.8070   14.3410 C.2       1 01I332      0.0000 
     18 CAR        23.1510   13.4520   15.8020 C.2       1 01I332      0.0000 
     19 OAS        23.0260   13.4630   17.0490 O.co2     1 01I332      0.0000 
     20 OAT        22.3820    2.6270   15.5730 O.co2     1 01I332      0.0000 
     21 OAU        22.5120    1.8750   13.5120 O.co2     1 01I332      0.0000 
     22 OAV        23.2930   14.5020   15.1300 O.co2     1 01I332      0.0000 
     23 H          23.3751   10.4008   11.3637 H         1 01I332      0.0000 
     24 H          22.7697    8.0562   15.7028 H         1 01I332      0.0000 
     25 H          23.1626    5.9537   10.1460 H         1 01I332      0.0000 
     26 H          23.3326    8.3683   10.2037 H         1 01I332      0.0000 
     27 H          23.3634   12.6690   13.0753 H         1 01I332      0.0000 
     28 H          22.6174    5.5039   15.4294 H         1 01I332      0.0000 
@<TRIPOS>BOND
     1    2    1 ar   
     2    6    1 ar   
     3   23    1 1    
     4    3    2 ar   
     5   11    2 1    
     6    4    3 ar   
     7   13    3 1    
     8    5    4 ar   
     9   24    4 1    
    10    6    5 ar   
    11    7    5 ar   
    12   10    6 ar   
    13    8    7 ar   
    14   14    7 1    
    15    9    8 ar   
    16   16    8 1    
    17   10    9 ar   
    18   25    9 1    
    19   26   10 1    
    20   12   11 2    
    21   27   11 1    
    22   13   12 1    
    23   18   12 1    
    24   15   14 2    
    25   28   14 1    
    26   16   15 1    
    27   17   15 1    
    28   20   17 ar   
    29   21   17 ar   
    30   19   18 ar   
    31   22   18 ar   
@<TRIPOS>SUBSTRUCTURE
     1 01I332      1 GROUP   
@<TRIPOS>SET

