#    Name: 1rbq_KEU_4_INTS_M
#    Modification time : Tue Mar 25 00:29:00 2014

@<TRIPOS>MOLECULE
1rbq_KEU_4_INTS_M
   95     0    12     0     0
SMALL
NO_CHARGES


@<TRIPOS>ATOM
      1 O           6.5660   90.7070    2.7195 O.2       1 ALC1        0.0000 
      2 O           7.1300   89.4930    3.2610 O.2       9 ALL1        0.0000 
      3 O           6.0020   91.9210    2.1780 O.2       5 ALP1        0.0000 
      4 CA          5.4900   87.4320    5.1970 C.3       4 GLC5        0.0000 
      5 CA          4.6290   86.7190    3.4330 C.3      12 GLL5        0.0000 
      6 CA          6.3510   88.1450    6.9610 C.3       8 GLP5        0.0000 
      7 CA          3.1300   84.4645    2.7900 C.3       4 GLC5        0.0000 
      8 CA          3.2050   86.5160    3.3500 C.3      12 GLL5        0.0000 
      9 CA          3.0550   82.4130    2.2300 C.3       8 GLP5        0.0000 
     10 CA          3.3305   89.5640    0.5000 C.3       4 GLC5        0.0000 
     11 CA          2.9620   88.9490    2.3930 C.3      12 GLL5        0.0000 
     12 CA          3.6990   90.1790   -1.3930 C.3       8 GLP5        0.0000 
     13 CA          4.2565   90.8400    1.6205 C.3       4 GLC5        0.0000 
     14 CA          4.3600   89.1360    2.4760 C.3      12 GLL5        0.0000 
     15 CA          4.1530   92.5440    0.7650 C.3       8 GLP5        0.0000 
     16 CA          1.1120   86.5240    5.3035 C.3       4 GLC5        0.0000 
     17 CA          0.1060   87.5710    4.0850 C.3      12 GLL5        0.0000 
     18 CA          2.1180   85.4770    6.5220 C.3       8 GLP5        0.0000 
     19 CA         -2.8915   89.8355    4.8140 C.3       4 GLC5        0.0000 
     20 CA         -0.9780   89.5590    5.6170 C.3      12 GLL5        0.0000 
     21 CA         -4.8050   90.1120    4.0110 C.3       8 GLP5        0.0000 
     22 CA         -2.6795   90.5010    6.5580 C.3       4 GLC5        0.0000 
     23 CA         -4.3810   91.4430    7.4990 C.3       8 GLP5        0.0000 
     24 N          -1.1815   86.4780    7.6830 N.am      2 SEC2        0.0000 
     25 N          -1.3120   88.0030    7.9880 N.am     10 SEL2        0.0000 
     26 N          -1.0510   84.9530    7.3780 N.am      6 SEP2        0.0000 
     27 O          -0.6985   88.8065   10.4170 O.2       1 ALC1        0.0000 
     28 O           0.1390   89.1700    9.3230 O.2       9 ALL1        0.0000 
     29 O          -1.5360   88.4430   11.5110 O.2       5 ALP1        0.0000 
     30 CA          2.9815   90.1270    9.3810 C.3       4 GLC5        0.0000 
     31 CA          0.9320   90.2400    9.5910 C.3      12 GLL5        0.0000 
     32 CA          5.0310   90.0140    9.1710 C.3       8 GLP5        0.0000 
     33 CA          1.3175   92.3820    9.6920 C.3       4 GLC5        0.0000 
     34 CA          1.7030   94.5240    9.7930 C.3       8 GLP5        0.0000 
     35 CA          0.1530   91.5800   10.9625 C.3       4 GLC5        0.0000 
     36 CA         -0.6260   92.9200   12.3340 C.3       8 GLP5        0.0000 
     37 CA         -0.9755   90.7685    9.5350 C.3       4 GLC5        0.0000 
     38 CA         -2.8830   91.2970    9.4790 C.3       8 GLP5        0.0000 
     39 CA          2.0615   88.3915    9.0440 C.3       4 GLC5        0.0000 
     40 CA          3.1910   86.5430    8.4970 C.3       8 GLP5        0.0000 
     41 CA         -0.6515   92.1375    6.0810 C.3       4 GLC5        0.0000 
     42 CA          0.6900   91.0620    7.2800 C.3      12 GLL5        0.0000 
     43 CA         -1.9930   93.2130    4.8820 C.3       8 GLP5        0.0000 
     44 CA          2.6665   91.3610    7.2780 C.3       4 GLC5        0.0000 
     45 CA          4.6430   91.6600    7.2760 C.3       8 GLP5        0.0000 
     46 CA          0.2860   93.1120    7.7275 C.3       4 GLC5        0.0000 
     47 CA         -0.1180   95.1620    8.1750 C.3       8 GLP5        0.0000 
     48 CA         -1.5635   85.3250    1.3200 C.3       4 GLC5        0.0000 
     49 CA         -0.0410   86.8750    1.5970 C.3      12 GLL5        0.0000 
     50 CA         -3.0860   83.7750    1.0430 C.3       8 GLP5        0.0000 
     51 N          -2.3465   87.3505    2.3890 N.am      2 SEC2        0.0000 
     52 N          -1.0870   86.4100    1.8510 N.am     10 SEL2        0.0000 
     53 N          -3.6060   88.2910    2.9270 N.am      6 SEP2        0.0000 
     54 N          -1.4155   85.1830    1.4405 N.am      2 SEC2        0.0000 
     55 N          -1.7440   83.9560    1.0300 N.am      6 SEP2        0.0000 
     56 O          -1.2775   85.8715    3.0320 O.2       1 ALC1        0.0000 
     57 O          -1.0870   86.4100    1.8510 O.2       9 ALL1        0.0000 
     58 O          -1.4680   85.3330    4.2130 O.2       5 ALP1        0.0000 
     59 O          -0.5055   85.1875    2.7250 O.2       1 ALC1        0.0000 
     60 O           0.0760   83.9650    3.5990 O.2       5 ALP1        0.0000 
     61 N          -0.4425   84.7560    1.2740 N.am      2 SEC2        0.0000 
     62 N           0.8590   85.5560    1.5180 N.am     10 SEL2        0.0000 
     63 O           0.4675   84.7605    2.5585 O.2       1 ALC1        0.0000 
     64 O           0.8590   85.5560    1.5180 O.2       9 ALL1        0.0000 
     65 CA          1.9950   85.9855   -0.3195 C.3       4 GLC5        0.0000 
     66 CA          0.2850   87.3570    0.1620 C.3      12 GLL5        0.0000 
     67 CA          3.7050   84.6140   -0.8010 C.3       8 GLP5        0.0000 
     68 CA          3.1455   86.6080   -0.4825 C.3       4 GLC5        0.0000 
     69 CA          1.5940   87.4390   -0.2480 C.3      12 GLL5        0.0000 
     70 CA          4.6970   85.7770   -0.7170 C.3       8 GLP5        0.0000 
     71 CA         -2.4515   86.1115   -0.4750 C.3       4 GLC5        0.0000 
     72 CA         -0.4410   86.7180   -0.7660 C.3      12 GLL5        0.0000 
     73 CA         -4.4620   85.5050   -0.1840 C.3       8 GLP5        0.0000 
     74 CA         -1.5050   85.6930   -1.5345 C.3       4 GLC5        0.0000 
     75 CA         -2.5690   84.6680   -2.3030 C.3       8 GLP5        0.0000 
     76 NZ          9.9975   91.4670    7.0705 N.4       3 LYC4        0.0000 
     77 NZ          9.7670   90.8540    5.3120 N.4      11 LYL4        0.0000 
     78 NZ         10.2280   92.0800    8.8290 N.4       7 LYP4        0.0000 
     79 NZ          9.8405   92.6670    4.9040 N.4       3 LYC4        0.0000 
     80 NZ          9.9140   94.4800    4.4960 N.4       7 LYP4        0.0000 
     81 NZ          8.7720   92.9965    4.8215 N.4       3 LYC4        0.0000 
     82 NZ          7.6300   91.5130    5.1470 N.4      11 LYL4        0.0000 
     83 N           6.4140   91.8460    5.5880 N.am      2 SEC2        0.0000 
     84 N           7.6300   91.5130    5.1470 N.am     10 SEL2        0.0000 
     85 N           5.1980   92.1790    6.0290 N.am      6 SEP2        0.0000 
     86 CA          5.0505   88.9230    4.7582 C.3       4 GLC5        0.0000 
     87 CA          5.3090   89.2650    6.7760 C.3       8 GLP5        0.0000 
     88 CA          4.3814   86.3606    1.2837 C.3       4 GLC5        0.0000 
     89 CA          2.6255   86.3136    4.8114 C.3       4 GLC5        0.0000 
     90 CA         -1.2895   91.4887    5.5517 C.3       4 GLC5        0.0000 
     91 CA         -1.3175   90.9065    8.2660 C.3       4 GLC5        0.0000 
     92 CA         -0.1940   89.9700    6.8260 C.3      12 GLL5        0.0000 
     93 CA          1.2141   89.2315   -0.7215 C.3       4 GLC5        0.0000 
     94 CA         -0.0510   88.6260    0.3110 C.3      12 GLL5        0.0000 
     95 CA          1.9840   90.4510   -1.5770 C.3       8 GLP5        0.0000 
@<TRIPOS>BOND
@<TRIPOS>SUBSTRUCTURE
     1 ALC1        1 GROUP        1 X    ALC  0     ROOT ALC X 1
     2 SEC2       24 GROUP        1 X    SEC  0     **** SEC X 2
     3 LYC4       76 GROUP        1 X    LYC  0     **** LYC X 4
     4 GLC5        4 GROUP        1 X    GLC  0     **** GLC X 6
     5 ALP1        3 GROUP        1 Y    ALP  0     ROOT ALP Y 8
     6 SEP2       26 GROUP        1 Y    SEP  0     **** SEP Y 9
     7 LYP4       78 GROUP        1 Y    LYP  0     **** LYP Y 11
     8 GLP5        6 GROUP        1 Y    GLP  0     **** GLP Y 13
     9 ALL1        2 GROUP        1 Z    ALL  0     ROOT ALL Z 15
    10 SEL2       25 GROUP        1 Z    SEL  0     **** SEL Z 16
    11 LYL4       77 GROUP        1 Z    LYL  0     **** LYL Z 18
    12 GLL5        5 GROUP        1 Z    GLL  0     **** GLL Z 20
@<TRIPOS>SET

