#    Name: 1rbq_KEU_4_ligand
#    Modification time : Tue Mar 25 00:29:00 2014

@<TRIPOS>MOLECULE
1rbq_KEU_4_ligand
   61    62     1     0     0
SMALL
NO_CHARGES


@<TRIPOS>ATOM
      1 O4          9.9780   89.1670   -1.1160 O.co2     1 KEU810      0.0000 
      2 C21         9.4100   90.0700   -0.3360 C.2       1 KEU810      0.0000 
      3 O5          9.0960   91.2180   -0.6640 O.co2     1 KEU810      0.0000 
      4 C20         9.1970   89.4860    1.0060 C.3       1 KEU810      0.0000 
      5 C19         9.0300   90.4730    2.1610 C.3       1 KEU810      0.0000 
      6 C17         8.5910   89.8520    3.4470 C.3       1 KEU810      0.0000 
      7 N           7.1300   89.4930    3.2610 N.am      1 KEU810      0.0000 
      8 C           6.6550   88.1990    3.2060 C.2       1 KEU810      0.0000 
      9 O           7.3990   87.2460    3.2590 O.2       1 KEU810      0.0000 
     10 C14         5.2240   88.0260    3.0050 C.ar      1 KEU810      0.0000 
     11 C13         4.6290   86.7190    3.4330 C.ar      1 KEU810      0.0000 
     12 C12         3.2050   86.5160    3.3500 C.ar      1 KEU810      0.0000 
     13 C11         2.3490   87.6830    2.8100 C.ar      1 KEU810      0.0000 
     14 C16         2.9620   88.9490    2.3930 C.ar      1 KEU810      0.0000 
     15 C15         4.3600   89.1360    2.4760 C.ar      1 KEU810      0.0000 
     16 C10         0.7340   87.7190    2.6950 C.3       1 KEU810      0.0000 
     17 C1          0.1060   87.5710    4.0850 C.3       1 KEU810      0.0000 
     18 C2          0.1900   89.1520    4.6600 C.3       1 KEU810      0.0000 
     19 C3         -0.9780   89.5590    5.6170 C.3       1 KEU810      0.0000 
     20 C4         -0.1940   89.9700    6.8260 C.3       1 KEU810      0.0000 
     21 C9         -0.4430   89.0860    7.8220 C.2       1 KEU810      0.0000 
     22 O1         -1.3120   88.0030    7.9880 O.2       1 KEU810      0.0000 
     23 N3          0.1390   89.1700    9.3230 N.am      1 KEU810      0.0000 
     24 C8          0.9320   90.2400    9.5910 C.3       1 KEU810      0.0000 
     25 N2          1.4660   90.3840   10.8110 N.3       1 KEU810      0.0000 
     26 N1          1.1870   91.1230    8.6530 N.4       1 KEU810      0.0000 
     27 C7          0.6900   91.0620    7.2800 C.3       1 KEU810      0.0000 
     28 N8          1.0530   92.0680    6.4090 N.3       1 KEU810      0.0000 
     29 C5         -0.0410   86.8750    1.5970 C.3       1 KEU810      0.0000 
     30 OA2        -1.0870   86.4100    1.8510 O.3       1 KEU810      0.0000 
     31 OA1         0.8590   85.5560    1.5180 O.3       1 KEU810      0.0000 
     32 C6          0.2850   87.3570    0.1620 C.3       1 KEU810      0.0000 
     33 F2          1.5940   87.4390   -0.2480 F         1 KEU810      0.0000 
     34 F1         -0.0510   88.6260    0.3110 F         1 KEU810      0.0000 
     35 F          -0.4410   86.7180   -0.7660 F         1 KEU810      0.0000 
     36 C18         8.7050   90.7880    4.7210 C.2       1 KEU810      0.0000 
     37 O3          9.7670   90.8540    5.3120 O.co2     1 KEU810      0.0000 
     38 O2          7.6300   91.5130    5.1470 O.co2     1 KEU810      0.0000 
     39 H          10.0469   88.8035    1.2599 H         1 KEU810      0.0000 
     40 H           8.2957   88.8227    0.9903 H         1 KEU810      0.0000 
     41 H           8.3002   91.2483    1.8533 H         1 KEU810      0.0000 
     42 H           9.9938   90.9991    2.3112 H         1 KEU810      0.0000 
     43 H           9.1328   88.9505    3.6396 H         1 KEU810      0.0000 
     44 H           6.4909   90.3092    3.1751 H         1 KEU810      0.0000 
     45 H           5.2418   86.0032    3.7728 H         1 KEU810      0.0000 
     46 H           2.7529   85.6914    3.6127 H         1 KEU810      0.0000 
     47 H           2.3537   89.6858    2.0436 H         1 KEU810      0.0000 
     48 H           4.8100   89.9867    2.1946 H         1 KEU810      0.0000 
     49 H           0.5102   88.8317    2.4235 H         1 KEU810      0.0000 
     50 H           0.6965   87.0059    4.7209 H         1 KEU810      0.0000 
     51 H          -0.9023   87.3406    4.0342 H         1 KEU810      0.0000 
     52 H           0.1990   89.7869    3.7792 H         1 KEU810      0.0000 
     53 H           1.1451   89.2307    5.1705 H         1 KEU810      0.0000 
     54 H          -1.5600   88.7121    5.8117 H         1 KEU810      0.0000 
     55 H          -1.4842   90.3727    5.1980 H         1 KEU810      0.0000 
     56 H           0.9120   89.1597    6.4302 H         1 KEU810      0.0000 
     57 H          -0.1307   88.4422    9.9088 H         1 KEU810      0.0000 
     58 H          -0.2264   90.9938   10.0043 H         1 KEU810      0.0000 
     59 H           1.8454   90.2895    6.8969 H         1 KEU810      0.0000 
     60 H          -0.9923   86.0520    2.7799 H         1 KEU810      0.0000 
     61 H           0.9768   85.2660    2.4678 H         1 KEU810      0.0000 
@<TRIPOS>BOND
     1    2    1 ar   
     2    3    2 ar   
     3    4    2 1    
     4    5    4 1    
     5   39    4 1    
     6   40    4 1    
     7    6    5 1    
     8   41    5 1    
     9   42    5 1    
    10    7    6 1    
    11   36    6 1    
    12   43    6 1    
    13    8    7 am   
    14   44    7 1    
    15    9    8 2    
    16   10    8 1    
    17   11   10 ar   
    18   15   10 ar   
    19   12   11 ar   
    20   45   11 1    
    21   13   12 ar   
    22   46   12 1    
    23   14   13 ar   
    24   16   13 1    
    25   15   14 ar   
    26   47   14 1    
    27   48   15 1    
    28   17   16 1    
    29   29   16 1    
    30   49   16 1    
    31   18   17 1    
    32   50   17 1    
    33   51   17 1    
    34   19   18 1    
    35   52   18 1    
    36   53   18 1    
    37   20   19 1    
    38   54   19 1    
    39   55   19 1    
    40   21   20 1    
    41   27   20 1    
    42   56   20 1    
    43   22   21 2    
    44   23   21 am   
    45   24   23 1    
    46   57   23 1    
    47   25   24 1    
    48   26   24 1    
    49   58   24 1    
    50   27   26 1    
    51   28   27 1    
    52   59   27 1    
    53   30   29 1    
    54   31   29 1    
    55   32   29 1    
    56   60   30 1    
    57   61   31 1    
    58   33   32 1    
    59   34   32 1    
    60   35   32 1    
    61   37   36 ar   
    62   38   36 ar   
@<TRIPOS>SUBSTRUCTURE
     1 KEU810      1 GROUP   
@<TRIPOS>SET

