#    Name: 2qe0_NAP_4_INTS_M
#    Modification time : Mon Mar 24 21:49:46 2014

@<TRIPOS>MOLECULE
2qe0_NAP_4_INTS_M
   86     0    12     0     0
SMALL
NO_CHARGES


@<TRIPOS>ATOM
      1 N        -145.8760   50.5565   54.5600 N.am      2 SEC2        0.0000 
      2 N        -147.1800   51.3110   54.6140 N.am     10 SEL2        0.0000 
      3 N        -144.5720   49.8020   54.5060 N.am      6 SEP2        0.0000 
      4 N        -147.0305   50.2570   55.4735 N.am      2 SEC2        0.0000 
      5 N        -146.8810   49.2030   56.3330 N.am      6 SEP2        0.0000 
      6 CA       -144.6690   54.6480   51.8730 C.3       4 GLC5        0.0000 
      7 CA       -146.3160   53.4410   52.3110 C.3      12 GLL5        0.0000 
      8 CA       -143.0220   55.8550   51.4350 C.3       8 GLP5        0.0000 
      9 CA       -144.9820   52.1820   52.4495 C.3       4 GLC5        0.0000 
     10 CA       -143.6480   50.9230   52.5880 C.3       8 GLP5        0.0000 
     11 O        -146.4685   56.1410   49.8305 O.2       1 ALC1        0.0000 
     12 O        -147.8520   56.0710   50.1650 O.2       9 ALL1        0.0000 
     13 O        -145.0850   56.2110   49.4960 O.2       5 ALP1        0.0000 
     14 N        -150.7035   57.1845   50.8840 N.am      2 SEC2        0.0000 
     15 N        -150.1470   56.2620   51.8590 N.am     10 SEL2        0.0000 
     16 N        -151.2600   58.1070   49.9090 N.am      6 SEP2        0.0000 
     17 CA       -148.7415   53.8555   49.5770 C.3       4 GLC5        0.0000 
     18 CA       -149.5850   53.9990   51.2350 C.3      12 GLL5        0.0000 
     19 CA       -147.8980   53.7120   47.9190 C.3       8 GLP5        0.0000 
     20 CA       -148.4775   52.2250   50.7510 C.3       4 GLC5        0.0000 
     21 CA       -147.3700   50.4510   50.2670 C.3       8 GLP5        0.0000 
     22 O        -155.5140   49.4365   51.7005 O.2       1 ALC1        0.0000 
     23 O        -154.3730   50.3340   52.2510 O.2       9 ALL1        0.0000 
     24 O        -156.6550   48.5390   51.1500 O.2       5 ALP1        0.0000 
     25 CA       -151.1130   51.5335   47.7680 C.3       4 GLC5        0.0000 
     26 CA       -152.4400   51.1720   49.3970 C.3      12 GLL5        0.0000 
     27 CA       -149.7860   51.8950   46.1390 C.3       8 GLP5        0.0000 
     28 CA       -154.0715   51.9670   49.4675 C.3       4 GLC5        0.0000 
     29 CA       -155.7030   52.7620   49.5380 C.3       8 GLP5        0.0000 
     30 CA       -152.8570   50.2695   47.8090 C.3       4 GLC5        0.0000 
     31 CA       -153.2740   49.3670   46.2210 C.3       8 GLP5        0.0000 
     32 CA       -151.2025   50.1225   50.8095 C.3       4 GLC5        0.0000 
     33 CA       -149.9650   49.0730   52.2220 C.3       8 GLP5        0.0000 
     34 CA       -151.1130   49.6610   48.9865 C.3       4 GLC5        0.0000 
     35 CA       -149.7860   48.1500   48.5760 C.3       8 GLP5        0.0000 
     36 N        -145.0075   51.4230   54.9400 N.am      2 SEC2        0.0000 
     37 N        -145.4430   53.0440   55.3740 N.am     10 SEL2        0.0000 
     38 N        -143.6860   56.5335   53.9290 N.am      2 SEC2        0.0000 
     39 N        -144.6010   55.5060   54.6810 N.am     10 SEL2        0.0000 
     40 N        -142.7710   57.5610   53.1770 N.am      6 SEP2        0.0000 
     41 CA       -142.3225   53.5830   53.4700 C.3       4 GLC5        0.0000 
     42 CA       -142.6560   52.3350   55.0270 C.3      12 GLL5        0.0000 
     43 CA       -141.9890   54.8310   51.9130 C.3       8 GLP5        0.0000 
     44 CA       -142.3125   50.5880   54.0730 C.3       4 GLC5        0.0000 
     45 CA       -140.9770   50.2530   55.5580 C.3      12 GLL5        0.0000 
     46 O        -140.2925   49.3245   62.8760 O.2       1 ALC1        0.0000 
     47 O        -140.9170   49.7440   61.9610 O.2       9 ALL1        0.0000 
     48 O        -139.6680   48.9050   63.7910 O.2       5 ALP1        0.0000 
     49 NZ       -150.3225   58.0930   51.6590 N.4       3 LYC4        0.0000 
     50 NZ       -149.3850   58.0790   53.4090 N.4      11 LYL4        0.0000 
     51 NZ       -151.2600   58.1070   49.9090 N.4       7 LYP4        0.0000 
     52 N        -149.2065   59.2095   52.8835 N.am      2 SEC2        0.0000 
     53 N        -149.3850   58.0790   53.4090 N.am     10 SEL2        0.0000 
     54 N        -149.0280   60.3400   52.3580 N.am      6 SEP2        0.0000 
     55 NZ       -151.4940   58.0460   51.2585 N.4       3 LYC4        0.0000 
     56 NZ       -151.7280   57.9850   52.6080 N.4      11 LYL4        0.0000 
     57 N        -151.4940   58.0460   51.2585 N.am      2 SEC2        0.0000 
     58 N        -151.7280   57.9850   52.6080 N.am     10 SEL2        0.0000 
     59 N        -151.8110   59.2715   52.7410 N.am      2 SEC2        0.0000 
     60 N        -151.8940   60.5580   52.8740 N.am      6 SEP2        0.0000 
     61 N        -152.9600   57.3580   52.5310 N.am      2 SEC2        0.0000 
     62 N        -154.1920   56.7310   52.4540 N.am      6 SEP2        0.0000 
     63 CA       -147.0613   52.0943   51.0057 C.3       4 GLC5        0.0000 
     64 CA       -147.1890   54.0340   51.1780 C.3      12 GLL5        0.0000 
     65 CA       -147.6815   54.2363   49.6155 C.3       4 GLC5        0.0000 
     66 CA       -147.9207   57.1980   51.4070 C.3       4 GLC5        0.0000 
     67 CA       -147.7410   55.4870   51.4460 C.3      12 GLL5        0.0000 
     68 CA       -147.3930   59.0350   51.0790 C.3       8 GLP5        0.0000 
     69 CA       -153.1477   53.6146   51.7444 C.3       4 GLC5        0.0000 
     70 CA       -152.4150   51.8720   52.0260 C.3      12 GLL5        0.0000 
     71 CA       -154.0820   55.3360   52.0510 C.3       8 GLP5        0.0000 
     72 CA       -153.9583   52.3276   50.4879 C.3       4 GLC5        0.0000 
     73 CA       -151.0892   50.4831   51.8299 C.3       4 GLC5        0.0000 
     74 CA       -153.3870   50.9390   51.5210 C.3      12 GLL5        0.0000 
     75 CA       -142.7910   51.4900   53.8483 C.3       4 GLC5        0.0000 
     76 CA       -143.2520   50.4560   55.3567 C.3       4 GLC5        0.0000 
     77 CA       -144.5700   48.8550   55.6050 C.3       8 GLP5        0.0000 
     78 CA       -142.9103   49.5057   55.9230 C.3       4 GLC5        0.0000 
     79 CA       -140.2353   48.2998   56.2130 C.3       4 GLC5        0.0000 
     80 CA       -141.5240   50.0600   56.9240 C.3      12 GLL5        0.0000 
     81 CA       -139.2200   46.4430   56.1850 C.3       8 GLP5        0.0000 
     82 CA       -140.7549   52.4515   61.1981 C.3       4 GLC5        0.0000 
     83 CA       -141.6220   50.9460   59.7130 C.3      12 GLL5        0.0000 
     84 CA       -138.9750   53.1230   61.8320 C.3       8 GLP5        0.0000 
     85 CA       -139.7343   51.9493   56.9236 C.3       4 GLC5        0.0000 
     86 CA       -138.3140   53.0450   57.5660 C.3       8 GLP5        0.0000 
@<TRIPOS>BOND
@<TRIPOS>SUBSTRUCTURE
     1 ALC1       11 GROUP        1 X    ALC  0     ROOT ALC X 1
     2 SEC2        1 GROUP        1 X    SEC  0     **** SEC X 2
     3 LYC4       49 GROUP        1 X    LYC  0     **** LYC X 4
     4 GLC5        6 GROUP        1 X    GLC  0     **** GLC X 6
     5 ALP1       13 GROUP        1 Y    ALP  0     ROOT ALP Y 8
     6 SEP2        3 GROUP        1 Y    SEP  0     **** SEP Y 9
     7 LYP4       51 GROUP        1 Y    LYP  0     **** LYP Y 11
     8 GLP5        8 GROUP        1 Y    GLP  0     **** GLP Y 13
     9 ALL1       12 GROUP        1 Z    ALL  0     ROOT ALL Z 15
    10 SEL2        2 GROUP        1 Z    SEL  0     **** SEL Z 16
    11 LYL4       50 GROUP        1 Z    LYL  0     **** LYL Z 18
    12 GLL5        7 GROUP        1 Z    GLL  0     **** GLL Z 20
@<TRIPOS>SET

