#    Name: 2qe0_NAP_4_ligand
#    Modification time : Mon Mar 24 21:49:46 2014

@<TRIPOS>MOLECULE
2qe0_NAP_4_ligand
   72    76     1     0     0
SMALL
NO_CHARGES


@<TRIPOS>ATOM
      1 PA       -146.9840   52.7560   54.8510 P.3       1 NAP4476     0.0000 
      2 O1A      -147.1800   51.3110   54.6140 O.co2     1 NAP4476     0.0000 
      3 O2A      -148.0070   53.3270   55.7130 O.co2     1 NAP4476     0.0000 
      4 O5B      -147.2270   53.4390   53.4260 O.3       1 NAP4476     0.0000 
      5 C5B      -146.3160   53.4410   52.3110 C.3       1 NAP4476     0.0000 
      6 C4B      -147.1890   54.0340   51.1780 C.3       1 NAP4476     0.0000 
      7 O4B      -148.3960   53.1800   51.0500 O.3       1 NAP4476     0.0000 
      8 C3B      -147.7410   55.4870   51.4460 C.3       1 NAP4476     0.0000 
      9 O3B      -147.8520   56.0710   50.1650 O.3       1 NAP4476     0.0000 
     10 C2B      -149.1560   55.2350   52.0240 C.3       1 NAP4476     0.0000 
     11 O2B      -150.1470   56.2620   51.8590 O.3       1 NAP4476     0.0000 
     12 C1B      -149.5850   53.9990   51.2350 C.3       1 NAP4476     0.0000 
     13 N9A      -150.6820   53.2320   51.8160 N.pl3     1 NAP4476     0.0000 
     14 C8A      -151.0520   53.2190   53.1190 C.2       1 NAP4476     0.0000 
     15 N7A      -152.1090   52.4230   53.2670 N.2       1 NAP4476     0.0000 
     16 C5A      -152.4150   51.8720   52.0260 C.ar      1 NAP4476     0.0000 
     17 C6A      -153.3870   50.9390   51.5210 C.ar      1 NAP4476     0.0000 
     18 N6A      -154.3730   50.3340   52.2510 N.pl3     1 NAP4476     0.0000 
     19 N1A      -153.3600   50.6050   50.2140 N.ar      1 NAP4476     0.0000 
     20 C2A      -152.4400   51.1720   49.3970 C.ar      1 NAP4476     0.0000 
     21 N3A      -151.5130   52.0700   49.7680 N.ar      1 NAP4476     0.0000 
     22 C4A      -151.5260   52.3810   51.1020 C.ar      1 NAP4476     0.0000 
     23 O3       -145.4430   53.0440   55.3740 O.3       1 NAP4476     0.0000 
     24 PN       -144.4010   54.3010   55.6960 P.3       1 NAP4476     0.0000 
     25 O1N      -144.6530   54.3960   57.2140 O.co2     1 NAP4476     0.0000 
     26 O2N      -144.6010   55.5060   54.6810 O.co2     1 NAP4476     0.0000 
     27 O5D      -142.8540   53.7090   55.4580 O.3       1 NAP4476     0.0000 
     28 C5D      -142.6560   52.3350   55.0270 C.3       1 NAP4476     0.0000 
     29 C4D      -141.2120   51.7790   55.1900 C.3       1 NAP4476     0.0000 
     30 O4D      -140.7560   52.3600   56.4080 O.3       1 NAP4476     0.0000 
     31 C3D      -140.9770   50.2530   55.5580 C.3       1 NAP4476     0.0000 
     32 O3D      -139.6810   50.0540   56.1850 O.3       1 NAP4476     0.0000 
     33 C2D      -141.5240   50.0600   56.9240 C.3       1 NAP4476     0.0000 
     34 O2D      -140.7590   48.9920   57.4860 O.3       1 NAP4476     0.0000 
     35 C1D      -140.9050   51.3220   57.4530 C.3       1 NAP4476     0.0000 
     36 N1N      -141.7110   51.7580   58.6210 N.pl3     1 NAP4476     0.0000 
     37 C2N      -141.6220   50.9460   59.7130 C.ar      1 NAP4476     0.0000 
     38 C3N      -142.3110   51.2840   60.8340 C.ar      1 NAP4476     0.0000 
     39 C7N      -142.1340   50.3250   61.9150 C.2       1 NAP4476     0.0000 
     40 O7N      -143.1100   50.0180   62.6570 O.2       1 NAP4476     0.0000 
     41 N7N      -140.9170   49.7440   61.9610 N.am      1 NAP4476     0.0000 
     42 C4N      -143.1030   52.4450   60.8550 C.ar      1 NAP4476     0.0000 
     43 C5N      -143.2080   53.2620   59.7220 C.ar      1 NAP4476     0.0000 
     44 C6N      -142.4730   52.9000   58.5990 C.ar      1 NAP4476     0.0000 
     45 P2B      -150.5460   57.2370   53.1130 P.3       1 NAP4476     0.0000 
     46 O1X      -150.8490   56.3320   54.2650 O.co2     1 NAP4476     0.0000 
     47 O2X      -149.3850   58.0790   53.4090 O.co2     1 NAP4476     0.0000 
     48 O3X      -151.7280   57.9850   52.6080 O.co2     1 NAP4476     0.0000 
     49 H        -146.0247   52.4605   52.0224 H         1 NAP4476     0.0000 
     50 H        -145.4890   54.0911   52.4630 H         1 NAP4476     0.0000 
     51 H        -146.6564   54.0349   50.2620 H         1 NAP4476     0.0000 
     52 H        -147.1444   55.9508   52.1158 H         1 NAP4476     0.0000 
     53 H        -149.0371   54.9086   53.0424 H         1 NAP4476     0.0000 
     54 H        -149.8875   54.3680   50.2288 H         1 NAP4476     0.0000 
     55 H        -150.6064   53.7180   53.8262 H         1 NAP4476     0.0000 
     56 H        -152.4574   50.8730   48.3586 H         1 NAP4476     0.0000 
     57 H        -142.9304   52.2123   53.9525 H         1 NAP4476     0.0000 
     58 H        -143.3334   51.6432   55.5815 H         1 NAP4476     0.0000 
     59 H        -140.5908   52.0501   54.4051 H         1 NAP4476     0.0000 
     60 H        -141.2531   49.5981   54.9407 H         1 NAP4476     0.0000 
     61 H        -142.4797   50.0542   56.9669 H         1 NAP4476     0.0000 
     62 H        -139.8991   51.0460   57.8294 H         1 NAP4476     0.0000 
     63 H        -141.0441   50.0952   59.6860 H         1 NAP4476     0.0000 
     64 H        -140.2558   50.0530   61.2774 H         1 NAP4476     0.0000 
     65 H        -140.7845   49.0561   62.6746 H         1 NAP4476     0.0000 
     66 H        -143.6113   52.6962   61.7145 H         1 NAP4476     0.0000 
     67 H        -143.7967   54.0818   59.7259 H         1 NAP4476     0.0000 
     68 H        -142.5050   53.4918   57.7567 H         1 NAP4476     0.0000 
     69 H        -146.9098   56.1838   49.8496 H         1 NAP4476     0.0000 
     70 H        -154.9282   49.8434   51.5793 H         1 NAP4476     0.0000 
     71 H        -139.7514   49.1715   56.6501 H         1 NAP4476     0.0000 
     72 H        -140.6918   49.2067   58.4603 H         1 NAP4476     0.0000 
@<TRIPOS>BOND
     1    2    1 ar   
     2    3    1 ar   
     3    4    1 1    
     4   23    1 1    
     5    5    4 1    
     6    6    5 1    
     7   49    5 1    
     8   50    5 1    
     9    7    6 1    
    10    8    6 1    
    11   51    6 1    
    12   12    7 1    
    13    9    8 1    
    14   10    8 1    
    15   52    8 1    
    16   69    9 1    
    17   11   10 1    
    18   12   10 1    
    19   53   10 1    
    20   45   11 1    
    21   13   12 1    
    22   54   12 1    
    23   14   13 1    
    24   22   13 1    
    25   15   14 2    
    26   55   14 1    
    27   16   15 1    
    28   17   16 ar   
    29   22   16 ar   
    30   18   17 1    
    31   19   17 ar   
    32   70   18 1    
    33   20   19 ar   
    34   21   20 ar   
    35   56   20 1    
    36   22   21 ar   
    37   24   23 1    
    38   25   24 ar   
    39   26   24 ar   
    40   27   24 1    
    41   28   27 1    
    42   29   28 1    
    43   57   28 1    
    44   58   28 1    
    45   30   29 1    
    46   31   29 1    
    47   59   29 1    
    48   35   30 1    
    49   32   31 1    
    50   33   31 1    
    51   60   31 1    
    52   71   32 1    
    53   34   33 1    
    54   35   33 1    
    55   61   33 1    
    56   72   34 1    
    57   36   35 1    
    58   62   35 1    
    59   37   36 ar   
    60   44   36 ar   
    61   38   37 ar   
    62   63   37 1    
    63   39   38 1    
    64   42   38 ar   
    65   40   39 2    
    66   41   39 am   
    67   64   41 1    
    68   65   41 1    
    69   43   42 ar   
    70   66   42 1    
    71   44   43 ar   
    72   67   43 1    
    73   68   44 1    
    74   46   45 ar   
    75   47   45 ar   
    76   48   45 ar   
@<TRIPOS>SUBSTRUCTURE
     1 NAP4476     1 GROUP   
@<TRIPOS>SET

