#    Name: 1riw_OSC_1_INTS_M
#    Modification time : Tue Mar 25 00:44:05 2014

@<TRIPOS>MOLECULE
1riw_OSC_1_INTS_M
   83     0    12     0     0
SMALL
NO_CHARGES


@<TRIPOS>ATOM
      1 CA         18.0780  -11.3770   22.8980 C.3       4 GLC5        0.0000 
      2 CA         18.3810  -12.2470   21.1490 C.3      12 GLL5        0.0000 
      3 CA         17.7750  -10.5070   24.6470 C.3       8 GLP5        0.0000 
      4 CA         19.6240  -10.7575   19.0190 C.3       4 GLC5        0.0000 
      5 CA         19.5200  -12.3060   20.1090 C.3      12 GLL5        0.0000 
      6 CA         19.7280   -9.2090   17.9290 C.3       8 GLP5        0.0000 
      7 N          15.9405  -12.4060   24.2775 N.am      2 SEC2        0.0000 
      8 N          16.7260  -13.1460   23.3220 N.am     10 SEL2        0.0000 
      9 N          15.1550  -11.6660   25.2330 N.am      6 SEP2        0.0000 
     10 CA         23.0980  -14.1995   19.4375 C.3       4 GLC5        0.0000 
     11 CA         21.4710  -13.8360   19.6810 C.3      12 GLL5        0.0000 
     12 CA         24.7250  -14.5630   19.1940 C.3       8 GLP5        0.0000 
     13 O          17.0800   -9.6860   21.2000 O.2       1 ALC1        0.0000 
     14 O          16.5950  -10.7680   20.2880 O.2       9 ALL1        0.0000 
     15 O          17.5650   -8.6040   22.1120 O.2       5 ALP1        0.0000 
     16 CA         17.8420  -13.4770   26.3530 C.3       4 GLC5        0.0000 
     17 CA         18.1880  -15.1470   25.0260 C.3      12 GLL5        0.0000 
     18 CA         17.4960  -11.8070   27.6800 C.3       8 GLP5        0.0000 
     19 O          15.4505  -15.1165   24.1550 O.2       1 ALC1        0.0000 
     20 O          16.4580  -15.9760   23.4660 O.2       9 ALL1        0.0000 
     21 O          14.4430  -14.2570   24.8440 O.2       5 ALP1        0.0000 
     22 CA         22.6140  -14.8735   18.2565 C.3       4 GLC5        0.0000 
     23 CA         20.8400  -14.7580   18.5940 C.3      12 GLL5        0.0000 
     24 CA         24.3880  -14.9890   17.9190 C.3       8 GLP5        0.0000 
     25 CA         21.2945  -11.4660   24.0910 C.3       4 GLC5        0.0000 
     26 CA         21.2890  -12.9790   25.6940 C.3      12 GLL5        0.0000 
     27 CA         21.3000   -9.9530   22.4880 C.3       8 GLP5        0.0000 
     28 CA         21.5250  -13.0040   27.7430 C.3       4 GLC5        0.0000 
     29 CA         21.7610  -13.0290   29.7920 C.3       8 GLP5        0.0000 
     30 N          12.9570  -16.7200   24.0470 N.am      2 SEC2        0.0000 
     31 N          13.9840  -16.8740   22.8990 N.am     10 SEL2        0.0000 
     32 N          11.9300  -16.5660   25.1950 N.am      6 SEP2        0.0000 
     33 CA         13.0125   -7.9035   22.0935 C.3       4 GLC5        0.0000 
     34 CA         13.1040   -9.7600   22.7550 C.3      12 GLL5        0.0000 
     35 CA         12.9210   -6.0470   21.4320 C.3       8 GLP5        0.0000 
     36 CA         13.6395  -11.0080   24.4355 C.3       4 GLC5        0.0000 
     37 CA         14.1750  -12.2560   26.1160 C.3       8 GLP5        0.0000 
     38 CA         22.9925  -12.2830   23.8435 C.3       4 GLC5        0.0000 
     39 CA         22.3210  -13.8010   25.1950 C.3      12 GLL5        0.0000 
     40 CA         23.6640  -10.7650   22.4920 C.3       8 GLP5        0.0000 
     41 CA         13.4035  -12.1610   24.4190 C.3       4 GLC5        0.0000 
     42 CA         12.6320  -12.0660   22.7220 C.3      12 GLL5        0.0000 
     43 CA         10.8315  -12.9235   22.1575 C.3       4 GLC5        0.0000 
     44 CA          9.0310  -13.7810   21.5930 C.3       8 GLP5        0.0000 
     45 OD1         9.4055  -11.4315   25.4495 O.co2     3 ASC3        0.0000 
     46 OD1        11.2620  -10.6050   24.3040 O.co2    11 ASL3        0.0000 
     47 OD1         8.2220  -11.1760   26.0780 O.co2     7 ASP3        0.0000 
     48 OD1         9.7095   -9.1955   25.3135 O.co2     3 ASC3        0.0000 
     49 OD1         8.4470   -8.9880   25.9080 O.co2     7 ASP3        0.0000 
     50 CA          9.7190  -19.2880   22.7195 C.3       4 GLC5        0.0000 
     51 CA         11.3850  -20.4150   23.5930 C.3      12 GLL5        0.0000 
     52 CA          8.0530  -18.1610   21.8460 C.3       8 GLP5        0.0000 
     53 O           9.4055  -11.4315   25.4495 O.2       1 ALC1        0.0000 
     54 O          10.5890  -11.6870   24.8210 O.2       9 ALL1        0.0000 
     55 O           8.2220  -11.1760   26.0780 O.2       5 ALP1        0.0000 
     56 O          10.6075  -13.0695   24.6235 O.2       1 ALC1        0.0000 
     57 O          10.6260  -14.4520   24.4260 O.2       5 ALP1        0.0000 
     58 O          10.2795  -11.9835   26.4310 O.2       1 ALC1        0.0000 
     59 O           9.9700  -12.2800   28.0410 O.2       5 ALP1        0.0000 
     60 O           9.7095   -9.1955   25.3135 O.2       1 ALC1        0.0000 
     61 O          10.9720   -9.4030   24.7190 O.2       9 ALL1        0.0000 
     62 O           8.4470   -8.9880   25.9080 O.2       5 ALP1        0.0000 
     63 CA         20.5109  -11.3754   21.5910 C.3       4 GLC5        0.0000 
     64 CA         20.3558  -16.4772   17.5382 C.3       4 GLC5        0.0000 
     65 CA         20.2740  -17.6170   16.1580 C.3       8 GLP5        0.0000 
     66 CA         15.2342   -8.7112   18.7290 C.3       4 GLC5        0.0000 
     67 CA         15.3240  -10.5270   19.5950 C.3      12 GLL5        0.0000 
     68 CA         15.5950   -7.3540   17.4400 C.3       8 GLP5        0.0000 
     69 CA         20.0160  -14.5220   27.4485 C.3       4 GLC5        0.0000 
     70 CA         19.9470  -13.4180   25.6400 C.3      12 GLL5        0.0000 
     71 CA         20.2410  -14.9950   29.5330 C.3       8 GLP5        0.0000 
     72 CA         13.4830   -8.0225   21.2035 C.3       4 GLC5        0.0000 
     73 CA         13.6670  -10.3860   21.5090 C.3      12 GLL5        0.0000 
     74 CA         19.1965  -11.8527   25.1570 C.3       4 GLC5        0.0000 
     75 CA         23.2920  -12.4325   26.3233 C.3       4 GLC5        0.0000 
     76 CA         24.7790  -11.4750   27.2020 C.3       8 GLP5        0.0000 
     77 CA         14.9236  -10.0916   23.1166 C.3       4 GLC5        0.0000 
     78 CA         16.4340   -9.8870   24.2390 C.3       8 GLP5        0.0000 
     79 CA         11.2434  -11.0931   21.2206 C.3       4 GLC5        0.0000 
     80 CA          9.4040  -10.6400   20.3300 C.3       8 GLP5        0.0000 
     81 CA         11.2645  -18.4165   24.2265 C.3       4 GLC5        0.0000 
     82 CA         12.4830  -19.5950   23.9250 C.3      12 GLL5        0.0000 
     83 CA         10.5950  -16.8280   24.6940 C.3       8 GLP5        0.0000 
@<TRIPOS>BOND
@<TRIPOS>SUBSTRUCTURE
     1 ALC1       13 GROUP        1 X    ALC  0     ROOT ALC X 1
     2 SEC2        7 GROUP        1 X    SEC  0     **** SEC X 2
     3 ASC3       45 GROUP        1 X    ASC  0     **** ASC X 3
     4 GLC5        1 GROUP        1 X    GLC  0     **** GLC X 6
     5 ALP1       15 GROUP        1 Y    ALP  0     ROOT ALP Y 8
     6 SEP2        9 GROUP        1 Y    SEP  0     **** SEP Y 9
     7 ASP3       47 GROUP        1 Y    ASP  0     **** ASP Y 10
     8 GLP5        3 GROUP        1 Y    GLP  0     **** GLP Y 13
     9 ALL1       14 GROUP        1 Z    ALL  0     ROOT ALL Z 15
    10 SEL2        8 GROUP        1 Z    SEL  0     **** SEL Z 16
    11 ASL3       46 GROUP        1 Z    ASL  0     **** ASL Z 17
    12 GLL5        2 GROUP        1 Z    GLL  0     **** GLL Z 20
@<TRIPOS>SET

