#    Name: 1riw_OSC_1_ligand
#    Modification time : Tue Mar 25 00:44:05 2014

@<TRIPOS>MOLECULE
1riw_OSC_1_ligand
   90    94     1     0     0
SMALL
NO_CHARGES


@<TRIPOS>ATOM
      1 N1         18.4050  -13.5480   21.8650 N.am      1 OSC1001     0.0000 
      2 C2         19.4900  -14.3840   21.2580 C.3       1 OSC1001     0.0000 
      3 C3         18.3810  -12.2470   21.1490 C.3       1 OSC1001     0.0000 
      4 C4         17.5840  -13.9150   22.9060 C.2       1 OSC1001     0.0000 
      5 C5         20.4930  -13.3190   20.7590 C.3       1 OSC1001     0.0000 
      6 C6         18.9240  -15.3080   20.1270 C.3       1 OSC1001     0.0000 
      7 C7         19.5200  -12.3060   20.1090 C.3       1 OSC1001     0.0000 
      8 C8         17.0690  -12.0270   20.4460 C.2       1 OSC1001     0.0000 
      9 C9         17.7360  -15.2770   23.5560 C.3       1 OSC1001     0.0000 
     10 O10        16.7260  -13.1460   23.3220 O.2       1 OSC1001     0.0000 
     11 C11        21.4710  -13.8360   19.6810 C.3       1 OSC1001     0.0000 
     12 C12        20.0350  -15.9170   19.2430 C.3       1 OSC1001     0.0000 
     13 N13        16.5950  -10.7680   20.2880 N.am      1 OSC1001     0.0000 
     14 O14        16.4520  -12.9840   20.0210 O.2       1 OSC1001     0.0000 
     15 C15        18.1880  -15.1470   25.0260 C.3       1 OSC1001     0.0000 
     16 N16        16.4580  -15.9760   23.4660 N.am      1 OSC1001     0.0000 
     17 C17        20.8400  -14.7580   18.5940 C.3       1 OSC1001     0.0000 
     18 O18        20.9030  -16.7430   20.0270 O.3       1 OSC1001     0.0000 
     19 C19        15.3240  -10.5270   19.5950 C.3       1 OSC1001     0.0000 
     20 C20        19.6350  -14.6800   25.0880 C.ar      1 OSC1001     0.0000 
     21 C21        16.3590  -17.1460   22.7830 C.2       1 OSC1001     0.0000 
     22 C22        14.4230   -9.6100   20.4410 C.3       1 OSC1001     0.0000 
     23 C23        19.9470  -13.4180   25.6400 C.ar      1 OSC1001     0.0000 
     24 C24        20.6780  -15.5050   24.5880 C.ar      1 OSC1001     0.0000 
     25 C25        15.0270  -17.8340   22.6890 C.3       1 OSC1001     0.0000 
     26 O26        17.3370  -17.6390   22.2380 O.2       1 OSC1001     0.0000 
     27 C27        13.6670  -10.3860   21.5090 C.2       1 OSC1001     0.0000 
     28 C28        21.2890  -12.9790   25.6940 C.ar      1 OSC1001     0.0000 
     29 C29        22.0160  -15.0640   24.6430 C.ar      1 OSC1001     0.0000 
     30 C30        14.9200  -18.9580   23.7300 C.3       1 OSC1001     0.0000 
     31 O31        13.9840  -16.8740   22.8990 O.3       1 OSC1001     0.0000 
     32 C32        13.1040   -9.7600   22.7550 C.3       1 OSC1001     0.0000 
     33 C33        13.4000  -11.6670   21.4920 C.2       1 OSC1001     0.0000 
     34 C34        22.3210  -13.8010   25.1950 C.ar      1 OSC1001     0.0000 
     35 C35        13.7510  -19.8490   23.3690 C.ar      1 OSC1001     0.0000 
     36 N36        12.2350  -10.7910   23.3500 N.pl3     1 OSC1001     0.0000 
     37 C37        12.6320  -12.0660   22.7220 C.3       1 OSC1001     0.0000 
     38 C38        13.9230  -20.9320   22.4740 C.ar      1 OSC1001     0.0000 
     39 C39        12.4830  -19.5950   23.9250 C.ar      1 OSC1001     0.0000 
     40 C40        11.2620  -10.6050   24.3040 C.cat     1 OSC1001     0.0000 
     41 C41        12.8230  -21.7550   22.1410 C.ar      1 OSC1001     0.0000 
     42 C42        11.3850  -20.4150   23.5930 C.ar      1 OSC1001     0.0000 
     43 N43        10.5890  -11.6870   24.8210 N.pl3     1 OSC1001     0.0000 
     44 N44        10.9720   -9.4030   24.7190 N.pl3     1 OSC1001     0.0000 
     45 C45        11.5540  -21.4920   22.7020 C.ar      1 OSC1001     0.0000 
     46 H          19.9542  -14.9619   22.0141 H         1 OSC1001     0.0000 
     47 H          18.5884  -11.4494   21.8198 H         1 OSC1001     0.0000 
     48 H          20.9656  -12.8669   21.5551 H         1 OSC1001     0.0000 
     49 H          18.2509  -14.7177   19.5038 H         1 OSC1001     0.0000 
     50 H          18.3526  -16.1122   20.5923 H         1 OSC1001     0.0000 
     51 H          19.9842  -11.3681   20.0367 H         1 OSC1001     0.0000 
     52 H          19.1566  -12.6963   19.2057 H         1 OSC1001     0.0000 
     53 H          18.4973  -15.8273   23.0174 H         1 OSC1001     0.0000 
     54 H          22.2863  -14.3912   20.1758 H         1 OSC1001     0.0000 
     55 H          21.9345  -12.9714   19.1756 H         1 OSC1001     0.0000 
     56 H          19.5617  -16.4672   18.4499 H         1 OSC1001     0.0000 
     57 H          17.0934   -9.9405   20.6390 H         1 OSC1001     0.0000 
     58 H          18.0943  -16.1137   25.5085 H         1 OSC1001     0.0000 
     59 H          17.5494  -14.4277   25.5269 H         1 OSC1001     0.0000 
     60 H          15.6545  -15.5443   23.9372 H         1 OSC1001     0.0000 
     61 H          21.6327  -15.1746   17.9837 H         1 OSC1001     0.0000 
     62 H          20.1751  -14.1669   17.9752 H         1 OSC1001     0.0000 
     63 H          14.7890  -11.4634   19.4236 H         1 OSC1001     0.0000 
     64 H          15.4907  -10.0425   18.6308 H         1 OSC1001     0.0000 
     65 H          13.7102   -9.1103   19.7803 H         1 OSC1001     0.0000 
     66 H          15.0446   -8.8470   20.9161 H         1 OSC1001     0.0000 
     67 H          19.2006  -12.8206   26.0013 H         1 OSC1001     0.0000 
     68 H          20.4534  -16.4174   24.1894 H         1 OSC1001     0.0000 
     69 H          14.9386  -18.2838   21.7074 H         1 OSC1001     0.0000 
     70 H          21.5107  -12.0661   26.0947 H         1 OSC1001     0.0000 
     71 H          22.7655  -15.6579   24.2836 H         1 OSC1001     0.0000 
     72 H          14.7622  -18.5206   24.7061 H         1 OSC1001     0.0000 
     73 H          15.8362  -19.5320   23.7244 H         1 OSC1001     0.0000 
     74 H          12.5334   -8.8877   22.4916 H         1 OSC1001     0.0000 
     75 H          13.9071   -9.5076   23.4237 H         1 OSC1001     0.0000 
     76 H          13.6152  -12.3431   20.8407 H         1 OSC1001     0.0000 
     77 H          23.2914  -13.4821   25.2329 H         1 OSC1001     0.0000 
     78 H          13.2696  -12.6287   23.3764 H         1 OSC1001     0.0000 
     79 H          11.7673  -12.6337   22.4367 H         1 OSC1001     0.0000 
     80 H          14.8411  -21.1179   22.0697 H         1 OSC1001     0.0000 
     81 H          12.3564  -18.8124   24.5728 H         1 OSC1001     0.0000 
     82 H          12.9461  -22.5362   21.4975 H         1 OSC1001     0.0000 
     83 H          10.4662  -20.2267   23.9999 H         1 OSC1001     0.0000 
     84 H           9.9261  -11.4889   25.5430 H         1 OSC1001     0.0000 
     85 H          10.8212  -12.5776   24.4299 H         1 OSC1001     0.0000 
     86 H          10.2565   -9.3383   25.4146 H         1 OSC1001     0.0000 
     87 H          11.4919   -8.6566   24.3034 H         1 OSC1001     0.0000 
     88 H          10.7576  -22.0859   22.4595 H         1 OSC1001     0.0000 
     89 H          21.4804  -16.1656   20.6044 H         1 OSC1001     0.0000 
     90 H          14.1922  -16.1243   22.2708 H         1 OSC1001     0.0000 
@<TRIPOS>BOND
     1    2    1 1    
     2    3    1 1    
     3    4    1 am   
     4    5    2 1    
     5    6    2 1    
     6   46    2 1    
     7    7    3 1    
     8    8    3 1    
     9   47    3 1    
    10    9    4 1    
    11   10    4 2    
    12    7    5 1    
    13   11    5 1    
    14   48    5 1    
    15   12    6 1    
    16   49    6 1    
    17   50    6 1    
    18   51    7 1    
    19   52    7 1    
    20   13    8 am   
    21   14    8 2    
    22   15    9 1    
    23   16    9 1    
    24   53    9 1    
    25   17   11 1    
    26   54   11 1    
    27   55   11 1    
    28   17   12 1    
    29   18   12 1    
    30   56   12 1    
    31   19   13 1    
    32   57   13 1    
    33   20   15 1    
    34   58   15 1    
    35   59   15 1    
    36   21   16 am   
    37   60   16 1    
    38   61   17 1    
    39   62   17 1    
    40   89   18 1    
    41   22   19 1    
    42   63   19 1    
    43   64   19 1    
    44   23   20 ar   
    45   24   20 ar   
    46   25   21 1    
    47   26   21 2    
    48   27   22 1    
    49   65   22 1    
    50   66   22 1    
    51   28   23 ar   
    52   67   23 1    
    53   29   24 ar   
    54   68   24 1    
    55   30   25 1    
    56   31   25 1    
    57   69   25 1    
    58   32   27 1    
    59   33   27 2    
    60   34   28 ar   
    61   70   28 1    
    62   34   29 ar   
    63   71   29 1    
    64   35   30 1    
    65   72   30 1    
    66   73   30 1    
    67   90   31 1    
    68   36   32 1    
    69   74   32 1    
    70   75   32 1    
    71   37   33 1    
    72   76   33 1    
    73   77   34 1    
    74   38   35 ar   
    75   39   35 ar   
    76   37   36 1    
    77   40   36 ar   
    78   78   37 1    
    79   79   37 1    
    80   41   38 ar   
    81   80   38 1    
    82   42   39 ar   
    83   81   39 1    
    84   43   40 ar   
    85   44   40 ar   
    86   45   41 ar   
    87   82   41 1    
    88   45   42 ar   
    89   83   42 1    
    90   84   43 1    
    91   85   43 1    
    92   86   44 1    
    93   87   44 1    
    94   88   45 1    
@<TRIPOS>SUBSTRUCTURE
     1 OSC1001     1 GROUP   
@<TRIPOS>SET

