#    Name: 3lit_E15_1_INTS_M
#    Modification time : Mon Mar 24 21:43:02 2014

@<TRIPOS>MOLECULE
3lit_E15_1_INTS_M
   99     0    12     0     0
SMALL
NO_CHARGES


@<TRIPOS>ATOM
      1 OD1        26.2945   28.2285   25.9940 O.co2     3 ASC3        0.0000 
      2 OD1        25.6170   28.4130   27.1380 O.co2    11 ASL3        0.0000 
      3 OD1        26.9720   28.0440   24.8500 O.co2     7 ASP3        0.0000 
      4 O          26.2945   28.2285   25.9940 O.2       1 ALC1        0.0000 
      5 O          25.6170   28.4130   27.1380 O.2       9 ALL1        0.0000 
      6 O          26.9720   28.0440   24.8500 O.2       5 ALP1        0.0000 
      7 N          23.6460   28.7330   23.8095 N.am      2 SEC2        0.0000 
      8 N          23.7770   29.4310   25.1540 N.am     10 SEL2        0.0000 
      9 N          23.5150   28.0350   22.4650 N.am      6 SEP2        0.0000 
     10 CA         28.0675   32.4075   24.1045 C.3       4 GLC5        0.0000 
     11 CA         26.8600   32.6650   25.5220 C.3      12 GLL5        0.0000 
     12 CA         29.2750   32.1500   22.6870 C.3       8 GLP5        0.0000 
     13 O          22.6055   30.5380   28.3335 O.2       1 ALC1        0.0000 
     14 O          22.3190   30.0660   26.8750 O.2       9 ALL1        0.0000 
     15 O          22.8920   31.0100   29.7920 O.2       5 ALP1        0.0000 
     16 CA         21.3490   29.7805   23.9255 C.3       4 GLC5        0.0000 
     17 CA         21.1520   30.1920   26.0010 C.3      12 GLL5        0.0000 
     18 CA         21.5460   29.3690   21.8500 C.3       8 GLP5        0.0000 
     19 CA         20.5445   25.9455   26.5750 C.3       4 GLC5        0.0000 
     20 CA         20.8570   27.6540   25.6810 C.3      12 GLL5        0.0000 
     21 CA         20.2320   24.2370   27.4690 C.3       8 GLP5        0.0000 
     22 CA         18.7255   29.8965   28.5430 C.3       4 GLC5        0.0000 
     23 CA         19.7360   28.7850   27.6460 C.3      12 GLL5        0.0000 
     24 CA         17.7150   31.0080   29.4400 C.3       8 GLP5        0.0000 
     25 CA         20.2500   28.1320   29.1950 C.3       4 GLC5        0.0000 
     26 CA         20.7640   27.4790   30.7440 C.3       8 GLP5        0.0000 
     27 CA         17.8825   27.4070   25.3910 C.3       4 GLC5        0.0000 
     28 CA         18.9090   29.2200   25.3100 C.3      12 GLL5        0.0000 
     29 CA         16.8560   25.5940   25.4720 C.3       8 GLP5        0.0000 
     30 CA         16.8240   29.2310   24.7695 C.3       4 GLC5        0.0000 
     31 CA         14.7390   29.2420   24.2290 C.3       8 GLP5        0.0000 
     32 O          21.8230   32.0505   23.7015 O.2       1 ALC1        0.0000 
     33 O          20.7750   32.3950   24.8500 O.2       9 ALL1        0.0000 
     34 O          22.8710   31.7060   22.5530 O.2       5 ALP1        0.0000 
     35 N          19.5535   36.1575   22.4070 N.am      2 SEC2        0.0000 
     36 N          18.4060   35.7830   23.1580 N.am     10 SEL2        0.0000 
     37 N          20.7010   36.5320   21.6560 N.am      6 SEP2        0.0000 
     38 CA         20.8865   33.2460   21.9440 C.3       4 GLC5        0.0000 
     39 CA         19.3440   33.6320   23.4140 C.3      12 GLL5        0.0000 
     40 CA         22.4290   32.8600   20.4740 C.3       8 GLP5        0.0000 
     41 CA         23.1360   35.2845   23.2570 C.3       4 GLC5        0.0000 
     42 CA         21.3680   34.8000   24.4970 C.3      12 GLL5        0.0000 
     43 CA         24.9040   35.7690   22.0170 C.3       8 GLP5        0.0000 
     44 N          20.3490   35.1315   21.9285 N.am      2 SEC2        0.0000 
     45 N          19.9970   33.7310   22.2010 N.am     10 SEL2        0.0000 
     46 O          19.3680   33.1755   21.1130 O.2       1 ALC1        0.0000 
     47 O          19.9970   33.7310   22.2010 O.2       9 ALL1        0.0000 
     48 O          18.7390   32.6200   20.0250 O.2       5 ALP1        0.0000 
     49 O          18.8745   32.6310   21.9355 O.2       1 ALC1        0.0000 
     50 O          17.7520   31.5310   21.6700 O.2       5 ALP1        0.0000 
     51 CA         20.4315   36.7080   28.0060 C.3       4 GLC5        0.0000 
     52 CA         21.7530   36.1970   26.7270 C.3      12 GLL5        0.0000 
     53 CA         19.1100   37.2190   29.2850 C.3       8 GLP5        0.0000 
     54 CA         22.8170   37.7735   26.4515 C.3       4 GLC5        0.0000 
     55 CA         22.4980   36.3820   28.0590 C.3      12 GLL5        0.0000 
     56 CA         23.1360   39.1650   24.8440 C.3       8 GLP5        0.0000 
     57 CA         14.5540   35.4165   27.8300 C.3       4 GLC5        0.0000 
     58 CA         13.7950   35.5180   25.9520 C.3      12 GLL5        0.0000 
     59 CA         15.3130   35.3150   29.7080 C.3       8 GLP5        0.0000 
     60 CA         13.8335   33.3270   22.2710 C.3       4 GLC5        0.0000 
     61 CA         13.8840   34.2190   23.7920 C.3      12 GLL5        0.0000 
     62 CA         13.7830   32.4350   20.7500 C.3       8 GLP5        0.0000 
     63 CA         15.3290   34.2605   27.7950 C.3       4 GLC5        0.0000 
     64 CA         15.3450   33.2060   25.8820 C.3      12 GLL5        0.0000 
     65 CA         14.3500   32.1920   27.2340 C.3       4 GLC5        0.0000 
     66 CA         13.3550   31.1780   28.5860 C.3       8 GLP5        0.0000 
     67 CA         17.8850   38.0515   27.8220 C.3       4 GLC5        0.0000 
     68 CA         16.6600   38.8840   26.3590 C.3      12 GLL5        0.0000 
     69 CA         18.6735   39.0805   23.1095 C.3       4 GLC5        0.0000 
     70 CA         18.9160   38.9400   25.2050 C.3      12 GLL5        0.0000 
     71 CA         18.4310   39.2210   21.0140 C.3       8 GLP5        0.0000 
     72 CA         21.0260   39.0525   25.0245 C.3       4 GLC5        0.0000 
     73 CA         19.0130   38.0795   27.2450 C.3       4 GLC5        0.0000 
     74 CA         17.7720   39.9545   22.7785 C.3       4 GLC5        0.0000 
     75 CA         17.1130   40.6880   24.5430 C.3      12 GLL5        0.0000 
     76 CA         18.9785   41.7035   24.9665 C.3       4 GLC5        0.0000 
     77 CA         20.8440   42.7190   25.3900 C.3       8 GLP5        0.0000 
     78 CA         16.3235   41.8020   26.6400 C.3       4 GLC5        0.0000 
     79 CA         15.4570   39.7460   26.8020 C.3      12 GLL5        0.0000 
     80 CA         17.1900   43.8580   26.4780 C.3       8 GLP5        0.0000 
     81 CA         26.7120   32.4865   30.0690 C.3       4 GLC5        0.0000 
     82 CA         27.2060   32.7750   28.1830 C.3      12 GLL5        0.0000 
     83 CA         26.6640   32.8190   31.8570 C.3       8 GLP5        0.0000 
     84 CA         19.9067   28.7662   23.6517 C.3       4 GLC5        0.0000 
     85 CA         20.1010   28.7680   21.6850 C.3       8 GLP5        0.0000 
     86 CA         22.5297   37.3772   25.5648 C.3       4 GLC5        0.0000 
     87 CA         22.0940   34.9820   25.8440 C.3      12 GLL5        0.0000 
     88 CA         22.2780   33.7785   29.2505 C.3       4 GLC5        0.0000 
     89 CA         23.5650   35.3490   28.4810 C.3      12 GLL5        0.0000 
     90 CA         20.8190   32.8130   30.4670 C.3       8 GLP5        0.0000 
     91 CA         21.4322   36.1877   29.3510 C.3       4 GLC5        0.0000 
     92 CA         19.8330   36.5100   30.4320 C.3       8 GLP5        0.0000 
     93 CA         15.3813   31.1620   24.8120 C.3       4 GLC5        0.0000 
     94 CA         16.7020   32.9580   24.9080 C.3      12 GLL5        0.0000 
     95 CA         15.7927   40.0305   28.2108 C.3       4 GLC5        0.0000 
     96 CA         15.5270   40.7460   29.8410 C.3       8 GLP5        0.0000 
     97 CA         19.5823   41.0467   25.4190 C.3       4 GLC5        0.0000 
     98 CA         17.7250   39.8090   25.6910 C.3      12 GLL5        0.0000 
     99 CA         17.3045   42.0532   25.7975 C.3       4 GLC5        0.0000 
@<TRIPOS>BOND
@<TRIPOS>SUBSTRUCTURE
     1 ALC1        4 GROUP        1 X    ALC  0     ROOT ALC X 1
     2 SEC2        7 GROUP        1 X    SEC  0     **** SEC X 2
     3 ASC3        1 GROUP        1 X    ASC  0     **** ASC X 3
     4 GLC5       10 GROUP        1 X    GLC  0     **** GLC X 6
     5 ALP1        6 GROUP        1 Y    ALP  0     ROOT ALP Y 8
     6 SEP2        9 GROUP        1 Y    SEP  0     **** SEP Y 9
     7 ASP3        3 GROUP        1 Y    ASP  0     **** ASP Y 10
     8 GLP5       12 GROUP        1 Y    GLP  0     **** GLP Y 13
     9 ALL1        5 GROUP        1 Z    ALL  0     ROOT ALL Z 15
    10 SEL2        8 GROUP        1 Z    SEL  0     **** SEL Z 16
    11 ASL3        2 GROUP        1 Z    ASL  0     **** ASL Z 17
    12 GLL5       11 GROUP        1 Z    GLL  0     **** GLL Z 20
@<TRIPOS>SET

