#    Name: 3lit_E15_1_ligand
#    Modification time : Mon Mar 24 21:43:02 2014

@<TRIPOS>MOLECULE
3lit_E15_1_ligand
   98   100     1     0     0
SMALL
NO_CHARGES


@<TRIPOS>ATOM
      1 CBF        23.6190   29.6800   26.3250 C.2       1 E15117      0.0000 
      2 NAJ        25.6170   28.4130   27.1380 N.4       1 E15117      0.0000 
      3 OAK        23.7770   29.4310   25.1540 O.2       1 E15117      0.0000 
      4 CBM        24.7840   29.6080   27.3400 C.3       1 E15117      0.0000 
      5 CBK        25.6880   30.8500   27.1450 C.ar      1 E15117      0.0000 
      6 CAQ        27.4740   33.3400   26.7660 C.ar      1 E15117      0.0000 
      7 CAT        27.2060   32.7750   28.1830 C.ar      1 E15117      0.0000 
      8 CAU        26.8600   32.6650   25.5220 C.ar      1 E15117      0.0000 
      9 CAX        26.3140   31.5330   28.3790 C.ar      1 E15117      0.0000 
     10 CAY        25.9670   31.4230   25.7230 C.ar      1 E15117      0.0000 
     11 N          22.3190   30.0660   26.8750 N.am      1 E15117      0.0000 
     12 CA         21.1520   30.1920   26.0010 C.3       1 E15117      0.0000 
     13 CB         20.1750   28.9640   26.1730 C.3       1 E15117      0.0000 
     14 CAG        20.8570   27.6540   25.6810 C.3       1 E15117      0.0000 
     15 CG1        19.7360   28.7850   27.6460 C.3       1 E15117      0.0000 
     16 CG2        18.9090   29.2200   25.3100 C.3       1 E15117      0.0000 
     17 C          20.5300   31.6060   26.0430 C.2       1 E15117      0.0000 
     18 O          19.8920   32.0120   26.9710 O.2       1 E15117      0.0000 
     19 CBI        18.2660   34.6950   23.5760 C.2       1 E15117      0.0000 
     20 NBC        20.7750   32.3950   24.8500 N.am      1 E15117      0.0000 
     21 OAN        18.4060   35.7830   23.1580 O.2       1 E15117      0.0000 
     22 CBN        19.3440   33.6320   23.4140 C.3       1 E15117      0.0000 
     23 CBJ        22.0940   34.9820   25.8440 C.ar      1 E15117      0.0000 
     24 CBA        21.3680   34.8000   24.4970 C.3       1 E15117      0.0000 
     25 CAP        23.5650   35.3490   28.4810 C.ar      1 E15117      0.0000 
     26 CBO        20.2610   33.7510   24.6550 C.3       1 E15117      0.0000 
     27 OAO        19.9970   33.7310   22.2010 O.3       1 E15117      0.0000 
     28 CAV        21.7530   36.1970   26.7270 C.ar      1 E15117      0.0000 
     29 CAW        23.1660   33.9620   26.2580 C.ar      1 E15117      0.0000 
     30 CAR        22.4980   36.3820   28.0590 C.ar      1 E15117      0.0000 
     31 CAS        23.9090   34.1390   27.5870 C.ar      1 E15117      0.0000 
     32 CBH        16.5290   36.4750   25.4740 C.2       1 E15117      0.0000 
     33 NBR        17.0560   34.3330   24.2920 N.am      1 E15117      0.0000 
     34 OAM        17.3570   36.1420   26.2580 O.2       1 E15117      0.0000 
     35 CBQ        15.9280   35.4190   24.5050 C.3       1 E15117      0.0000 
     36 CBU        14.6780   34.6410   25.0370 C.3       1 E15117      0.0000 
     37 CAZ        16.7020   32.9580   24.9080 C.3       1 E15117      0.0000 
     38 CAH        13.7950   35.5180   25.9520 C.3       1 E15117      0.0000 
     39 CAI        13.8840   34.2190   23.7920 C.3       1 E15117      0.0000 
     40 SBE        15.3450   33.2060   25.8820 S.3       1 E15117      0.0000 
     41 NBB        16.1140   37.8830   25.4190 N.am      1 E15117      0.0000 
     42 CBL        16.6600   38.8840   26.3590 C.3       1 E15117      0.0000 
     43 CBS        17.7250   39.8090   25.6910 C.3       1 E15117      0.0000 
     44 CAB        18.9160   38.9400   25.2050 C.3       1 E15117      0.0000 
     45 CAC        17.1130   40.6880   24.5430 C.3       1 E15117      0.0000 
     46 CAA        15.4570   39.7460   26.8020 C.3       1 E15117      0.0000 
     47 H          24.3881   29.6429   28.3292 H         1 E15117      0.0000 
     48 H          28.0399   34.1348   26.6612 H         1 E15117      0.0000 
     49 H          27.6099   33.2147   28.9628 H         1 E15117      0.0000 
     50 H          27.0308   33.0122   24.6368 H         1 E15117      0.0000 
     51 H          26.1472   31.1831   29.2708 H         1 E15117      0.0000 
     52 H          25.5629   30.9796   24.9423 H         1 E15117      0.0000 
     53 H          22.2268   30.2462   27.8617 H         1 E15117      0.0000 
     54 H          21.5552   30.0745   24.9265 H         1 E15117      0.0000 
     55 H          21.3435   31.9805   24.0934 H         1 E15117      0.0000 
     56 H          18.8202   32.6603   23.5286 H         1 E15117      0.0000 
     57 H          22.0775   34.4660   23.7538 H         1 E15117      0.0000 
     58 H          20.9316   35.7423   24.1990 H         1 E15117      0.0000 
     59 H          24.0370   35.4652   29.3409 H         1 E15117      0.0000 
     60 H          19.6236   34.0154   25.4910 H         1 E15117      0.0000 
     61 H          21.0778   36.8355   26.4457 H         1 E15117      0.0000 
     62 H          23.3721   33.2043   25.6754 H         1 E15117      0.0000 
     63 H          22.3007   37.1431   28.6335 H         1 E15117      0.0000 
     64 H          24.5868   33.5018   27.8663 H         1 E15117      0.0000 
     65 H          15.7245   35.8449   23.5648 H         1 E15117      0.0000 
     66 H          17.4608   32.6149   25.5516 H         1 E15117      0.0000 
     67 H          16.4061   32.2678   24.1706 H         1 E15117      0.0000 
     68 H          15.4406   38.1773   24.7245 H         1 E15117      0.0000 
     69 H          17.0747   38.4257   27.2168 H         1 E15117      0.0000 
     70 H          18.1016   40.4811   26.4656 H         1 E15117      0.0000 
     71 H          26.0267   28.0969   27.9937 H         1 E15117      0.0000 
     72 H          25.0879   27.6499   26.7669 H         1 E15117      0.0000 
     73 H          26.3675   28.5869   26.5003 H         1 E15117      0.0000 
     74 H          21.1113   27.7077   24.7154 H         1 E15117      0.0000 
     75 H          21.6923   27.4551   26.1935 H         1 E15117      0.0000 
     76 H          20.2555   26.8616   25.7820 H         1 E15117      0.0000 
     77 H          20.5173   28.6268   28.2498 H         1 E15117      0.0000 
     78 H          19.2572   29.5921   27.9915 H         1 E15117      0.0000 
     79 H          19.1174   28.0072   27.7573 H         1 E15117      0.0000 
     80 H          19.1348   29.3251   24.3415 H         1 E15117      0.0000 
     81 H          18.2545   28.4671   25.3783 H         1 E15117      0.0000 
     82 H          18.4297   30.0514   25.5912 H         1 E15117      0.0000 
     83 H          14.2981   35.8434   26.7526 H         1 E15117      0.0000 
     84 H          13.4517   36.3260   25.4732 H         1 E15117      0.0000 
     85 H          12.9983   35.0171   26.2902 H         1 E15117      0.0000 
     86 H          14.4243   33.6332   23.1879 H         1 E15117      0.0000 
     87 H          13.0583   33.7091   24.0333 H         1 E15117      0.0000 
     88 H          13.5934   35.0086   23.2516 H         1 E15117      0.0000 
     89 H          19.6240   39.4927   24.7654 H         1 E15117      0.0000 
     90 H          19.3524   38.4520   25.9609 H         1 E15117      0.0000 
     91 H          18.6264   38.2516   24.5400 H         1 E15117      0.0000 
     92 H          17.8006   41.2787   24.1208 H         1 E15117      0.0000 
     93 H          16.7214   40.1266   23.8140 H         1 E15117      0.0000 
     94 H          16.3827   41.2824   24.8796 H         1 E15117      0.0000 
     95 H          15.7291   40.4593   27.4478 H         1 E15117      0.0000 
     96 H          15.0221   40.2033   26.0263 H         1 E15117      0.0000 
     97 H          14.7522   39.1971   27.2514 H         1 E15117      0.0000 
     98 H          19.3774   33.3099   21.5386 H         1 E15117      0.0000 
@<TRIPOS>BOND
     1    3    1 2    
     2    4    1 1    
     3   11    1 am   
     4    4    2 1    
     5   71    2 1    
     6   72    2 1    
     7   73    2 1    
     8    5    4 1    
     9   47    4 1    
    10    9    5 ar   
    11   10    5 ar   
    12    7    6 ar   
    13    8    6 ar   
    14   48    6 1    
    15    9    7 ar   
    16   49    7 1    
    17   10    8 ar   
    18   50    8 1    
    19   51    9 1    
    20   52   10 1    
    21   12   11 1    
    22   53   11 1    
    23   13   12 1    
    24   17   12 1    
    25   54   12 1    
    26   14   13 1    
    27   15   13 1    
    28   16   13 1    
    29   74   14 1    
    30   75   14 1    
    31   76   14 1    
    32   77   15 1    
    33   78   15 1    
    34   79   15 1    
    35   80   16 1    
    36   81   16 1    
    37   82   16 1    
    38   18   17 2    
    39   20   17 am   
    40   21   19 2    
    41   22   19 1    
    42   33   19 am   
    43   26   20 1    
    44   55   20 1    
    45   26   22 1    
    46   27   22 1    
    47   56   22 1    
    48   24   23 1    
    49   28   23 ar   
    50   29   23 ar   
    51   26   24 1    
    52   57   24 1    
    53   58   24 1    
    54   30   25 ar   
    55   31   25 ar   
    56   59   25 1    
    57   60   26 1    
    58   98   27 1    
    59   30   28 ar   
    60   61   28 1    
    61   31   29 ar   
    62   62   29 1    
    63   63   30 1    
    64   64   31 1    
    65   34   32 2    
    66   35   32 1    
    67   41   32 am   
    68   35   33 1    
    69   37   33 1    
    70   36   35 1    
    71   65   35 1    
    72   38   36 1    
    73   39   36 1    
    74   40   36 1    
    75   40   37 1    
    76   66   37 1    
    77   67   37 1    
    78   83   38 1    
    79   84   38 1    
    80   85   38 1    
    81   86   39 1    
    82   87   39 1    
    83   88   39 1    
    84   42   41 1    
    85   68   41 1    
    86   43   42 1    
    87   46   42 1    
    88   69   42 1    
    89   44   43 1    
    90   45   43 1    
    91   70   43 1    
    92   89   44 1    
    93   90   44 1    
    94   91   44 1    
    95   92   45 1    
    96   93   45 1    
    97   94   45 1    
    98   95   46 1    
    99   96   46 1    
   100   97   46 1    
@<TRIPOS>SUBSTRUCTURE
     1 E15117      1 GROUP   
@<TRIPOS>SET

