#    Name: 1T6X_2_CAVITY_N1_6.mol2
#    Modification time : Tue Mar 11 10:13:18 2014

@<TRIPOS>MOLECULE
1T6X_2_CAVITY_N1_6.mol2
   61     0     5     0     0
SMALL
NO_CHARGES


@<TRIPOS>ATOM
      1 N          -9.3452   -3.1732   19.8584 N.2       2 ALA2        0.0000 
      2 N          -9.5213   -4.6019   20.2802 N.2       2 ALA2        0.0000 
      3 N          -8.5860   -6.4394   19.7814 N.2       2 ALA2        0.0000 
      4 N          -9.6974   -6.0305   20.7021 N.2       2 ALA2        0.0000 
      5 CA        -10.8089   -5.6217   21.6227 C.3       4 GLY6        0.0000 
      6 N          -8.7621   -7.8680   20.2033 N.2       2 ALA2        0.0000 
      7 CA         -9.8736   -7.4592   21.1239 C.3       4 GLY6        0.0000 
      8 N          -8.9383   -9.2967   20.6251 N.2       2 ALA2        0.0000 
      9 N          -9.1144  -10.7253   21.0470 N.2       2 ALA2        0.0000 
     10 CA        -10.2258  -10.3164   21.9676 C.3       4 GLY6        0.0000 
     11 N          -9.2905  -12.1540   21.4688 N.2       2 ALA2        0.0000 
     12 DU        -10.4019  -11.7451   22.3895 H         5 CUB7        0.0000 
     13 CA        -11.5134  -11.3362   23.3101 C.3       4 GLY6        0.0000 
     14 CZ         -9.4666  -13.5826   21.8907 C.ar      3 PHE5        0.0000 
     15 N          -8.5295   -4.3974   21.3868 N.2       2 ALA2        0.0000 
     16 N          -7.5942   -6.2349   20.8880 N.2       2 ALA2        0.0000 
     17 N          -8.7056   -5.8260   21.8086 N.2       2 ALA2        0.0000 
     18 N          -9.8170   -5.4172   22.7293 N.2       2 ALA2        0.0000 
     19 CZ         -7.7703   -7.6635   21.3098 C.ar      3 PHE5        0.0000 
     20 CA         -8.8817   -7.2547   22.2305 C.3       4 GLY6        0.0000 
     21 N          -7.9464   -9.0922   21.7317 N.2       2 ALA2        0.0000 
     22 CA         -9.0579   -8.6833   22.6523 C.3       4 GLY6        0.0000 
     23 N          -8.1226  -10.5208   22.1535 N.2       2 ALA2        0.0000 
     24 CA         -9.2340  -10.1120   23.0742 C.3       4 GLY6        0.0000 
     25 CA        -10.3454   -9.7031   23.9948 C.3       4 GLY6        0.0000 
     26 N          -8.2987  -11.9495   22.5754 N.2       2 ALA2        0.0000 
     27 DU         -9.4101  -11.5406   23.4960 H         5 CUB7        0.0000 
     28 N         -10.5215  -11.1318   24.4167 N.2       2 ALA2        0.0000 
     29 N         -11.6330  -10.7229   25.3373 N.2       2 ALA2        0.0000 
     30 CZ         -8.4748  -13.3781   22.9973 C.ar      3 PHE5        0.0000 
     31 CZ         -9.5862  -12.9693   23.9179 C.ar      3 PHE5        0.0000 
     32 OG        -10.6976  -12.5604   24.8385 O.2       1 SER1        0.0000 
     33 N         -11.8091  -12.1515   25.7592 N.2       2 ALA2        0.0000 
     34 OG        -11.9852  -13.5802   26.1810 O.2       1 SER1        0.0000 
     35 O          -7.7138   -5.6216   22.9152 O.2       2 ALA2        0.0000 
     36 CZ         -6.7785   -7.4591   22.4164 C.ar      3 PHE5        0.0000 
     37 N          -7.8899   -7.0502   23.3370 N.2       2 ALA2        0.0000 
     38 N          -6.9546   -8.8877   22.8383 N.2       2 ALA2        0.0000 
     39 O          -8.0660   -8.4789   23.7589 O.2       2 ALA2        0.0000 
     40 O          -9.1775   -8.0700   24.6795 O.2       2 ALA2        0.0000 
     41 N          -7.1307  -10.3164   23.2601 N.2       2 ALA2        0.0000 
     42 O          -8.2422   -9.9075   24.1807 O.2       2 ALA2        0.0000 
     43 O          -9.3536   -9.4986   25.1014 O.2       2 ALA2        0.0000 
     44 O          -7.3069  -11.7450   23.6820 O.2       2 ALA2        0.0000 
     45 CA         -8.4183  -11.3361   24.6026 C.3       4 GLY6        0.0000 
     46 N          -9.5297  -10.9273   25.5232 N.2       2 ALA2        0.0000 
     47 CZ         -8.5944  -12.7648   25.0244 C.ar      3 PHE5        0.0000 
     48 N          -9.7058  -12.3559   25.9451 N.2       2 ALA2        0.0000 
     49 OG         -9.8819  -13.7846   26.3669 O.2       1 SER1        0.0000 
     50 CA         -6.8981   -6.8457   24.4436 C.3       4 GLY6        0.0000 
     51 CA         -5.9628   -8.6832   23.9448 C.3       4 GLY6        0.0000 
     52 CA         -7.0742   -8.2744   24.8654 C.3       4 GLY6        0.0000 
     53 CA         -6.1389  -10.1119   24.3667 C.3       4 GLY6        0.0000 
     54 N         -10.3370   -3.3777   18.7518 N.2       2 ALA2        0.0000 
     55 OG        -11.4485   -2.9688   19.6724 O.2       1 SER1        0.0000 
     56 N         -10.5131   -4.8063   19.1737 N.2       2 ALA2        0.0000 
     57 CA        -11.6246   -4.3975   20.0943 C.3       4 GLY6        0.0000 
     58 N          -9.5778   -6.6439   18.6749 N.2       2 ALA2        0.0000 
     59 CA        -10.6893   -6.2350   19.5955 C.3       4 GLY6        0.0000 
     60 O          -9.7540   -8.0725   19.0967 O.2       2 ALA2        0.0000 
     61 CA        -10.8654   -7.6636   20.0174 C.3       4 GLY6        0.0000 
@<TRIPOS>BOND
@<TRIPOS>SUBSTRUCTURE
     1 SER1       32 GROUP   
     2 ALA2        1 GROUP   
     3 PHE5       14 GROUP   
     4 GLY6        5 GROUP   
     5 CUB7       12 GROUP   
@<TRIPOS>SET

