#    Name: 1t6x_ADP_2_INTS_M
#    Modification time : Tue Mar 25 04:25:26 2014

@<TRIPOS>MOLECULE
1t6x_ADP_2_INTS_M
   45     0     9     0     0
SMALL
NO_CHARGES


@<TRIPOS>ATOM
      1 N         -12.7790   -9.1460   28.7915 N.am      2 SEC2        0.0000 
      2 N         -12.8370  -10.4900   28.9540 N.am      8 SEL2        0.0000 
      3 N         -12.7210   -7.8020   28.6290 N.am      5 SEP2        0.0000 
      4 N         -13.1405   -9.8745   30.1635 N.am      2 SEC2        0.0000 
      5 N         -13.4440   -9.2590   31.3730 N.am      5 SEP2        0.0000 
      6 N         -12.5920   -9.1595   26.2305 N.am      2 SEC2        0.0000 
      7 N         -13.3990  -10.6380   26.4920 N.am      8 SEL2        0.0000 
      8 N         -11.7850   -7.6810   25.9690 N.am      5 SEP2        0.0000 
      9 CA         -5.8390  -11.6305   23.5605 C.3       3 GLC5        0.0000 
     10 CA         -7.9530  -11.0120   23.2660 C.3       9 GLL5        0.0000 
     11 CA         -3.7250  -12.2490   23.8550 C.3       6 GLP5        0.0000 
     12 O          -6.4705  -10.9955   21.5580 O.2       1 ALC1        0.0000 
     13 O          -6.5710  -11.3430   23.0600 O.2       7 ALL1        0.0000 
     14 O          -6.3700  -10.6480   20.0560 O.2       4 ALP1        0.0000 
     15 CA        -10.4055   -9.2470   22.3510 C.3       3 GLC5        0.0000 
     16 CA         -8.7340  -10.5140   22.0550 C.3       9 GLL5        0.0000 
     17 CA        -12.0770   -7.9800   22.6470 C.3       6 GLP5        0.0000 
     18 CA         -6.4160   -4.8400   23.3250 C.3       3 GLC5        0.0000 
     19 CA         -8.0560   -5.6430   22.3740 C.3       9 GLL5        0.0000 
     20 CA         -4.7760   -4.0370   24.2760 C.3       6 GLP5        0.0000 
     21 O          -7.4090   -3.4870   22.1530 O.2       1 ALC1        0.0000 
     22 O          -7.9340   -4.5320   21.6480 O.2       7 ALL1        0.0000 
     23 O          -6.8840   -2.4420   22.6580 O.2       4 ALP1        0.0000 
     24 O          -7.5250   -4.4935   20.2365 O.2       1 ALC1        0.0000 
     25 O          -7.1160   -4.4550   18.8250 O.2       4 ALP1        0.0000 
     26 N          -7.4480   -4.5550   24.5380 N.am      2 SEC2        0.0000 
     27 N          -7.9880   -5.5770   23.7590 N.am      8 SEL2        0.0000 
     28 N          -6.9080   -3.5330   25.3170 N.am      5 SEP2        0.0000 
     29 CA         -9.4945   -7.0475   25.8140 C.3       3 GLC5        0.0000 
     30 CA         -8.1070   -6.6890   24.5440 C.3       9 GLL5        0.0000 
     31 CA        -10.8820   -7.4060   27.0840 C.3       6 GLP5        0.0000 
     32 CA         -7.3230   -8.0810   25.9360 C.3       3 GLC5        0.0000 
     33 CA         -6.5390   -9.4730   27.3280 C.3       6 GLP5        0.0000 
     34 CA         -8.4455   -5.1610   25.6825 C.3       3 GLC5        0.0000 
     35 CA         -8.7840   -3.6330   26.8210 C.3       6 GLP5        0.0000 
     36 CA         -6.3680   -5.8635   24.9880 C.3       3 GLC5        0.0000 
     37 CA         -4.6290   -5.0380   25.4320 C.3       6 GLP5        0.0000 
     38 CA        -11.3702   -9.7360   23.3047 C.3       3 GLC5        0.0000 
     39 CA        -10.2570  -11.7740   23.3580 C.3       9 GLL5        0.0000 
     40 CA         -9.4153  -13.9780   23.6688 C.3       3 GLC5        0.0000 
     41 CA         -9.3010  -15.9730   23.8180 C.3       6 GLP5        0.0000 
     42 CA         -7.1873  -12.0605   21.3197 C.3       3 GLC5        0.0000 
     43 CA         -6.0310  -13.3580   19.9790 C.3       6 GLP5        0.0000 
     44 CA        -10.1962   -7.7138   22.3965 C.3       3 GLC5        0.0000 
     45 CA         -8.3760   -8.0250   22.5590 C.3       9 GLL5        0.0000 
@<TRIPOS>BOND
@<TRIPOS>SUBSTRUCTURE
     1 ALC1       12 GROUP        1 X    ALC  0     ROOT ALC X 1
     2 SEC2        1 GROUP        1 X    SEC  0     **** SEC X 2
     3 GLC5        9 GROUP        1 X    GLC  0     **** GLC X 6
     4 ALP1       14 GROUP        1 Y    ALP  0     ROOT ALP Y 8
     5 SEP2        3 GROUP        1 Y    SEP  0     **** SEP Y 9
     6 GLP5       11 GROUP        1 Y    GLP  0     **** GLP Y 13
     7 ALL1       13 GROUP        1 Z    ALL  0     ROOT ALL Z 15
     8 SEL2        2 GROUP        1 Z    SEL  0     **** SEL Z 16
     9 GLL5       10 GROUP        1 Z    GLL  0     **** GLL Z 20
@<TRIPOS>SET

