#    Name: 1t6x_ADP_2_ligand
#    Modification time : Tue Mar 25 04:25:26 2014

@<TRIPOS>MOLECULE
1t6x_ADP_2_ligand
   39    41     1     0     0
SMALL
NO_CHARGES


@<TRIPOS>ATOM
      1 PB        -13.9620  -10.6000   27.9890 P.3       1 ADP594      0.0000 
      2 O1B       -14.7780  -11.8110   28.2860 O.co2     1 ADP594      0.0000 
      3 O2B       -14.8790   -9.2800   28.0410 O.co2     1 ADP594      0.0000 
      4 O3B       -12.8370  -10.4900   28.9540 O.co2     1 ADP594      0.0000 
      5 PA        -13.7260  -11.5180   25.1970 P.3       1 ADP594      0.0000 
      6 O1A       -14.2550  -12.8300   25.5940 O.co2     1 ADP594      0.0000 
      7 O2A       -14.7050  -10.8340   24.3450 O.co2     1 ADP594      0.0000 
      8 O3A       -13.3990  -10.6380   26.4920 O.3       1 ADP594      0.0000 
      9 O5'       -12.3970  -11.7030   24.3380 O.3       1 ADP594      0.0000 
     10 C5'       -11.0700  -11.2100   24.5670 C.3       1 ADP594      0.0000 
     11 C4'       -10.2570  -11.7740   23.3580 C.3       1 ADP594      0.0000 
     12 O4'       -10.1320  -10.7340   22.3720 O.3       1 ADP594      0.0000 
     13 C3'        -8.8020  -12.1920   23.6810 C.3       1 ADP594      0.0000 
     14 O3'        -8.4010  -13.3980   23.0070 O.3       1 ADP594      0.0000 
     15 C2'        -7.9530  -11.0120   23.2660 C.3       1 ADP594      0.0000 
     16 O2'        -6.5710  -11.3430   23.0600 O.3       1 ADP594      0.0000 
     17 C1'        -8.7340  -10.5140   22.0550 C.3       1 ADP594      0.0000 
     18 N9         -8.5510   -9.0480   21.7370 N.pl3     1 ADP594      0.0000 
     19 C8         -8.5410   -8.5650   20.4770 C.2       1 ADP594      0.0000 
     20 N7         -8.3610   -7.2620   20.4950 N.2       1 ADP594      0.0000 
     21 C5         -8.2550   -6.8700   21.7330 C.ar      1 ADP594      0.0000 
     22 C6         -8.0560   -5.6430   22.3740 C.ar      1 ADP594      0.0000 
     23 N6         -7.9340   -4.5320   21.6480 N.pl3     1 ADP594      0.0000 
     24 N1         -7.9880   -5.5770   23.7590 N.ar      1 ADP594      0.0000 
     25 C2         -8.1070   -6.6890   24.5440 C.ar      1 ADP594      0.0000 
     26 N3         -8.2990   -7.8920   23.9320 N.ar      1 ADP594      0.0000 
     27 C4         -8.3760   -8.0250   22.5590 C.ar      1 ADP594      0.0000 
     28 H         -10.6323  -11.6016   25.4584 H         1 ADP594      0.0000 
     29 H         -11.0121  -10.1450   24.5235 H         1 ADP594      0.0000 
     30 H         -10.7730  -12.6141   22.9475 H         1 ADP594      0.0000 
     31 H          -8.7332  -12.2818   24.7571 H         1 ADP594      0.0000 
     32 H          -8.0931  -10.2569   24.0496 H         1 ADP594      0.0000 
     33 H          -8.4660  -11.1097   21.2010 H         1 ADP594      0.0000 
     34 H          -8.6535   -9.1217   19.6750 H         1 ADP594      0.0000 
     35 H          -7.9905   -4.6461   20.6561 H         1 ADP594      0.0000 
     36 H          -7.7970   -3.6843   22.1605 H         1 ADP594      0.0000 
     37 H          -8.0532   -6.6192   25.5647 H         1 ADP594      0.0000 
     38 H          -7.4350  -13.2623   22.7868 H         1 ADP594      0.0000 
     39 H          -6.3953  -11.1331   22.0982 H         1 ADP594      0.0000 
@<TRIPOS>BOND
     1    2    1 ar   
     2    3    1 ar   
     3    4    1 ar   
     4    8    1 1    
     5    6    5 ar   
     6    7    5 ar   
     7    8    5 1    
     8    9    5 1    
     9   10    9 1    
    10   11   10 1    
    11   28   10 1    
    12   29   10 1    
    13   12   11 1    
    14   13   11 1    
    15   30   11 1    
    16   17   12 1    
    17   14   13 1    
    18   15   13 1    
    19   31   13 1    
    20   38   14 1    
    21   16   15 1    
    22   17   15 1    
    23   32   15 1    
    24   39   16 1    
    25   18   17 1    
    26   33   17 1    
    27   19   18 1    
    28   27   18 1    
    29   20   19 2    
    30   34   19 1    
    31   21   20 1    
    32   22   21 ar   
    33   27   21 ar   
    34   23   22 1    
    35   24   22 ar   
    36   35   23 1    
    37   36   23 1    
    38   25   24 ar   
    39   26   25 ar   
    40   37   25 1    
    41   27   26 ar   
@<TRIPOS>SUBSTRUCTURE
     1 ADP594      1 GROUP   
@<TRIPOS>SET

