#    Name: 3k1w_BFX_1_INTS_M
#    Modification time : Mon Mar 24 17:58:14 2014

@<TRIPOS>MOLECULE
3k1w_BFX_1_INTS_M
  101     0     6     0     0
SMALL
NO_CHARGES


@<TRIPOS>ATOM
      1 CA          4.1920    9.2760   -5.2640 C.3       2 GLC5        0.0000 
      2 CA          2.1780    8.9280   -5.4010 C.3       6 GLL5        0.0000 
      3 CA          6.2060    9.6240   -5.1270 C.3       4 GLP5        0.0000 
      4 CA          2.6490   10.5625   -6.2780 C.3       2 GLC5        0.0000 
      5 CA          3.1200   12.1970   -7.1550 C.3       4 GLP5        0.0000 
      6 CA          1.1830   10.2300   -6.3415 C.3       2 GLC5        0.0000 
      7 CA          0.1880   11.5320   -7.2820 C.3       4 GLP5        0.0000 
      8 CA          3.1765    8.0650   -6.6975 C.3       2 GLC5        0.0000 
      9 CA          4.1750    7.2020   -7.9940 C.3       4 GLP5        0.0000 
     10 CA         -0.4470    9.5175   -5.4895 C.3       2 GLC5        0.0000 
     11 CA         -0.0040    8.5820   -3.5690 C.3       6 GLL5        0.0000 
     12 CA         -0.8900   10.4530   -7.4100 C.3       4 GLP5        0.0000 
     13 CA         -0.2200    7.3540   -5.0225 C.3       2 GLC5        0.0000 
     14 CA         -0.4360    6.1260   -6.4760 C.3       4 GLP5        0.0000 
     15 CA         -0.8980   10.5495   -3.3015 C.3       2 GLC5        0.0000 
     16 CA         -1.7920   12.5170   -3.0340 C.3       4 GLP5        0.0000 
     17 CA          0.9770   10.3765   -3.1830 C.3       2 GLC5        0.0000 
     18 CA          1.9580   12.1710   -2.7970 C.3       4 GLP5        0.0000 
     19 CA          3.0720    4.7635   -1.5785 C.3       2 GLC5        0.0000 
     20 CA          4.0170    6.1600   -2.6800 C.3       6 GLL5        0.0000 
     21 CA          2.1270    3.3670   -0.4770 C.3       4 GLP5        0.0000 
     22 CA          0.2360    5.3125   -0.6575 C.3       2 GLC5        0.0000 
     23 CA         -0.3890    6.8000   -0.4550 C.3       6 GLL5        0.0000 
     24 CA          0.8610    3.8250   -0.8600 C.3       4 GLP5        0.0000 
     25 CA          0.0625    8.1590    0.4035 C.3       2 GLC5        0.0000 
     26 CA          0.5140    9.5180    1.2620 C.3       4 GLP5        0.0000 
     27 CA          5.8780    7.7405   -0.4290 C.3       2 GLC5        0.0000 
     28 CA          7.2700    6.0520   -0.4500 C.3       6 GLL5        0.0000 
     29 CA          4.4860    9.4290   -0.4080 C.3       4 GLP5        0.0000 
     30 CA          9.3470    6.9315    1.2545 C.3       2 GLC5        0.0000 
     31 CA          7.4940    6.1150    0.9220 C.3       6 GLL5        0.0000 
     32 CA         11.2000    7.7480    1.5870 C.3       4 GLP5        0.0000 
     33 CA          7.0710    8.2130    0.7165 C.3       2 GLC5        0.0000 
     34 CA          6.6480   10.3110    0.5110 C.3       4 GLP5        0.0000 
     35 CA          9.9520    6.5300    2.5670 C.3       2 GLC5        0.0000 
     36 CA          8.7040    5.3120    3.5470 C.3       6 GLL5        0.0000 
     37 CA          6.3295    7.6380    6.5450 C.3       2 GLC5        0.0000 
     38 CA          6.7180    5.7760    5.6910 C.3       6 GLL5        0.0000 
     39 CA          5.9410    9.5000    7.3990 C.3       4 GLP5        0.0000 
     40 CA          5.9655    6.1260    7.6645 C.3       2 GLC5        0.0000 
     41 CA          5.2130    6.4760    9.6380 C.3       4 GLP5        0.0000 
     42 CA         10.5205    6.5020    5.5585 C.3       2 GLC5        0.0000 
     43 CA          9.0220    5.2000    5.0310 C.3       6 GLL5        0.0000 
     44 CA         12.0190    7.8040    6.0860 C.3       4 GLP5        0.0000 
     45 OD1         8.4070    7.5460    5.7245 O.co2     1 ASC3        0.0000 
     46 OD1         8.1450    6.0560    5.8120 O.co2     5 ASL3        0.0000 
     47 OD1         8.6690    9.0360    5.6370 O.co2     3 ASP3        0.0000 
     48 OD1         8.3735    7.2890    4.6565 O.co2     1 ASC3        0.0000 
     49 OD1         8.6020    8.5220    3.5010 O.co2     3 ASP3        0.0000 
     50 OD1         8.6175    7.0375    6.9950 O.co2     1 ASC3        0.0000 
     51 OD1         9.0900    8.0190    8.1780 O.co2     3 ASP3        0.0000 
     52 OD1         8.6930    5.9575    7.0535 O.co2     1 ASC3        0.0000 
     53 OD1         9.2410    5.8590    8.2950 O.co2     3 ASP3        0.0000 
     54 CA          2.4215    4.4535    1.3065 C.3       2 GLC5        0.0000 
     55 CA          2.7160    5.5400    3.0900 C.3       6 GLL5        0.0000 
     56 CA          1.4165    7.1980    2.7570 C.3       2 GLC5        0.0000 
     57 CA          0.1170    8.8560    2.4240 C.3       4 GLP5        0.0000 
     58 CA          4.6165   10.0130    4.4295 C.3       2 GLC5        0.0000 
     59 CA          5.0260    8.2730    3.7360 C.3       6 GLL5        0.0000 
     60 CA          4.2070   11.7530    5.1230 C.3       4 GLP5        0.0000 
     61 CA          6.5920    9.5345    3.9135 C.3       2 GLC5        0.0000 
     62 CA          8.1580   10.7960    4.0910 C.3       4 GLP5        0.0000 
     63 CA          5.8370    9.2920    2.1235 C.3       2 GLC5        0.0000 
     64 CA          5.4835    8.8865    5.5675 C.3       2 GLC5        0.0000 
     65 CA          3.4690   10.2245    3.5180 C.3       2 GLC5        0.0000 
     66 CA          3.6320    8.3660    3.1460 C.3       6 GLL5        0.0000 
     67 CA          3.3060   12.0830    3.8900 C.3       4 GLP5        0.0000 
     68 CA          1.8745    8.6110    2.7850 C.3       2 GLC5        0.0000 
     69 CA         -0.1380    2.8875    2.3025 C.3       2 GLC5        0.0000 
     70 CA         -0.2230    4.8750    2.5890 C.3       6 GLL5        0.0000 
     71 CA         -0.0530    0.9000    2.0160 C.3       4 GLP5        0.0000 
     72 CA          0.3190    4.3500    0.8645 C.3       2 GLC5        0.0000 
     73 CA         -1.5620    6.3045    1.7665 C.3       2 GLC5        0.0000 
     74 CA         -2.9010    7.7340    0.9440 C.3       4 GLP5        0.0000 
     75 CA         -0.0530    6.8655    2.5065 C.3       2 GLC5        0.0000 
     76 CA          0.6545    7.3663   -5.5505 C.3       2 GLC5        0.0000 
     77 CA          1.3120    8.2850   -3.8490 C.3       6 GLL5        0.0000 
     78 CA          1.8515   10.3887   -3.7110 C.3       2 GLC5        0.0000 
     79 CA          1.1575    6.0650   -4.0412 C.3       2 GLC5        0.0000 
     80 CA          2.0700    7.5140   -3.0190 C.3       6 GLL5        0.0000 
     81 CA          0.5330    4.8770   -5.6400 C.3       4 GLP5        0.0000 
     82 CA          3.1340    8.3410   -1.4253 C.3       2 GLC5        0.0000 
     83 CA         -0.5513    5.6387   -2.1604 C.3       2 GLC5        0.0000 
     84 CA          1.4940    6.9920   -1.8660 C.3       6 GLL5        0.0000 
     85 CA         -1.2220    3.6640   -2.2570 C.3       4 GLP5        0.0000 
     86 CA          4.6167    7.8085   -1.6365 C.3       2 GLC5        0.0000 
     87 CA          6.9645    6.9380   -3.3745 C.3       2 GLC5        0.0000 
     88 CA          5.4780    6.2160   -3.0500 C.3       6 GLL5        0.0000 
     89 CA          8.1040    8.2700   -3.9920 C.3       4 GLP5        0.0000 
     90 CA          5.5415    4.6205   -4.5670 C.3       2 GLC5        0.0000 
     91 CA          5.2580    3.6350   -6.3770 C.3       4 GLP5        0.0000 
     92 CA         -1.6007    7.4892   -0.1395 C.3       2 GLC5        0.0000 
     93 CA          0.1680    7.2940   -1.5750 C.3       6 GLL5        0.0000 
     94 CA          7.6750    3.9406   -1.5247 C.3       2 GLC5        0.0000 
     95 CA          6.4140    5.0880   -0.9550 C.3       6 GLL5        0.0000 
     96 CA          8.6900    2.5490   -2.3780 C.3       4 GLP5        0.0000 
     97 CA          4.2877    8.6053    1.2712 C.3       2 GLC5        0.0000 
     98 CA          4.5470    7.1970    2.7550 C.3       6 GLL5        0.0000 
     99 CA         -1.5587    7.4435    6.2668 C.3       2 GLC5        0.0000 
    100 CA         -0.5270    5.7610    5.1020 C.3       6 GLL5        0.0000 
    101 CA         -2.7990    8.8720    6.8300 C.3       4 GLP5        0.0000 
@<TRIPOS>BOND
@<TRIPOS>SUBSTRUCTURE
     1 ASC3       45 GROUP        1 X    ASC  0     ROOT ASC X 3
     2 GLC5        1 GROUP        1 X    GLC  0     **** GLC X 6
     3 ASP3       47 GROUP        1 Y    ASP  0     ROOT ASP Y 10
     4 GLP5        3 GROUP        1 Y    GLP  0     **** GLP Y 13
     5 ASL3       46 GROUP        1 Z    ASL  0     ROOT ASL Z 17
     6 GLL5        2 GROUP        1 Z    GLL  0     **** GLL Z 20
@<TRIPOS>SET

