#    Name: 3k1w_BFX_1_ligand
#    Modification time : Mon Mar 24 17:58:14 2014

@<TRIPOS>MOLECULE
3k1w_BFX_1_ligand
   68    72     1     0     0
SMALL
NO_CHARGES


@<TRIPOS>ATOM
      1 BR1         2.1780    8.9280   -5.4010 Br        1 BFX342      0.0000 
      2 C2          1.3120    8.2850   -3.8490 C.ar      1 BFX342      0.0000 
      3 C3          2.0700    7.5140   -3.0190 C.ar      1 BFX342      0.0000 
      4 C4         -0.0040    8.5820   -3.5690 C.ar      1 BFX342      0.0000 
      5 O5          3.3540    7.2350   -3.3450 O.3       1 BFX342      0.0000 
      6 C6          1.4940    6.9920   -1.8660 C.ar      1 BFX342      0.0000 
      7 C7         -0.5920    8.0840   -2.4070 C.ar      1 BFX342      0.0000 
      8 C8          4.0170    6.1600   -2.6800 C.3       1 BFX342      0.0000 
      9 C9          0.1680    7.2940   -1.5750 C.ar      1 BFX342      0.0000 
     10 C10         5.4780    6.2160   -3.0500 C.3       1 BFX342      0.0000 
     11 F11        -0.3890    6.8000   -0.4550 F         1 BFX342      0.0000 
     12 C12         6.1720    4.9960   -2.4640 C.3       1 BFX342      0.0000 
     13 C13         6.4140    5.0880   -0.9550 C.ar      1 BFX342      0.0000 
     14 C14         5.8070    4.1830   -0.0760 C.ar      1 BFX342      0.0000 
     15 C15         7.2700    6.0520   -0.4500 C.ar      1 BFX342      0.0000 
     16 C16         6.0210    4.2240    1.3040 C.ar      1 BFX342      0.0000 
     17 C17         7.4940    6.1150    0.9220 C.ar      1 BFX342      0.0000 
     18 C18         6.8860    5.2100    1.8030 C.ar      1 BFX342      0.0000 
     19 C19         7.2110    5.3410    3.2660 C.2       1 BFX342      0.0000 
     20 C20         6.3130    5.4270    4.2730 C.2       1 BFX342      0.0000 
     21 C21         8.7040    5.3120    3.5470 C.3       1 BFX342      0.0000 
     22 C22         4.9110    5.1120    4.0630 C.2       1 BFX342      0.0000 
     23 C23         6.7180    5.7760    5.6910 C.3       1 BFX342      0.0000 
     24 C24         9.0220    5.2000    5.0310 C.3       1 BFX342      0.0000 
     25 O25         4.5100    4.0540    4.5400 O.2       1 BFX342      0.0000 
     26 N26         4.1050    5.9340    3.3790 N.am      1 BFX342      0.0000 
     27 N27         8.1450    6.0560    5.8120 N.4       1 BFX342      0.0000 
     28 C28         4.5470    7.1970    2.7550 C.3       1 BFX342      0.0000 
     29 C29         2.7160    5.5400    3.0900 C.3       1 BFX342      0.0000 
     30 C30         5.0260    8.2730    3.7360 C.3       1 BFX342      0.0000 
     31 C31         3.6320    8.3660    3.1460 C.3       1 BFX342      0.0000 
     32 C32         1.7600    5.7870    4.2510 C.ar      1 BFX342      0.0000 
     33 C33         0.4090    5.5320    4.1120 C.ar      1 BFX342      0.0000 
     34 C34         2.1720    6.3120    5.4720 C.ar      1 BFX342      0.0000 
     35 CL35       -0.2230    4.8750    2.5890 Cl        1 BFX342      0.0000 
     36 C36        -0.5270    5.7610    5.1020 C.ar      1 BFX342      0.0000 
     37 C37         1.2440    6.5370    6.5020 C.ar      1 BFX342      0.0000 
     38 C38        -0.1100    6.2690    6.3050 C.ar      1 BFX342      0.0000 
     39 H          -0.5557    9.1670   -4.2087 H         1 BFX342      0.0000 
     40 H           2.0381    6.3941   -1.2404 H         1 BFX342      0.0000 
     41 H          -1.5622    8.3046   -2.1864 H         1 BFX342      0.0000 
     42 H           3.6211    5.1910   -2.9866 H         1 BFX342      0.0000 
     43 H           3.9330    6.2437   -1.5957 H         1 BFX342      0.0000 
     44 H           5.9260    7.1129   -2.6429 H         1 BFX342      0.0000 
     45 H           5.5850    6.2062   -4.1267 H         1 BFX342      0.0000 
     46 H           7.1405    4.8532   -2.9700 H         1 BFX342      0.0000 
     47 H           5.5646    4.1001   -2.6714 H         1 BFX342      0.0000 
     48 H           5.1733    3.4534   -0.4661 H         1 BFX342      0.0000 
     49 H           7.7358    6.7144   -1.0781 H         1 BFX342      0.0000 
     50 H           5.5698    3.5674    1.9241 H         1 BFX342      0.0000 
     51 H           8.1224    6.8443    1.3046 H         1 BFX342      0.0000 
     52 H           9.1635    6.2275    3.1497 H         1 BFX342      0.0000 
     53 H           9.1539    4.4604    3.0184 H         1 BFX342      0.0000 
     54 H           6.4312    4.9362    6.3497 H         1 BFX342      0.0000 
     55 H           6.1234    6.6491    6.0161 H         1 BFX342      0.0000 
     56 H          10.0741    5.4769    5.1782 H         1 BFX342      0.0000 
     57 H           8.9105    4.1488    5.3273 H         1 BFX342      0.0000 
     58 H           4.8951    7.3813    1.9251 H         1 BFX342      0.0000 
     59 H           2.6700    4.4655    2.8279 H         1 BFX342      0.0000 
     60 H           2.3376    6.0919    2.2082 H         1 BFX342      0.0000 
     61 H           5.5870    8.8643    3.2550 H         1 BFX342      0.0000 
     62 H           4.9508    7.9136    4.6083 H         1 BFX342      0.0000 
     63 H           3.0201    8.0405    3.7898 H         1 BFX342      0.0000 
     64 H           3.6563    8.9912    2.4365 H         1 BFX342      0.0000 
     65 H           3.1642    6.5393    5.6274 H         1 BFX342      0.0000 
     66 H          -1.5174    5.5525    4.9347 H         1 BFX342      0.0000 
     67 H           1.5702    6.9023    7.4067 H         1 BFX342      0.0000 
     68 H          -0.7801    6.4541    7.0605 H         1 BFX342      0.0000 
@<TRIPOS>BOND
     1    2    1 1    
     2    3    2 ar   
     3    4    2 ar   
     4    5    3 1    
     5    6    3 ar   
     6    7    4 ar   
     7   39    4 1    
     8    8    5 1    
     9    9    6 ar   
    10   40    6 1    
    11    9    7 ar   
    12   41    7 1    
    13   10    8 1    
    14   42    8 1    
    15   43    8 1    
    16   11    9 1    
    17   12   10 1    
    18   44   10 1    
    19   45   10 1    
    20   13   12 1    
    21   46   12 1    
    22   47   12 1    
    23   14   13 ar   
    24   15   13 ar   
    25   16   14 ar   
    26   48   14 1    
    27   17   15 ar   
    28   49   15 1    
    29   18   16 ar   
    30   50   16 1    
    31   18   17 ar   
    32   51   17 1    
    33   19   18 1    
    34   20   19 2    
    35   21   19 1    
    36   22   20 1    
    37   23   20 1    
    38   24   21 1    
    39   52   21 1    
    40   53   21 1    
    41   25   22 2    
    42   26   22 am   
    43   27   23 1    
    44   54   23 1    
    45   55   23 1    
    46   27   24 1    
    47   56   24 1    
    48   57   24 1    
    49   28   26 1    
    50   29   26 1    
    51   30   28 1    
    52   31   28 1    
    53   58   28 1    
    54   32   29 1    
    55   59   29 1    
    56   60   29 1    
    57   31   30 1    
    58   61   30 1    
    59   62   30 1    
    60   63   31 1    
    61   64   31 1    
    62   33   32 ar   
    63   34   32 ar   
    64   35   33 1    
    65   36   33 ar   
    66   37   34 ar   
    67   65   34 1    
    68   38   36 ar   
    69   66   36 1    
    70   38   37 ar   
    71   67   37 1    
    72   68   38 1    
@<TRIPOS>SUBSTRUCTURE
     1 BFX342      1 GROUP   
@<TRIPOS>SET

