#    Name: 3jsx_CC2_3_INTS_M
#    Modification time : Tue Mar 25 17:53:24 2014

@<TRIPOS>MOLECULE
3jsx_CC2_3_INTS_M
   47     0     6     0     0
SMALL
NO_CHARGES


@<TRIPOS>ATOM
      1 N          29.6955  -46.5520   38.8365 N.am      1 SEC2        0.0000 
      2 N          28.3120  -47.5010   38.9030 N.am      5 SEL2        0.0000 
      3 N          31.0790  -45.6030   38.7700 N.am      3 SEP2        0.0000 
      4 CA         27.4560  -47.4890   46.8370 C.3       2 GLC5        0.0000 
      5 CA         27.3710  -47.9600   45.3160 C.3       6 GLL5        0.0000 
      6 CA         27.5410  -47.0180   48.3580 C.3       4 GLP5        0.0000 
      7 CA         26.5265  -49.6470   45.9495 C.3       2 GLC5        0.0000 
      8 CA         25.6820  -51.3340   46.5830 C.3       4 GLP5        0.0000 
      9 CA         29.0730  -48.7895   45.3730 C.3       2 GLC5        0.0000 
     10 CA         30.7750  -49.6190   45.4300 C.3       4 GLP5        0.0000 
     11 CA         28.1275  -45.2050   45.6430 C.3       2 GLC5        0.0000 
     12 CA         28.2350  -45.6210   43.7220 C.3       6 GLL5        0.0000 
     13 CA         28.0200  -44.7890   47.5640 C.3       4 GLP5        0.0000 
     14 CA         29.9090  -45.2635   43.3440 C.3       2 GLC5        0.0000 
     15 CA         31.5830  -44.9060   42.9660 C.3       4 GLP5        0.0000 
     16 CA         26.5405  -45.2195   43.2375 C.3       2 GLC5        0.0000 
     17 CA         24.8460  -44.8180   42.7530 C.3       4 GLP5        0.0000 
     18 CA         31.3575  -53.0890   39.6945 C.3       2 GLC5        0.0000 
     19 CA         30.8040  -52.2830   37.8470 C.3       6 GLL5        0.0000 
     20 CA         31.9110  -53.8950   41.5420 C.3       4 GLP5        0.0000 
     21 CA         29.9350  -52.5115   40.0865 C.3       2 GLC5        0.0000 
     22 CA         29.5720  -51.7000   38.1190 C.3       6 GLL5        0.0000 
     23 CA         30.2980  -53.3230   42.0540 C.3       4 GLP5        0.0000 
     24 CA         32.1280  -49.0365   32.2100 C.3       2 GLC5        0.0000 
     25 CA         31.4530  -49.2210   34.1860 C.3       6 GLL5        0.0000 
     26 CA         32.8030  -48.8520   30.2340 C.3       4 GLP5        0.0000 
     27 CA         33.0030  -50.3415   36.7605 C.3       2 GLC5        0.0000 
     28 CA         31.8980  -50.2820   34.9780 C.3       6 GLL5        0.0000 
     29 CA         34.1080  -50.4010   38.5430 C.3       4 GLP5        0.0000 
     30 CA         25.8860  -47.8047   42.3252 C.3       2 GLC5        0.0000 
     31 CA         27.2650  -49.2580   43.2310 C.3       6 GLL5        0.0000 
     32 CA         24.3720  -46.9580   41.1200 C.3       4 GLP5        0.0000 
     33 CA         26.1870  -46.9910   41.7445 C.3       2 GLC5        0.0000 
     34 CA         28.0660  -47.0980   41.6760 C.3       6 GLL5        0.0000 
     35 CA         25.9605  -49.2940   37.5422 C.3       2 GLC5        0.0000 
     36 CA         27.6270  -49.7690   39.1340 C.3       6 GLL5        0.0000 
     37 CA         24.2270  -48.7040   36.6970 C.3       4 GLP5        0.0000 
     38 CA         25.9825  -51.1170   38.0782 C.3       2 GLC5        0.0000 
     39 CA         27.7610  -49.9990   37.6410 C.3       6 GLL5        0.0000 
     40 CA         24.2710  -52.3500   37.7690 C.3       4 GLP5        0.0000 
     41 CA         26.0614  -47.8289   40.8506 C.3       2 GLC5        0.0000 
     42 CA         27.9110  -48.5280   39.6960 C.3       6 GLL5        0.0000 
     43 CA         29.4985  -48.7729   38.8095 C.3       2 GLC5        0.0000 
     44 CA         31.2320  -47.9720   39.0910 C.3       4 GLP5        0.0000 
     45 CA         29.2270  -53.5502   38.2505 C.3       2 GLC5        0.0000 
     46 CA         28.2660  -55.1090   38.5180 C.3       4 GLP5        0.0000 
     47 CA         32.5930  -51.0930   37.8366 C.3       2 GLC5        0.0000 
@<TRIPOS>BOND
@<TRIPOS>SUBSTRUCTURE
     1 SEC2        1 GROUP        1 X    SEC  0     ROOT SEC X 2
     2 GLC5        4 GROUP        1 X    GLC  0     **** GLC X 6
     3 SEP2        3 GROUP        1 Y    SEP  0     ROOT SEP Y 9
     4 GLP5        6 GROUP        1 Y    GLP  0     **** GLP Y 13
     5 SEL2        2 GROUP        1 Z    SEL  0     ROOT SEL Z 16
     6 GLL5        5 GROUP        1 Z    GLL  0     **** GLL Z 20
@<TRIPOS>SET

