#    Name: 3jsx_CC2_3_ligand
#    Modification time : Tue Mar 25 17:53:24 2014

@<TRIPOS>MOLECULE
3jsx_CC2_3_ligand
   43    46     1     0     0
SMALL
NO_CHARGES


@<TRIPOS>ATOM
      1 C1         27.5350  -48.0450   43.8300 C.ar      1 CC2547      0.0000 
      2 O1         28.3120  -47.5010   38.9030 O.3       1 CC2547      0.0000 
      3 C2         27.2650  -49.2580   43.2310 C.ar      1 CC2547      0.0000 
      4 O2         27.1160  -50.6260   41.3010 O.3       1 CC2547      0.0000 
      5 C3         27.3900  -49.4070   41.8590 C.ar      1 CC2547      0.0000 
      6 C4         27.7910  -48.3360   41.0740 C.ar      1 CC2547      0.0000 
      7 C5         28.0660  -47.0980   41.6760 C.ar      1 CC2547      0.0000 
      8 C6         27.9380  -46.9500   43.0620 C.ar      1 CC2547      0.0000 
      9 O7         26.9840  -51.9270   39.4870 O.2       1 CC2547      0.0000 
     10 C8         27.2420  -50.8120   39.9590 C.2       1 CC2547      0.0000 
     11 C9         27.6270  -49.7690   39.1340 C.2       1 CC2547      0.0000 
     12 C10        27.9110  -48.5280   39.6960 C.2       1 CC2547      0.0000 
     13 C11        27.3710  -47.9600   45.3160 C.3       1 CC2547      0.0000 
     14 C12        28.2350  -45.6210   43.7220 C.3       1 CC2547      0.0000 
     15 C13        27.7610  -49.9990   37.6410 C.3       1 CC2547      0.0000 
     16 C14        29.0990  -50.6510   37.3410 C.ar      1 CC2547      0.0000 
     17 C15        29.8870  -50.1780   36.2970 C.ar      1 CC2547      0.0000 
     18 C16        31.1210  -50.7610   36.0280 C.ar      1 CC2547      0.0000 
     19 C17        31.5830  -51.8130   36.7990 C.ar      1 CC2547      0.0000 
     20 C18        30.8040  -52.2830   37.8470 C.ar      1 CC2547      0.0000 
     21 C19        29.5720  -51.7000   38.1190 C.ar      1 CC2547      0.0000 
     22 C20        29.4400  -49.1150   35.5090 C.ar      1 CC2547      0.0000 
     23 C21        30.2190  -48.6360   34.4540 C.ar      1 CC2547      0.0000 
     24 C22        31.4530  -49.2210   34.1860 C.ar      1 CC2547      0.0000 
     25 C23        31.8980  -50.2820   34.9780 C.ar      1 CC2547      0.0000 
     26 H          26.9671  -50.0632   43.8074 H         1 CC2547      0.0000 
     27 H          28.3603  -46.3039   41.0994 H         1 CC2547      0.0000 
     28 H          27.6981  -49.0475   37.1206 H         1 CC2547      0.0000 
     29 H          26.9587  -50.6477   37.3007 H         1 CC2547      0.0000 
     30 H          32.4926  -52.2428   36.5993 H         1 CC2547      0.0000 
     31 H          31.1393  -53.0667   38.4259 H         1 CC2547      0.0000 
     32 H          29.0033  -52.0502   38.9069 H         1 CC2547      0.0000 
     33 H          28.5271  -48.6805   35.7082 H         1 CC2547      0.0000 
     34 H          29.8815  -47.8562   33.8801 H         1 CC2547      0.0000 
     35 H          32.0320  -48.8779   33.4147 H         1 CC2547      0.0000 
     36 H          32.8146  -50.7142   34.7800 H         1 CC2547      0.0000 
     37 H          27.9661  -48.6068   45.7929 H         1 CC2547      0.0000 
     38 H          27.5917  -47.0483   45.6625 H         1 CC2547      0.0000 
     39 H          26.4331  -48.1617   45.5983 H         1 CC2547      0.0000 
     40 H          28.9735  -45.6959   44.3920 H         1 CC2547      0.0000 
     41 H          28.5130  -44.9292   43.0555 H         1 CC2547      0.0000 
     42 H          27.4372  -45.2594   44.2044 H         1 CC2547      0.0000 
     43 H          27.8802  -46.6883   39.2941 H         1 CC2547      0.0000 
@<TRIPOS>BOND
     1    3    1 ar   
     2    8    1 ar   
     3   13    1 1    
     4   12    2 1    
     5   43    2 1    
     6    5    3 ar   
     7   26    3 1    
     8    5    4 1    
     9   10    4 1    
    10    6    5 ar   
    11    7    6 ar   
    12   12    6 1    
    13    8    7 ar   
    14   27    7 1    
    15   14    8 1    
    16   10    9 2    
    17   11   10 1    
    18   12   11 2    
    19   15   11 1    
    20   37   13 1    
    21   38   13 1    
    22   39   13 1    
    23   40   14 1    
    24   41   14 1    
    25   42   14 1    
    26   16   15 1    
    27   28   15 1    
    28   29   15 1    
    29   17   16 ar   
    30   21   16 ar   
    31   18   17 ar   
    32   22   17 ar   
    33   19   18 ar   
    34   25   18 ar   
    35   20   19 ar   
    36   30   19 1    
    37   21   20 ar   
    38   31   20 1    
    39   32   21 1    
    40   23   22 ar   
    41   33   22 1    
    42   24   23 ar   
    43   34   23 1    
    44   25   24 ar   
    45   35   24 1    
    46   36   25 1    
@<TRIPOS>SUBSTRUCTURE
     1 CC2547      1 GROUP   
@<TRIPOS>SET

