#    Name: 3ozv_ECN_2_INTS_M
#    Modification time : Tue Mar 25 05:44:01 2014

@<TRIPOS>MOLECULE
3ozv_ECN_2_INTS_M
   50     0     3     0     0
SMALL
NO_CHARGES


@<TRIPOS>ATOM
      1 CA         -7.7940   10.7920  -21.7455 C.3       1 GLC5        0.0000 
      2 CA         -6.5860   12.0310  -22.5650 C.3       3 GLL5        0.0000 
      3 CA         -9.0020    9.5530  -20.9260 C.3       2 GLP5        0.0000 
      4 CA         -8.5695   10.7200  -26.4295 C.3       1 GLC5        0.0000 
      5 CA         -7.8760   11.5450  -25.3260 C.3       3 GLL5        0.0000 
      6 CA         -9.2630    9.8950  -27.5330 C.3       2 GLP5        0.0000 
      7 CA         -9.8605   13.7350  -21.1970 C.3       1 GLC5        0.0000 
      8 CA        -10.7420   13.1940  -23.1160 C.3       3 GLL5        0.0000 
      9 CA         -8.9790   14.2760  -19.2780 C.3       2 GLP5        0.0000 
     10 CA        -10.9315   12.0115  -22.0200 C.3       1 GLC5        0.0000 
     11 CA        -11.1210   10.8290  -20.9240 C.3       2 GLP5        0.0000 
     12 CA        -10.6980   12.5285  -24.9940 C.3       1 GLC5        0.0000 
     13 CA        -10.6540   11.8630  -26.8720 C.3       2 GLP5        0.0000 
     14 CA        -12.5295   12.7540  -22.6380 C.3       1 GLC5        0.0000 
     15 CA        -14.3170   12.3140  -22.1600 C.3       2 GLP5        0.0000 
     16 CA         -1.7305   13.8105  -20.3225 C.3       1 GLC5        0.0000 
     17 CA         -1.2310   13.1020  -22.1030 C.3       3 GLL5        0.0000 
     18 CA         -2.2300   14.5190  -18.5420 C.3       2 GLP5        0.0000 
     19 CA         -0.1435   14.4885  -21.9550 C.3       1 GLC5        0.0000 
     20 CA          0.9440   15.8750  -21.8070 C.3       2 GLP5        0.0000 
     21 CA         -1.9100   14.9420  -23.1875 C.3       1 GLC5        0.0000 
     22 CA         -2.5890   16.7820  -24.2720 C.3       2 GLP5        0.0000 
     23 CA         -7.4265    8.4325  -23.5280 C.3       1 GLC5        0.0000 
     24 CA         -6.1080    9.2860  -24.7730 C.3       3 GLL5        0.0000 
     25 CA         -8.7450    7.5790  -22.2830 C.3       2 GLP5        0.0000 
     26 CA         -7.1160    7.5365  -25.3635 C.3       1 GLC5        0.0000 
     27 CA         -8.1240    5.7870  -25.9540 C.3       2 GLP5        0.0000 
     28 CA         -7.7080   11.0710  -27.2600 C.3       1 GLC5        0.0000 
     29 CA         -6.1530   12.2470  -26.9870 C.3       3 GLL5        0.0000 
     30 CA        -10.2760   14.6690  -24.1050 C.3       1 GLC5        0.0000 
     31 CA         -8.8390   14.1010  -24.9880 C.3       3 GLL5        0.0000 
     32 CA        -11.7130   15.2370  -23.2220 C.3       2 GLP5        0.0000 
     33 CA         -7.6645   15.2950  -24.3585 C.3       1 GLC5        0.0000 
     34 CA         -6.4900   16.4890  -23.7290 C.3       2 GLP5        0.0000 
     35 CA        -10.1363   11.6080  -22.6390 C.3       1 GLC5        0.0000 
     36 CA         -9.3910   13.0280  -24.2720 C.3       3 GLL5        0.0000 
     37 CA        -10.8897   14.1740  -23.4580 C.3       1 GLC5        0.0000 
     38 CA         -4.9148   13.5057  -24.6830 C.3       1 GLC5        0.0000 
     39 CA         -4.9010   11.9350  -23.2280 C.3       3 GLL5        0.0000 
     40 CA         -5.0650   15.3830  -25.5240 C.3       2 GLP5        0.0000 
     41 CA         -5.7451   13.5105  -21.4929 C.3       1 GLC5        0.0000 
     42 CA         -3.8430   12.4670  -22.5110 C.3       3 GLL5        0.0000 
     43 CA         -6.6970   14.7960  -20.2820 C.3       2 GLP5        0.0000 
     44 CA         -3.5707   14.5237  -23.1713 C.3       1 GLC5        0.0000 
     45 CA         -3.9410   16.6180  -23.5640 C.3       2 GLP5        0.0000 
     46 CA         -7.5962    9.9567  -26.2595 C.3       1 GLC5        0.0000 
     47 CA         -5.7510   10.7510  -25.1990 C.3       3 GLL5        0.0000 
     48 CA         -5.9561   14.0609  -26.0001 C.3       1 GLC5        0.0000 
     49 CA         -9.6624   12.4447  -25.8937 C.3       1 GLC5        0.0000 
     50 CA         -7.7860   13.8780  -25.8830 C.3       3 GLL5        0.0000 
@<TRIPOS>BOND
@<TRIPOS>SUBSTRUCTURE
     1 GLC5        1 GROUP        1 X    GLC  0     ROOT GLC X 6
     2 GLP5        3 GROUP        1 Y    GLP  0     ROOT GLP Y 13
     3 GLL5        2 GROUP        1 Z    GLL  0     ROOT GLL Z 20
@<TRIPOS>SET

