#    Name: 3ozv_ECN_2_ligand
#    Modification time : Tue Mar 25 05:44:01 2014

@<TRIPOS>MOLECULE
3ozv_ECN_2_ligand
   39    41     1     0     0
SMALL
NO_CHARGES


@<TRIPOS>ATOM
      1 C1         -7.2970   12.5830  -26.0480 C.ar      1 ECN411      0.0000 
      2 C2         -7.7860   13.8780  -25.8830 C.ar      1 ECN411      0.0000 
      3 CL4        -6.5860   12.0310  -22.5650 Cl        1 ECN411      0.0000 
      4 C6         -3.2470    7.6080  -23.3690 C.2       1 ECN411      0.0000 
      5 C7         -4.3440    8.4220  -23.1810 C.2       1 ECN411      0.0000 
      6 C9         -8.9120   11.7460  -24.4360 C.ar      1 ECN411      0.0000 
      7 C10        -7.8760   11.5450  -25.3260 C.ar      1 ECN411      0.0000 
      8 C11        -9.3910   13.0280  -24.2720 C.ar      1 ECN411      0.0000 
      9 CL2       -10.7420   13.1940  -23.1160 Cl        1 ECN411      0.0000 
     10 C14        -4.9010   11.9350  -23.2280 C.ar      1 ECN411      0.0000 
     11 C15        -3.8430   12.4670  -22.5110 C.ar      1 ECN411      0.0000 
     12 C16        -2.5580   12.3920  -23.0460 C.ar      1 ECN411      0.0000 
     13 C17        -2.2790   11.7850  -24.2730 C.ar      1 ECN411      0.0000 
     14 CL8        -1.2310   13.1020  -22.1030 Cl        1 ECN411      0.0000 
     15 N19        -3.1950    7.1770  -24.6500 N.2       1 ECN411      0.0000 
     16 C19        -6.1080    9.2860  -24.7730 C.3       1 ECN411      0.0000 
     17 C20        -5.7510   10.7510  -25.1990 C.3       1 ECN411      0.0000 
     18 O20        -5.5110   11.0260  -26.5840 O.3       1 ECN411      0.0000 
     19 C5         -4.6280   11.3220  -24.4560 C.ar      1 ECN411      0.0000 
     20 N1         -4.9280    8.4830  -24.3890 N.pl3     1 ECN411      0.0000 
     21 C3         -4.2480    7.7180  -25.2590 C.2       1 ECN411      0.0000 
     22 C8         -6.1530   12.2470  -26.9870 C.3       1 ECN411      0.0000 
     23 C13        -8.8390   14.1010  -24.9880 C.ar      1 ECN411      0.0000 
     24 C21        -3.3400   11.2480  -25.0030 C.ar      1 ECN411      0.0000 
     25 H          -7.3832   14.6555  -26.4069 H         1 ECN411      0.0000 
     26 H          -2.6096    7.3843  -22.6701 H         1 ECN411      0.0000 
     27 H          -4.6047    8.8308  -22.3799 H         1 ECN411      0.0000 
     28 H          -9.3115   10.9662  -23.9143 H         1 ECN411      0.0000 
     29 H          -7.5084   10.5735  -25.4660 H         1 ECN411      0.0000 
     30 H          -3.9972   12.9090  -21.6026 H         1 ECN411      0.0000 
     31 H          -1.3280   11.7362  -24.6240 H         1 ECN411      0.0000 
     32 H          -6.6395    8.8202  -25.6179 H         1 ECN411      0.0000 
     33 H          -6.8233    9.3534  -23.9380 H         1 ECN411      0.0000 
     34 H          -6.6597   11.3784  -24.8866 H         1 ECN411      0.0000 
     35 H          -4.4946    7.5834  -26.1957 H         1 ECN411      0.0000 
     36 H          -5.4476   13.0902  -26.9803 H         1 ECN411      0.0000 
     37 H          -6.5599   12.1670  -28.0052 H         1 ECN411      0.0000 
     38 H          -9.2079   15.0478  -24.8547 H         1 ECN411      0.0000 
     39 H          -3.1858   10.8147  -25.9066 H         1 ECN411      0.0000 
@<TRIPOS>BOND
     1    2    1 ar   
     2    7    1 ar   
     3   22    1 1    
     4   23    2 ar   
     5   25    2 1    
     6   10    3 1    
     7    5    4 2    
     8   15    4 1    
     9   26    4 1    
    10   20    5 1    
    11   27    5 1    
    12    7    6 ar   
    13    8    6 ar   
    14   28    6 1    
    15   29    7 1    
    16    9    8 1    
    17   23    8 ar   
    18   11   10 ar   
    19   19   10 ar   
    20   12   11 ar   
    21   30   11 1    
    22   13   12 ar   
    23   14   12 1    
    24   24   13 ar   
    25   31   13 1    
    26   21   15 2    
    27   17   16 1    
    28   20   16 1    
    29   32   16 1    
    30   33   16 1    
    31   18   17 1    
    32   19   17 1    
    33   34   17 1    
    34   22   18 1    
    35   24   19 ar   
    36   21   20 1    
    37   35   21 1    
    38   36   22 1    
    39   37   22 1    
    40   38   23 1    
    41   39   24 1    
@<TRIPOS>SUBSTRUCTURE
     1 ECN411      1 GROUP   
@<TRIPOS>SET

