#    Name: 1o96_AMP_3_INTS_M
#    Modification time : Mon Mar 24 19:49:45 2014

@<TRIPOS>MOLECULE
1o96_AMP_3_INTS_M
   75     0     9     0     0
SMALL
NO_CHARGES


@<TRIPOS>ATOM
      1 N          -7.6010   68.7435   58.4525 N.am      2 SEC2        0.0000 
      2 N          -7.0440   68.2350   59.6920 N.am      8 SEL2        0.0000 
      3 N          -8.1580   69.2520   57.2130 N.am      5 SEP2        0.0000 
      4 N          -5.2750   70.4230   57.6765 N.am      2 SEC2        0.0000 
      5 N          -6.4900   69.9050   58.5800 N.am      8 SEL2        0.0000 
      6 N          -4.0600   70.9410   56.7730 N.am      5 SEP2        0.0000 
      7 N          -6.5750   70.5200   57.2970 N.am      2 SEC2        0.0000 
      8 N          -6.6600   71.1350   56.0140 N.am      5 SEP2        0.0000 
      9 N          -4.9665   69.3820   61.8030 N.am      2 SEC2        0.0000 
     10 N          -4.8060   69.2000   60.3870 N.am      8 SEL2        0.0000 
     11 N          -5.1270   69.5640   63.2190 N.am      5 SEP2        0.0000 
     12 N          -5.3420   68.1210   61.4175 N.am      2 SEC2        0.0000 
     13 N          -5.8780   67.0420   62.4480 N.am      5 SEP2        0.0000 
     14 N          -3.7555   69.4910   59.5910 N.am      2 SEC2        0.0000 
     15 N          -2.7050   69.7820   58.7950 N.am      5 SEP2        0.0000 
     16 CA         -5.7275   71.6330   61.9860 C.3       3 GLC5        0.0000 
     17 CA         -7.2630   71.5060   61.4530 C.3       9 GLL5        0.0000 
     18 CA         -4.1920   71.7600   62.5190 C.3       6 GLP5        0.0000 
     19 CA         -6.5020   70.0815   62.8395 C.3       3 GLC5        0.0000 
     20 CA         -5.7410   68.6570   64.2260 C.3       6 GLP5        0.0000 
     21 CA         -8.8460   73.5565   62.8255 C.3       3 GLC5        0.0000 
     22 CA         -9.7110   71.8010   62.3890 C.3       9 GLL5        0.0000 
     23 CA         -7.9810   75.3120   63.2620 C.3       6 GLP5        0.0000 
     24 N          -8.8995   71.9995   64.6640 N.am      2 SEC2        0.0000 
     25 N          -9.5990   72.8230   63.3150 N.am      8 SEL2        0.0000 
     26 N          -8.2000   71.1760   66.0130 N.am      5 SEP2        0.0000 
     27 O         -10.5845   73.3440   64.1270 O.2       1 ALC1        0.0000 
     28 O          -9.5990   72.8230   63.3150 O.2       7 ALL1        0.0000 
     29 O         -11.5700   73.8650   64.9390 O.2       4 ALP1        0.0000 
     30 CA        -12.7430   73.0020   60.6700 C.3       3 GLC5        0.0000 
     31 CA        -10.9990   71.9950   61.6400 C.3       9 GLL5        0.0000 
     32 CA        -14.4870   74.0090   59.7000 C.3       6 GLP5        0.0000 
     33 CA        -12.8215   72.0265   62.8175 C.3       3 GLC5        0.0000 
     34 CA        -14.6440   72.0580   63.9950 C.3       6 GLP5        0.0000 
     35 N         -10.0960   74.3240   61.7910 N.am      2 SEC2        0.0000 
     36 N         -11.2260   73.3390   61.3800 N.am      8 SEL2        0.0000 
     37 N          -8.9660   75.3090   62.2020 N.am      5 SEP2        0.0000 
     38 O         -12.3350   73.8385   62.0005 O.2       1 ALC1        0.0000 
     39 O         -11.2260   73.3390   61.3800 O.2       7 ALL1        0.0000 
     40 O         -13.4440   74.3380   62.6210 O.2       4 ALP1        0.0000 
     41 CA        -10.5165   70.8440   58.3830 C.3       3 GLC5        0.0000 
     42 CA        -10.7000   71.4540   60.2750 C.3       9 GLL5        0.0000 
     43 CA        -10.3330   70.2340   56.4910 C.3       6 GLP5        0.0000 
     44 CA        -15.6280   67.1320   58.8480 C.3       3 GLC5        0.0000 
     45 CA        -13.9940   67.8360   59.8600 C.3       9 GLL5        0.0000 
     46 CA        -17.2620   66.4280   57.8360 C.3       6 GLP5        0.0000 
     47 O         -15.2600   65.5625   59.8215 O.2       1 ALC1        0.0000 
     48 O         -14.1460   66.5560   59.7290 O.2       7 ALL1        0.0000 
     49 O         -16.3740   64.5690   59.9140 O.2       4 ALP1        0.0000 
     50 N         -16.4755   67.9720   60.0270 N.am      2 SEC2        0.0000 
     51 N         -15.1310   68.6050   59.9120 N.am      8 SEL2        0.0000 
     52 N         -17.8200   67.3390   60.1420 N.am      5 SEP2        0.0000 
     53 CA        -14.7585   71.9915   59.8795 C.3       3 GLC5        0.0000 
     54 CA        -15.0300   69.9740   60.0590 C.3       9 GLL5        0.0000 
     55 CA        -14.8370   71.0160   62.0270 C.3       3 GLC5        0.0000 
     56 CA        -16.7330   69.5715   60.7565 C.3       3 GLC5        0.0000 
     57 CA        -18.4360   69.1690   61.4540 C.3       6 GLP5        0.0000 
     58 CA        -15.7910   70.5595   58.5200 C.3       3 GLC5        0.0000 
     59 CA        -16.5520   71.1450   56.9810 C.3       6 GLP5        0.0000 
     60 CA        -12.2370   68.9945   61.9090 C.3       3 GLC5        0.0000 
     61 CA        -12.6400   69.7990   60.0670 C.3       9 GLL5        0.0000 
     62 CA        -11.8340   68.1900   63.7510 C.3       6 GLP5        0.0000 
     63 CA        -13.4420   70.6500   58.3465 C.3       3 GLC5        0.0000 
     64 CA        -14.2440   71.5010   56.6260 C.3       6 GLP5        0.0000 
     65 CA        -11.4865   70.0165   58.2790 C.3       3 GLC5        0.0000 
     66 CA         -7.9820   73.5275   62.3158 C.3       3 GLC5        0.0000 
     67 CA         -8.7030   71.9800   61.2860 C.3       9 GLL5        0.0000 
     68 CA        -11.0945   70.0440   62.8828 C.3       3 GLC5        0.0000 
     69 CA        -10.6598   73.8113   60.3162 C.3       3 GLC5        0.0000 
     70 CA        -10.4700   75.8980   59.6750 C.3       6 GLP5        0.0000 
     71 CA        -12.5362   67.5440   61.4168 C.3       3 GLC5        0.0000 
     72 CA        -12.7270   68.4100   59.9310 C.3       9 GLL5        0.0000 
     73 CA        -11.7120   66.9650   62.9380 C.3       6 GLP5        0.0000 
     74 CA        -13.3678   67.6770   58.1297 C.3       3 GLC5        0.0000 
     75 CA        -13.3750   67.2310   56.3640 C.3       6 GLP5        0.0000 
@<TRIPOS>BOND
@<TRIPOS>SUBSTRUCTURE
     1 ALC1       27 GROUP        1 X    ALC  0     ROOT ALC X 1
     2 SEC2        1 GROUP        1 X    SEC  0     **** SEC X 2
     3 GLC5       16 GROUP        1 X    GLC  0     **** GLC X 6
     4 ALP1       29 GROUP        1 Y    ALP  0     ROOT ALP Y 8
     5 SEP2        3 GROUP        1 Y    SEP  0     **** SEP Y 9
     6 GLP5       18 GROUP        1 Y    GLP  0     **** GLP Y 13
     7 ALL1       28 GROUP        1 Z    ALL  0     ROOT ALL Z 15
     8 SEL2        2 GROUP        1 Z    SEL  0     **** SEL Z 16
     9 GLL5       17 GROUP        1 Z    GLL  0     **** GLL Z 20
@<TRIPOS>SET

