#    Name: 1o96_AMP_3_ligand
#    Modification time : Mon Mar 24 19:49:45 2014

@<TRIPOS>MOLECULE
1o96_AMP_3_ligand
   35    37     1     0     0
SMALL
NO_CHARGES


@<TRIPOS>ATOM
      1 P          -6.2250   69.5070   59.9650 P.3       1 AMP1262     0.0000 
      2 O1P        -7.0440   68.2350   59.6920 O.co2     1 AMP1262     0.0000 
      3 O2P        -6.4900   69.9050   58.5800 O.co2     1 AMP1262     0.0000 
      4 O3P        -4.8060   69.2000   60.3870 O.co2     1 AMP1262     0.0000 
      5 O5'        -7.0930   70.1630   61.1480 O.3       1 AMP1262     0.0000 
      6 C5'        -7.2630   71.5060   61.4530 C.3       1 AMP1262     0.0000 
      7 C4'        -8.7030   71.9800   61.2860 C.3       1 AMP1262     0.0000 
      8 O4'        -9.2850   71.3100   60.2120 O.3       1 AMP1262     0.0000 
      9 C3'        -9.7110   71.8010   62.3890 C.3       1 AMP1262     0.0000 
     10 O3'        -9.5990   72.8230   63.3150 O.3       1 AMP1262     0.0000 
     11 C2'       -10.9990   71.9950   61.6400 C.3       1 AMP1262     0.0000 
     12 O2'       -11.2260   73.3390   61.3800 O.3       1 AMP1262     0.0000 
     13 C1'       -10.7000   71.4540   60.2750 C.3       1 AMP1262     0.0000 
     14 N9        -11.3040   70.1190   60.1160 N.pl3     1 AMP1262     0.0000 
     15 C8        -10.5980   68.9330   59.9870 C.2       1 AMP1262     0.0000 
     16 N7        -11.4690   67.9130   59.8580 N.2       1 AMP1262     0.0000 
     17 C5        -12.7270   68.4100   59.9310 C.ar      1 AMP1262     0.0000 
     18 C6        -13.9940   67.8360   59.8600 C.ar      1 AMP1262     0.0000 
     19 N6        -14.1460   66.5560   59.7290 N.pl3     1 AMP1262     0.0000 
     20 N1        -15.1310   68.6050   59.9120 N.ar      1 AMP1262     0.0000 
     21 C2        -15.0300   69.9740   60.0590 C.ar      1 AMP1262     0.0000 
     22 N3        -13.7780   70.5420   60.1420 N.ar      1 AMP1262     0.0000 
     23 C4        -12.6400   69.7990   60.0670 C.ar      1 AMP1262     0.0000 
     24 H          -6.6301   72.1676   60.8153 H         1 AMP1262     0.0000 
     25 H          -6.9658   71.7419   62.5023 H         1 AMP1262     0.0000 
     26 H          -8.6831   73.0624   61.0320 H         1 AMP1262     0.0000 
     27 H          -9.6674   70.8356   62.7555 H         1 AMP1262     0.0000 
     28 H         -11.7715   71.4784   62.0590 H         1 AMP1262     0.0000 
     29 H         -11.0571   72.1231   59.5409 H         1 AMP1262     0.0000 
     30 H          -9.6365   68.8711   59.9916 H         1 AMP1262     0.0000 
     31 H         -13.3064   66.0132   59.7074 H         1 AMP1262     0.0000 
     32 H         -15.0887   66.2294   59.6616 H         1 AMP1262     0.0000 
     33 H         -15.8716   70.5553   60.1053 H         1 AMP1262     0.0000 
     34 H         -10.5240   72.9500   63.6732 H         1 AMP1262     0.0000 
     35 H         -12.0614   73.5621   61.8823 H         1 AMP1262     0.0000 
@<TRIPOS>BOND
     1    2    1 ar   
     2    3    1 ar   
     3    4    1 ar   
     4    5    1 1    
     5    6    5 1    
     6    7    6 1    
     7   24    6 1    
     8   25    6 1    
     9    8    7 1    
    10    9    7 1    
    11   26    7 1    
    12   13    8 1    
    13   10    9 1    
    14   11    9 1    
    15   27    9 1    
    16   34   10 1    
    17   12   11 1    
    18   13   11 1    
    19   28   11 1    
    20   35   12 1    
    21   14   13 1    
    22   29   13 1    
    23   15   14 1    
    24   23   14 1    
    25   16   15 2    
    26   30   15 1    
    27   17   16 1    
    28   18   17 ar   
    29   23   17 ar   
    30   19   18 1    
    31   20   18 ar   
    32   31   19 1    
    33   32   19 1    
    34   21   20 ar   
    35   22   21 ar   
    36   33   21 1    
    37   23   22 ar   
@<TRIPOS>SUBSTRUCTURE
     1 AMP1262     1 GROUP   
@<TRIPOS>SET

