#    Name: 2iei_FRX_2_INTS_M
#    Modification time : Tue Mar 25 17:46:52 2014

@<TRIPOS>MOLECULE
2iei_FRX_2_INTS_M
   66     0     9     0     0
SMALL
NO_CHARGES


@<TRIPOS>ATOM
      1 CA         74.5575   18.4465   26.6135 C.3       3 GLC5        0.0000 
      2 CA         74.5650   17.6250   24.7140 C.3       9 GLL5        0.0000 
      3 CA         74.5500   19.2680   28.5130 C.3       6 GLP5        0.0000 
      4 CA         75.7800   14.9795   23.4545 C.3       3 GLC5        0.0000 
      5 CA         74.1380   16.2220   24.2730 C.3       9 GLL5        0.0000 
      6 CA         77.4220   13.7370   22.6360 C.3       6 GLP5        0.0000 
      7 O          75.3210   14.5720   26.4895 O.2       1 ALC1        0.0000 
      8 O          74.2380   15.2890   25.3470 O.2       7 ALL1        0.0000 
      9 O          76.4040   13.8550   27.6320 O.2       4 ALP1        0.0000 
     10 CA         75.6840   21.3660   20.8300 C.3       3 GLC5        0.0000 
     11 CA         75.4730   19.9680   21.7830 C.3       9 GLL5        0.0000 
     12 CA         75.8950   22.7640   19.8770 C.3       6 GLP5        0.0000 
     13 CA         77.6170   20.2425   21.4425 C.3       3 GLC5        0.0000 
     14 CA         79.7610   20.5170   21.1020 C.3       6 GLP5        0.0000 
     15 N          72.4285   20.9530   22.1565 N.am      2 SEC2        0.0000 
     16 N          72.8280   20.6250   21.0050 N.am      8 SEL2        0.0000 
     17 N          72.0290   21.2810   23.3080 N.am      5 SEP2        0.0000 
     18 CA         77.2115   15.1665   21.2185 C.3       3 GLC5        0.0000 
     19 CA         77.0010   16.5960   19.8010 C.3       9 GLL5        0.0000 
     20 CA         78.9165   16.6380   19.0820 C.3       3 GLC5        0.0000 
     21 CA         80.8320   16.6800   18.3630 C.3       6 GLP5        0.0000 
     22 CA         78.1970   15.6025   17.7265 C.3       3 GLC5        0.0000 
     23 CA         76.4680   16.2160   18.5740 C.3       9 GLL5        0.0000 
     24 CA         79.9260   14.9890   16.8790 C.3       6 GLP5        0.0000 
     25 CA         73.6770   19.7980   16.7175 C.3       3 GLC5        0.0000 
     26 CA         73.4950   18.5750   18.2870 C.3       9 GLL5        0.0000 
     27 CA         73.8590   21.0210   15.1480 C.3       6 GLP5        0.0000 
     28 O          71.7275   20.8510   18.3900 O.2       1 ALC1        0.0000 
     29 O          71.3810   19.6330   18.9930 O.2       7 ALL1        0.0000 
     30 O          72.0740   22.0690   17.7870 O.2       4 ALP1        0.0000 
     31 CA         69.3810   20.6800   20.4750 C.3       3 GLC5        0.0000 
     32 CA         68.9170   19.9260   18.8490 C.3       9 GLL5        0.0000 
     33 CA         69.8450   21.4340   22.1010 C.3       6 GLP5        0.0000 
     34 O          67.2320   18.5415   20.0510 O.2       1 ALC1        0.0000 
     35 O          67.6620   19.5780   19.2620 O.2       7 ALL1        0.0000 
     36 O          66.8020   17.5050   20.8400 O.2       4 ALP1        0.0000 
     37 CA         66.5915   24.2795   16.5420 C.3       3 GLC5        0.0000 
     38 CA         66.7420   22.4120   17.5770 C.3       9 GLL5        0.0000 
     39 CA         66.4410   26.1470   15.5070 C.3       6 GLP5        0.0000 
     40 CA         63.9640   18.8925   18.6360 C.3       3 GLC5        0.0000 
     41 CA         65.1510   20.7570   18.8680 C.3       9 GLL5        0.0000 
     42 CA         62.7770   17.0280   18.4040 C.3       6 GLP5        0.0000 
     43 CA         63.1250   20.8695   19.7895 C.3       3 GLC5        0.0000 
     44 CA         61.0990   20.9820   20.7110 C.3       6 GLP5        0.0000 
     45 CA         63.9210   22.0805   15.7125 C.3       3 GLC5        0.0000 
     46 CA         64.0920   23.1870   17.5210 C.3       9 GLL5        0.0000 
     47 CA         63.7500   20.9740   13.9040 C.3       6 GLP5        0.0000 
     48 CA         62.7045   24.1435   16.6820 C.3       3 GLC5        0.0000 
     49 CA         61.3170   25.1000   15.8430 C.3       6 GLP5        0.0000 
     50 CA         65.2665   24.6670   16.5140 C.3       3 GLC5        0.0000 
     51 CA         63.9565   24.0525   19.1740 C.3       3 GLC5        0.0000 
     52 CA         63.8210   24.9180   20.8270 C.3       6 GLP5        0.0000 
     53 CA         62.3350   22.5165   18.5565 C.3       3 GLC5        0.0000 
     54 CA         60.5780   21.8460   19.5920 C.3       6 GLP5        0.0000 
     55 CA         72.6138   16.9633   25.0463 C.3       3 GLC5        0.0000 
     56 CA         70.8760   17.0030   25.5990 C.3       6 GLP5        0.0000 
     57 CA         76.0722   16.2692   25.2302 C.3       3 GLC5        0.0000 
     58 CA         77.7930   15.6150   25.9670 C.3       6 GLP5        0.0000 
     59 CA         66.7070   20.7030   20.7090 C.3       3 GLC5        0.0000 
     60 CA         66.7970   20.5170   18.7760 C.3       9 GLL5        0.0000 
     61 CA         67.4400   20.7690   22.5960 C.3       6 GLP5        0.0000 
     62 CA         67.5146   23.2849   18.6403 C.3       3 GLC5        0.0000 
     63 CA         65.4570   22.1490   17.9520 C.3       9 GLL5        0.0000 
     64 CA         68.7490   24.5370   19.3860 C.3       6 GLP5        0.0000 
     65 CA         65.9301   20.6169   16.6246 C.3       3 GLC5        0.0000 
     66 CA         65.9770   20.0430   14.7650 C.3       6 GLP5        0.0000 
@<TRIPOS>BOND
@<TRIPOS>SUBSTRUCTURE
     1 ALC1        7 GROUP        1 X    ALC  0     ROOT ALC X 1
     2 SEC2       15 GROUP        1 X    SEC  0     **** SEC X 2
     3 GLC5        1 GROUP        1 X    GLC  0     **** GLC X 6
     4 ALP1        9 GROUP        1 Y    ALP  0     ROOT ALP Y 8
     5 SEP2       17 GROUP        1 Y    SEP  0     **** SEP Y 9
     6 GLP5        3 GROUP        1 Y    GLP  0     **** GLP Y 13
     7 ALL1        8 GROUP        1 Z    ALL  0     ROOT ALL Z 15
     8 SEL2       16 GROUP        1 Z    SEL  0     **** SEL Z 16
     9 GLL5        2 GROUP        1 Z    GLL  0     **** GLL Z 20
@<TRIPOS>SET

