#    Name: 2iei_FRX_2_ligand
#    Modification time : Tue Mar 25 17:46:52 2014

@<TRIPOS>MOLECULE
2iei_FRX_2_ligand
   49    51     1     0     0
SMALL
NO_CHARGES


@<TRIPOS>ATOM
      1 O26        75.2350   20.4440   24.0820 O.2       1 FRX904      0.0000 
      2 C22        75.1830   19.5820   23.2170 C.2       1 FRX904      0.0000 
      3 N22        74.8880   18.3000   23.4590 N.am      1 FRX904      0.0000 
      4 C24        74.5650   17.6250   24.7140 C.3       1 FRX904      0.0000 
      5 C25        74.1380   16.2220   24.2730 C.3       1 FRX904      0.0000 
      6 O25        74.2380   15.2890   25.3470 O.3       1 FRX904      0.0000 
      7 C21        75.4730   19.9680   21.7830 C.3       1 FRX904      0.0000 
      8 N17        74.6340   19.2980   20.7830 N.am      1 FRX904      0.0000 
      9 C19        73.3660   19.6650   20.4840 C.2       1 FRX904      0.0000 
     10 O19        72.8280   20.6250   21.0050 O.2       1 FRX904      0.0000 
     11 C17        75.2500   18.2570   20.0570 C.ar      1 FRX904      0.0000 
     12 C31        76.3940   17.6130   20.5440 C.ar      1 FRX904      0.0000 
     13 C30        77.0010   16.5960   19.8010 C.ar      1 FRX904      0.0000 
     14 C29        76.4680   16.2160   18.5740 C.ar      1 FRX904      0.0000 
     15 C16        74.7300   17.8770   18.8220 C.ar      1 FRX904      0.0000 
     16 C28        75.3310   16.8570   18.0820 C.ar      1 FRX904      0.0000 
     17 C15        73.4950   18.5750   18.2870 C.3       1 FRX904      0.0000 
     18 C13        72.5700   18.9070   19.4500 C.3       1 FRX904      0.0000 
     19 N11        71.3810   19.6330   18.9930 N.am      1 FRX904      0.0000 
     20 C11        70.1390   19.1460   19.1270 C.2       1 FRX904      0.0000 
     21 O13        69.9550   17.9950   19.4990 O.2       1 FRX904      0.0000 
     22 C7         68.9170   19.9260   18.8490 C.2       1 FRX904      0.0000 
     23 N8         67.6620   19.5780   19.2620 N.pl3     1 FRX904      0.0000 
     24 C3         66.7970   20.5170   18.7760 C.2       1 FRX904      0.0000 
     25 C4         67.4650   21.4210   18.0970 C.2       1 FRX904      0.0000 
     26 C5         66.7420   22.4120   17.5770 C.2       1 FRX904      0.0000 
     27 S2         65.1510   20.7570   18.8680 S.3       1 FRX904      0.0000 
     28 C1         65.4570   22.1490   17.9520 C.2       1 FRX904      0.0000 
     29 CL         64.0920   23.1870   17.5210 Cl        1 FRX904      0.0000 
     30 H          74.8756   17.6082   22.6025 H         1 FRX904      0.0000 
     31 H          73.7436   18.0922   25.2109 H         1 FRX904      0.0000 
     32 H          75.4217   17.5392   25.3454 H         1 FRX904      0.0000 
     33 H          74.7767   15.9337   23.4219 H         1 FRX904      0.0000 
     34 H          73.1064   16.2946   23.8910 H         1 FRX904      0.0000 
     35 H          76.5486   19.7604   21.5781 H         1 FRX904      0.0000 
     36 H          75.3643   21.0735   21.6920 H         1 FRX904      0.0000 
     37 H          76.7884   17.8897   21.4515 H         1 FRX904      0.0000 
     38 H          77.8419   16.1308   20.1649 H         1 FRX904      0.0000 
     39 H          76.9091   15.4654   18.0299 H         1 FRX904      0.0000 
     40 H          74.9359   16.5793   17.1762 H         1 FRX904      0.0000 
     41 H          72.9798   17.9222   17.5932 H         1 FRX904      0.0000 
     42 H          73.7831   19.4901   17.7845 H         1 FRX904      0.0000 
     43 H          72.2707   17.9495   19.8984 H         1 FRX904      0.0000 
     44 H          71.5639   20.5623   18.5523 H         1 FRX904      0.0000 
     45 H          69.0688   20.8054   18.2901 H         1 FRX904      0.0000 
     46 H          67.4325   18.8200   19.7915 H         1 FRX904      0.0000 
     47 H          68.4803   21.3756   17.9694 H         1 FRX904      0.0000 
     48 H          67.0362   23.1459   17.0588 H         1 FRX904      0.0000 
     49 H          75.1846   14.9675   25.3231 H         1 FRX904      0.0000 
@<TRIPOS>BOND
     1    2    1 2    
     2    3    2 am   
     3    7    2 1    
     4    4    3 1    
     5   30    3 1    
     6    5    4 1    
     7   31    4 1    
     8   32    4 1    
     9    6    5 1    
    10   33    5 1    
    11   34    5 1    
    12   49    6 1    
    13    8    7 1    
    14   35    7 1    
    15   36    7 1    
    16    9    8 am   
    17   11    8 1    
    18   10    9 2    
    19   18    9 1    
    20   12   11 ar   
    21   15   11 ar   
    22   13   12 ar   
    23   37   12 1    
    24   14   13 ar   
    25   38   13 1    
    26   16   14 ar   
    27   39   14 1    
    28   16   15 ar   
    29   17   15 1    
    30   40   16 1    
    31   18   17 1    
    32   41   17 1    
    33   42   17 1    
    34   19   18 1    
    35   43   18 1    
    36   20   19 am   
    37   44   19 1    
    38   21   20 2    
    39   22   20 1    
    40   23   22 1    
    41   45   22 1    
    42   24   23 1    
    43   46   23 1    
    44   25   24 2    
    45   27   24 1    
    46   26   25 1    
    47   47   25 1    
    48   28   26 2    
    49   48   26 1    
    50   28   27 1    
    51   29   28 1    
@<TRIPOS>SUBSTRUCTURE
     1 FRX904      1 GROUP   
@<TRIPOS>SET

