#    Name: 2ow0_6MR_1_INTS_M
#    Modification time : Mon Mar 24 17:53:59 2014

@<TRIPOS>MOLECULE
2ow0_6MR_1_INTS_M
   56     0     9     0     0
SMALL
NO_CHARGES


@<TRIPOS>ATOM
      1 CA         26.3000   14.7430   47.6450 C.3       3 GLC5        0.0000 
      2 CA         25.2110   13.7350   46.1520 C.3       9 GLL5        0.0000 
      3 CA         27.3890   15.7510   49.1380 C.3       6 GLP5        0.0000 
      4 CA         27.3335   14.0160   47.8115 C.3       3 GLC5        0.0000 
      5 CA         27.2780   12.2810   46.4850 C.3       9 GLL5        0.0000 
      6 CA         29.1990   12.3980   46.0465 C.3       3 GLC5        0.0000 
      7 CA         31.1200   12.5150   45.6080 C.3       6 GLP5        0.0000 
      8 Zn         25.3035    8.7980   46.5980 Zn        2 ZIC7        0.0000 
      9 Zn         25.3130    9.7220   47.1220 Zn        8 ZIL7        0.0000 
     10 Zn         25.2940    7.8740   46.0740 Zn        5 ZIP7        0.0000 
     11 Zn         26.3510    8.5410   46.3265 Zn        2 ZIC7        0.0000 
     12 Zn         27.4080    9.2080   46.5790 Zn        8 ZIL7        0.0000 
     13 N          28.4680    8.5060   47.4055 N.am      1 SEC2        0.0000 
     14 N          27.4080    9.2080   46.5790 N.am      7 SEL2        0.0000 
     15 N          29.5280    7.8040   48.2320 N.am      4 SEP2        0.0000 
     16 Zn         25.6465    9.8725   47.3040 Zn        2 ZIC7        0.0000 
     17 Zn         25.9990   11.8710   48.5340 Zn        8 ZIL7        0.0000 
     18 N          28.4430   12.4345   51.4920 N.am      1 SEC2        0.0000 
     19 N          27.7160   11.8070   50.4380 N.am      7 SEL2        0.0000 
     20 N          29.1700   13.0620   52.5460 N.am      4 SEP2        0.0000 
     21 N          29.3020   11.7555   50.6790 N.am      1 SEC2        0.0000 
     22 N          30.8880   11.7040   50.9200 N.am      4 SEP2        0.0000 
     23 CA         26.6525    9.7495   52.5080 C.3       3 GLC5        0.0000 
     24 CA         25.9270    9.8290   50.4270 C.3       9 GLL5        0.0000 
     25 CA         27.3780    9.6700   54.5890 C.3       6 GLP5        0.0000 
     26 CA         22.3665    7.8840   51.6250 C.3       3 GLC5        0.0000 
     27 CA         24.4310    8.0910   51.1900 C.3       9 GLL5        0.0000 
     28 CA         20.3020    7.6770   52.0600 C.3       6 GLP5        0.0000 
     29 CA         25.1265    5.9455   53.2805 C.3       3 GLC5        0.0000 
     30 CA         26.0930    4.9190   51.6480 C.3       9 GLL5        0.0000 
     31 CA         24.1600    6.9720   54.9130 C.3       6 GLP5        0.0000 
     32 CA         26.6875    3.5475   50.3980 C.3       3 GLC5        0.0000 
     33 CA         25.7640    3.6310   52.0640 C.3       9 GLL5        0.0000 
     34 CA         27.6110    3.4640   48.7320 C.3       6 GLP5        0.0000 
     35 CA         25.0320    0.5500   51.3190 C.3       3 GLC5        0.0000 
     36 CA         23.9890    1.2540   52.6970 C.3       9 GLL5        0.0000 
     37 CA         26.0750   -0.1540   49.9410 C.3       6 GLP5        0.0000 
     38 CA         22.0510    6.4885   51.5550 C.3       3 GLC5        0.0000 
     39 CA         23.8000    5.3000   51.0500 C.3       9 GLL5        0.0000 
     40 CA         26.6698   11.6742   42.0455 C.3       3 GLC5        0.0000 
     41 CA         25.7420   11.0670   43.8430 C.3       9 GLL5        0.0000 
     42 CA         28.0090   12.4490   40.7860 C.3       6 GLP5        0.0000 
     43 CA         24.5333    7.2877   52.9795 C.3       3 GLC5        0.0000 
     44 CA         25.3820    7.1160   50.9020 C.3       9 GLL5        0.0000 
     45 CA         26.4241    6.6451   49.0734 C.3       3 GLC5        0.0000 
     46 CA         26.7850    5.6430   47.5660 C.3       6 GLP5        0.0000 
     47 CA         23.6655    5.9070   52.7818 C.3       3 GLC5        0.0000 
     48 CA         25.1080    5.7680   51.1490 C.3       9 GLL5        0.0000 
     49 CA         22.8770    6.2800   54.4640 C.3       6 GLP5        0.0000 
     50 CA         27.9898    4.1510   52.0295 C.3       3 GLC5        0.0000 
     51 CA         30.0510    4.0270   52.2030 C.3       6 GLP5        0.0000 
     52 CA         25.5920    1.6230   50.9825 C.3       3 GLC5        0.0000 
     53 CA         23.4202    4.9350   53.0945 C.3       3 GLC5        0.0000 
     54 CA         24.4540    3.1690   51.9840 C.3       9 GLL5        0.0000 
     55 CA         25.6596    4.8739   49.6821 C.3       3 GLC5        0.0000 
     56 CA         26.6190    4.4260   48.1400 C.3       6 GLP5        0.0000 
@<TRIPOS>BOND
@<TRIPOS>SUBSTRUCTURE
     1 SEC2       13 GROUP        1 X    SEC  0     ROOT SEC X 2
     2 ZIC7        8 GROUP        1 X    ZIC  0     **** ZIC X 5
     3 GLC5        1 GROUP        1 X    GLC  0     **** GLC X 6
     4 SEP2       15 GROUP        1 Y    SEP  0     ROOT SEP Y 9
     5 ZIP7       10 GROUP        1 Y    ZIP  0     **** ZIP Y 12
     6 GLP5        3 GROUP        1 Y    GLP  0     **** GLP Y 13
     7 SEL2       14 GROUP        1 Z    SEL  0     ROOT SEL Z 16
     8 ZIL7        9 GROUP        1 Z    ZIL  0     **** ZIL Z 19
     9 GLL5        2 GROUP        1 Z    GLL  0     **** GLL Z 20
@<TRIPOS>SET

