#    Name: 2ow0_6MR_1_ligand
#    Modification time : Mon Mar 24 17:53:59 2014

@<TRIPOS>MOLECULE
2ow0_6MR_1_ligand
   49    52     1     0     0
SMALL
NO_CHARGES


@<TRIPOS>ATOM
      1 CD2        25.3960   12.1360   44.6660 C.ar      1 6MR501      0.0000 
      2 CE3        25.7420   11.0670   43.8430 C.ar      1 6MR501      0.0000 
      3 CZ3        24.9190   10.7320   42.7670 C.ar      1 6MR501      0.0000 
      4 CH2        23.7600   11.4580   42.5170 C.ar      1 6MR501      0.0000 
      5 CZ2        23.4170   12.5290   43.3400 C.ar      1 6MR501      0.0000 
      6 CE2        24.2380   12.8680   44.4130 C.ar      1 6MR501      0.0000 
      7 NE1        24.1630   13.8260   45.3330 N.pl3     1 6MR501      0.0000 
      8 CD1        25.2110   13.7350   46.1520 C.2       1 6MR501      0.0000 
      9 CG         25.9880   12.7200   45.7830 C.2       1 6MR501      0.0000 
     10 CB         27.2780   12.2810   46.4850 C.3       1 6MR501      0.0000 
     11 CA         27.0170   11.3040   47.6350 C.3       1 6MR501      0.0000 
     12 C          26.5390    9.9630   47.0660 C.2       1 6MR501      0.0000 
     13 O          25.3130    9.7220   47.1220 O.co2     1 6MR501      0.0000 
     14 OXT        27.4080    9.2080   46.5790 O.co2     1 6MR501      0.0000 
     15 N          25.9990   11.8710   48.5340 N.pl3     1 6MR501      0.0000 
     16 SAZ        26.2840   11.5120   50.1000 S.o2      1 6MR501      0.0000 
     17 OBE        25.4080   12.3860   50.9470 O.2       1 6MR501      0.0000 
     18 OAP        27.7160   11.8070   50.4380 O.2       1 6MR501      0.0000 
     19 CAY        25.9270    9.8290   50.4270 C.ar      1 6MR501      0.0000 
     20 CAX        26.8780    8.8510   50.1420 C.ar      1 6MR501      0.0000 
     21 CAW        26.6110    7.5060   50.3770 C.ar      1 6MR501      0.0000 
     22 CAO        24.7000    9.4380   50.9520 C.ar      1 6MR501      0.0000 
     23 CAN        24.4310    8.0910   51.1900 C.ar      1 6MR501      0.0000 
     24 CAM        25.3820    7.1160   50.9020 C.ar      1 6MR501      0.0000 
     25 CAL        25.1080    5.7680   51.1490 C.ar      1 6MR501      0.0000 
     26 CAK        26.0930    4.9190   51.6480 C.ar      1 6MR501      0.0000 
     27 CAJ        25.7640    3.6310   52.0640 C.ar      1 6MR501      0.0000 
     28 CAT        24.4540    3.1690   51.9840 C.ar      1 6MR501      0.0000 
     29 I          23.9890    1.2540   52.6970 I         1 6MR501      0.0000 
     30 CAU        23.4730    4.0110   51.4660 C.ar      1 6MR501      0.0000 
     31 CAV        23.8000    5.3000   51.0500 C.ar      1 6MR501      0.0000 
     32 H          26.5944   10.5296   44.0252 H         1 6MR501      0.0000 
     33 H          25.1734    9.9427   42.1564 H         1 6MR501      0.0000 
     34 H          23.1549   11.2059   41.7252 H         1 6MR501      0.0000 
     35 H          22.5624   13.0660   43.1560 H         1 6MR501      0.0000 
     36 H          23.4508   14.4937   45.3996 H         1 6MR501      0.0000 
     37 H          25.3827   14.3298   46.9143 H         1 6MR501      0.0000 
     38 H          27.7903   13.1662   46.8766 H         1 6MR501      0.0000 
     39 H          27.9382   11.8040   45.7529 H         1 6MR501      0.0000 
     40 H          27.9387   11.1448   48.1607 H         1 6MR501      0.0000 
     41 H          25.2622   12.3767   48.3195 H         1 6MR501      0.0000 
     42 H          27.7934    9.1296   49.7509 H         1 6MR501      0.0000 
     43 H          27.3249    6.7958   50.1619 H         1 6MR501      0.0000 
     44 H          23.9840   10.1474   51.1670 H         1 6MR501      0.0000 
     45 H          23.5179    7.8148   51.5835 H         1 6MR501      0.0000 
     46 H          27.0674    5.2444   51.7096 H         1 6MR501      0.0000 
     47 H          26.5025    3.0114   52.4366 H         1 6MR501      0.0000 
     48 H          22.5010    3.6796   51.3899 H         1 6MR501      0.0000 
     49 H          23.0652    5.9139   50.6646 H         1 6MR501      0.0000 
@<TRIPOS>BOND
     1    2    1 ar   
     2    6    1 ar   
     3    9    1 1    
     4    3    2 ar   
     5   32    2 1    
     6    4    3 ar   
     7   33    3 1    
     8    5    4 ar   
     9   34    4 1    
    10    6    5 ar   
    11   35    5 1    
    12    7    6 1    
    13    8    7 1    
    14   36    7 1    
    15    9    8 2    
    16   37    8 1    
    17   10    9 1    
    18   11   10 1    
    19   38   10 1    
    20   39   10 1    
    21   12   11 1    
    22   15   11 1    
    23   40   11 1    
    24   13   12 ar   
    25   14   12 ar   
    26   16   15 1    
    27   41   15 1    
    28   17   16 2    
    29   18   16 2    
    30   19   16 1    
    31   20   19 ar   
    32   22   19 ar   
    33   21   20 ar   
    34   42   20 1    
    35   24   21 ar   
    36   43   21 1    
    37   23   22 ar   
    38   44   22 1    
    39   24   23 ar   
    40   45   23 1    
    41   25   24 1    
    42   26   25 ar   
    43   31   25 ar   
    44   27   26 ar   
    45   46   26 1    
    46   28   27 ar   
    47   47   27 1    
    48   29   28 1    
    49   30   28 ar   
    50   31   30 ar   
    51   48   30 1    
    52   49   31 1    
@<TRIPOS>SUBSTRUCTURE
     1 6MR501      1 GROUP   
@<TRIPOS>SET

