#    Name: 4az2_9MU_1_INTS_M
#    Modification time : Tue Mar 25 06:23:19 2014

@<TRIPOS>MOLECULE
4az2_9MU_1_INTS_M
   56     0    12     0     0
SMALL
NO_CHARGES


@<TRIPOS>ATOM
      1 N          27.7730   16.5945   26.7350 N.am      2 SEC2        0.0000 
      2 N          28.3660   15.8740   25.7070 N.am     10 SEL2        0.0000 
      3 N          27.1800   17.3150   27.7630 N.am      6 SEP2        0.0000 
      4 N          32.7550   15.2500   26.5250 N.am      2 SEC2        0.0000 
      5 N          32.3020   14.2650   25.3840 N.am     10 SEL2        0.0000 
      6 N          33.2080   16.2350   27.6660 N.am      6 SEP2        0.0000 
      7 CA         31.7480   17.5330   26.9195 C.3       4 GLC5        0.0000 
      8 CA         31.1850   18.1050   25.2770 C.3      12 GLL5        0.0000 
      9 CA         32.3110   16.9610   28.5620 C.3       8 GLP5        0.0000 
     10 CA         30.8955   18.3770   21.0035 C.3       4 GLC5        0.0000 
     11 CA         31.9300   17.8520   22.8110 C.3      12 GLL5        0.0000 
     12 CA         29.8610   18.9020   19.1960 C.3       8 GLP5        0.0000 
     13 CA         33.7745   20.8615   23.2235 C.3       4 GLC5        0.0000 
     14 CA         33.1550   18.7320   23.1060 C.3      12 GLL5        0.0000 
     15 CA         34.3940   22.9910   23.3410 C.3       8 GLP5        0.0000 
     16 CA         34.4035   17.1540   25.5495 C.3       4 GLC5        0.0000 
     17 CA         33.5990   18.6520   24.6080 C.3      12 GLL5        0.0000 
     18 CA         35.2080   15.6560   26.4910 C.3       8 GLP5        0.0000 
     19 CA         32.9550   17.8065   26.5850 C.3       4 GLC5        0.0000 
     20 OD1        33.1135   22.2055   26.8745 O.co2     3 ASC3        0.0000 
     21 OD1        32.3420   20.0960   26.3190 O.co2    11 ASL3        0.0000 
     22 OD1        32.7710   23.5330   27.3100 O.co2     7 ASP3        0.0000 
     23 OD1        31.0030   21.5480   27.2925 O.co2     3 ASC3        0.0000 
     24 OD1        30.7370   22.7840   27.6330 O.co2     7 ASP3        0.0000 
     25 O          33.1135   22.2055   26.8745 O.2       1 ALC1        0.0000 
     26 O          33.4560   20.8780   26.4390 O.2       9 ALL1        0.0000 
     27 O          32.7710   23.5330   27.3100 O.2       5 ALP1        0.0000 
     28 O          31.0030   21.5480   27.2925 O.2       1 ALC1        0.0000 
     29 O          31.2690   20.3120   26.9520 O.2       9 ALL1        0.0000 
     30 O          30.7370   22.7840   27.6330 O.2       5 ALP1        0.0000 
     31 O          29.8790   19.8915   26.7915 O.2       1 ALC1        0.0000 
     32 O          28.4890   19.4710   26.6310 O.2       5 ALP1        0.0000 
     33 CA         34.5757   10.4605   24.9883 C.3       4 GLC5        0.0000 
     34 CA         32.5770   10.5550   24.4440 C.3      12 GLL5        0.0000 
     35 CA         36.3900   10.9680   25.2420 C.3       8 GLP5        0.0000 
     36 CA         35.3428    8.3160   29.7950 C.3       4 GLC5        0.0000 
     37 CA         33.5990    8.0170   28.4400 C.3      12 GLL5        0.0000 
     38 CA         37.2050    8.0380   30.7510 C.3       8 GLP5        0.0000 
     39 CA         32.3950   10.4645   30.7583 C.3       4 GLC5        0.0000 
     40 CA         33.3620    9.1710   29.2380 C.3      12 GLL5        0.0000 
     41 CA         31.6100   11.1610   32.5720 C.3       8 GLP5        0.0000 
     42 CA         34.5106   11.0201   25.9069 C.3       4 GLC5        0.0000 
     43 CA         32.8570   10.4400   27.2300 C.3      12 GLL5        0.0000 
     44 CA         33.9411   12.6361   26.7934 C.3       4 GLC5        0.0000 
     45 CA         35.2510   14.2000   27.0150 C.3       8 GLP5        0.0000 
     46 CA         35.0990    9.1867   26.5245 C.3       4 GLC5        0.0000 
     47 CA         33.0980    9.2720   26.4330 C.3      12 GLL5        0.0000 
     48 CA         36.8800    9.7210   25.9560 C.3       8 GLP5        0.0000 
     49 CA         28.9218   19.3362   23.6842 C.3       4 GLC5        0.0000 
     50 CA         29.5070   17.3030   23.5000 C.3      12 GLL5        0.0000 
     51 CA         27.7120   20.9170   23.7340 C.3       8 GLP5        0.0000 
     52 CA         31.3330   20.0125   22.5120 C.3       4 GLC5        0.0000 
     53 CA         30.7560   18.2080   23.7690 C.3      12 GLL5        0.0000 
     54 CA         30.4170   21.6440   21.8260 C.3       8 GLP5        0.0000 
     55 CA         35.1065   19.4465   23.3535 C.3       4 GLC5        0.0000 
     56 CA         36.8360   20.2010   22.8500 C.3       8 GLP5        0.0000 
@<TRIPOS>BOND
@<TRIPOS>SUBSTRUCTURE
     1 ALC1       25 GROUP        1 X    ALC  0     ROOT ALC X 1
     2 SEC2        1 GROUP        1 X    SEC  0     **** SEC X 2
     3 ASC3       20 GROUP        1 X    ASC  0     **** ASC X 3
     4 GLC5        7 GROUP        1 X    GLC  0     **** GLC X 6
     5 ALP1       27 GROUP        1 Y    ALP  0     ROOT ALP Y 8
     6 SEP2        3 GROUP        1 Y    SEP  0     **** SEP Y 9
     7 ASP3       22 GROUP        1 Y    ASP  0     **** ASP Y 10
     8 GLP5        9 GROUP        1 Y    GLP  0     **** GLP Y 13
     9 ALL1       26 GROUP        1 Z    ALL  0     ROOT ALL Z 15
    10 SEL2        2 GROUP        1 Z    SEL  0     **** SEL Z 16
    11 ASL3       21 GROUP        1 Z    ASL  0     **** ASL Z 17
    12 GLL5        8 GROUP        1 Z    GLL  0     **** GLL Z 20
@<TRIPOS>SET

