#    Name: 4az2_9MU_1_ligand
#    Modification time : Tue Mar 25 06:23:19 2014

@<TRIPOS>MOLECULE
4az2_9MU_1_ligand
   67    70     1     0     0
SMALL
NO_CHARGES


@<TRIPOS>ATOM
      1 N12        30.4020   13.2940   24.1520 N.pl3     1 9MU1258     0.0000 
      2 C15        29.4670   13.7990   25.2030 C.3       1 9MU1258     0.0000 
      3 C17        29.1270   15.2790   24.9440 C.2       1 9MU1258     0.0000 
      4 O20        28.3660   15.8740   25.7070 O.2       1 9MU1258     0.0000 
      5 C16        28.1650   12.9530   25.3460 C.3       1 9MU1258     0.0000 
      6 C18        28.5550   11.6340   26.0070 C.ar      1 9MU1258     0.0000 
      7 C21        28.7050   11.5810   27.4570 C.ar      1 9MU1258     0.0000 
      8 C22        28.8520   10.4580   25.2160 C.ar      1 9MU1258     0.0000 
      9 C24        29.1620   10.3850   28.0920 C.ar      1 9MU1258     0.0000 
     10 C25        29.3030    9.2690   25.8610 C.ar      1 9MU1258     0.0000 
     11 C27        29.4600    9.2360   27.2820 C.ar      1 9MU1258     0.0000 
     12 S11        32.0500   13.2000   24.4410 S.o2      1 9MU1258     0.0000 
     13 O14        32.3020   14.2650   25.3840 O.2       1 9MU1258     0.0000 
     14 O13        32.7500   13.1370   23.2370 O.2       1 9MU1258     0.0000 
     15 C3         32.4710   11.6600   26.6110 C.ar      1 9MU1258     0.0000 
     16 C7         32.3400   11.7490   25.2160 C.ar      1 9MU1258     0.0000 
     17 C9         32.5770   10.5550   24.4440 C.ar      1 9MU1258     0.0000 
     18 C5         32.9460    9.3510   25.0250 C.ar      1 9MU1258     0.0000 
     19 C6         33.4770    8.0490   27.0660 C.ar      1 9MU1258     0.0000 
     20 C10        33.5990    8.0170   28.4400 C.ar      1 9MU1258     0.0000 
     21 C8         33.3620    9.1710   29.2380 C.ar      1 9MU1258     0.0000 
     22 C4         32.9980   10.3650   28.6510 C.ar      1 9MU1258     0.0000 
     23 C1         32.8570   10.4400   27.2300 C.ar      1 9MU1258     0.0000 
     24 C2         33.0980    9.2720   26.4330 C.ar      1 9MU1258     0.0000 
     25 N19        29.7300   15.8930   23.8630 N.am      1 9MU1258     0.0000 
     26 C23        29.5070   17.3030   23.5000 C.3       1 9MU1258     0.0000 
     27 C26        30.7560   18.2080   23.7690 C.3       1 9MU1258     0.0000 
     28 C28        31.1850   18.1050   25.2770 C.3       1 9MU1258     0.0000 
     29 C29        31.9300   17.8520   22.8110 C.3       1 9MU1258     0.0000 
     30 N30        32.3940   18.9750   25.4330 N.pl3     1 9MU1258     0.0000 
     31 C31        33.1550   18.7320   23.1060 C.3       1 9MU1258     0.0000 
     32 C32        33.5990   18.6520   24.6080 C.3       1 9MU1258     0.0000 
     33 C33        32.3420   20.0960   26.3190 C.cat     1 9MU1258     0.0000 
     34 N34        33.4560   20.8780   26.4390 N.pl3     1 9MU1258     0.0000 
     35 N35        31.2690   20.3120   26.9520 N.pl3     1 9MU1258     0.0000 
     36 H          30.1256   12.9986   23.2666 H         1 9MU1258     0.0000 
     37 H          29.9812   13.7628   26.1801 H         1 9MU1258     0.0000 
     38 H          27.7632   12.7714   24.3707 H         1 9MU1258     0.0000 
     39 H          27.4743   13.4857   25.9664 H         1 9MU1258     0.0000 
     40 H          28.4808   12.4028   28.0052 H         1 9MU1258     0.0000 
     41 H          28.7371   10.4898   24.2126 H         1 9MU1258     0.0000 
     42 H          29.2747   10.3444   29.0918 H         1 9MU1258     0.0000 
     43 H          29.5143    8.4402   25.3099 H         1 9MU1258     0.0000 
     44 H          29.7906    8.3795   27.7334 H         1 9MU1258     0.0000 
     45 H          32.2874   12.4822   27.1981 H         1 9MU1258     0.0000 
     46 H          32.4609   10.6224   23.4135 H         1 9MU1258     0.0000 
     47 H          33.1103    8.5195   24.4557 H         1 9MU1258     0.0000 
     48 H          33.6494    7.2266   26.4933 H         1 9MU1258     0.0000 
     49 H          33.8692    7.1391   28.9205 H         1 9MU1258     0.0000 
     50 H          33.4679    9.0947   30.2580 H         1 9MU1258     0.0000 
     51 H          32.8252   11.2032   29.2081 H         1 9MU1258     0.0000 
     52 H          30.3835   15.3618   23.2490 H         1 9MU1258     0.0000 
     53 H          28.6672   17.7277   24.0705 H         1 9MU1258     0.0000 
     54 H          29.2579   17.3994   22.4324 H         1 9MU1258     0.0000 
     55 H          30.4623   19.2379   23.5815 H         1 9MU1258     0.0000 
     56 H          31.4175   17.0824   25.4870 H         1 9MU1258     0.0000 
     57 H          30.3750   18.4611   25.8777 H         1 9MU1258     0.0000 
     58 H          31.6065   18.0124   21.7892 H         1 9MU1258     0.0000 
     59 H          32.1905   16.8095   22.9520 H         1 9MU1258     0.0000 
     60 H          32.9221   19.7710   22.8730 H         1 9MU1258     0.0000 
     61 H          33.9915   18.4125   22.4845 H         1 9MU1258     0.0000 
     62 H          33.9417   17.6552   24.8012 H         1 9MU1258     0.0000 
     63 H          34.3767   19.3726   24.7641 H         1 9MU1258     0.0000 
     64 H          33.3681   21.6817   27.0276 H         1 9MU1258     0.0000 
     65 H          34.2614   20.5780   25.9277 H         1 9MU1258     0.0000 
     66 H          31.2652   21.1125   27.5513 H         1 9MU1258     0.0000 
     67 H          30.5260   19.6618   26.7933 H         1 9MU1258     0.0000 
@<TRIPOS>BOND
     1    2    1 1    
     2   12    1 1    
     3   36    1 1    
     4    3    2 1    
     5    5    2 1    
     6   37    2 1    
     7    4    3 2    
     8   25    3 am   
     9    6    5 1    
    10   38    5 1    
    11   39    5 1    
    12    7    6 ar   
    13    8    6 ar   
    14    9    7 ar   
    15   40    7 1    
    16   10    8 ar   
    17   41    8 1    
    18   11    9 ar   
    19   42    9 1    
    20   11   10 ar   
    21   43   10 1    
    22   44   11 1    
    23   13   12 2    
    24   14   12 2    
    25   16   12 1    
    26   16   15 ar   
    27   23   15 ar   
    28   45   15 1    
    29   17   16 ar   
    30   18   17 ar   
    31   46   17 1    
    32   24   18 ar   
    33   47   18 1    
    34   20   19 ar   
    35   24   19 ar   
    36   48   19 1    
    37   21   20 ar   
    38   49   20 1    
    39   22   21 ar   
    40   50   21 1    
    41   23   22 ar   
    42   51   22 1    
    43   24   23 ar   
    44   26   25 1    
    45   52   25 1    
    46   27   26 1    
    47   53   26 1    
    48   54   26 1    
    49   28   27 1    
    50   29   27 1    
    51   55   27 1    
    52   30   28 1    
    53   56   28 1    
    54   57   28 1    
    55   31   29 1    
    56   58   29 1    
    57   59   29 1    
    58   32   30 1    
    59   33   30 ar   
    60   32   31 1    
    61   60   31 1    
    62   61   31 1    
    63   62   32 1    
    64   63   32 1    
    65   34   33 ar   
    66   35   33 ar   
    67   64   34 1    
    68   65   34 1    
    69   66   35 1    
    70   67   35 1    
@<TRIPOS>SUBSTRUCTURE
     1 9MU1258     1 GROUP   
@<TRIPOS>SET

