#    Name: 4I10_1_CAVITY_N1_6.mol2
#    Modification time : Tue Mar 11 03:57:34 2014

@<TRIPOS>MOLECULE
4I10_1_CAVITY_N1_6.mol2
  158     0     6     0     0
SMALL
NO_CHARGES


@<TRIPOS>ATOM
      1 CZ         10.3013  -12.5579    5.5448 C.ar      4 PHE5        0.0000 
      2 CZ          9.1237  -12.7895    6.4446 C.ar      4 PHE5        0.0000 
      3 CA         11.4112  -13.7537    4.1890 C.3       5 GLY6        0.0000 
      4 DU         10.2336  -13.9853    5.0888 H         6 CUB7        0.0000 
      5 N           9.0560  -14.2169    5.9886 N.2       2 ALA2        0.0000 
      6 N           7.8784  -14.4485    6.8884 N.2       2 ALA2        0.0000 
      7 N           6.7008  -14.6801    7.7882 N.2       2 ALA2        0.0000 
      8 CA         12.5211  -14.9495    2.8332 C.3       5 GLY6        0.0000 
      9 CA         11.3435  -15.1811    3.7330 C.3       5 GLY6        0.0000 
     10 N          10.1659  -15.4127    4.6328 N.2       2 ALA2        0.0000 
     11 N           8.9883  -15.6443    5.5326 N.2       2 ALA2        0.0000 
     12 DU          7.8107  -15.8759    6.4324 H         6 CUB7        0.0000 
     13 CA          6.6331  -16.1075    7.3322 C.3       5 GLY6        0.0000 
     14 CA         12.4534  -16.3769    2.3772 C.3       5 GLY6        0.0000 
     15 N           8.9206  -17.0717    5.0766 N.2       2 ALA2        0.0000 
     16 N           7.7430  -17.3033    5.9764 N.2       2 ALA2        0.0000 
     17 DU          6.5654  -17.5349    6.8762 H         6 CUB7        0.0000 
     18 CA          5.3878  -17.7664    7.7760 C.3       5 GLY6        0.0000 
     19 CA          4.2102  -17.9980    8.6758 C.3       5 GLY6        0.0000 
     20 CZ         11.2280  -12.9565    6.6550 C.ar      4 PHE5        0.0000 
     21 CZ         10.0504  -13.1881    7.5548 C.ar      4 PHE5        0.0000 
     22 N           8.8728  -13.4197    8.4545 N.2       2 ALA2        0.0000 
     23 CZ         12.3378  -14.1524    5.2992 C.ar      4 PHE5        0.0000 
     24 CZ         11.1602  -14.3839    6.1990 C.ar      4 PHE5        0.0000 
     25 DU          9.9826  -14.6155    7.0987 H         6 CUB7        0.0000 
     26 DU          8.8050  -14.8471    7.9985 H         6 CUB7        0.0000 
     27 CZ          7.6274  -15.0787    8.8983 C.ar      4 PHE5        0.0000 
     28 CZ          6.4498  -15.3103    9.7981 C.ar      4 PHE5        0.0000 
     29 CZ         14.6253  -15.1166    3.0436 C.ar      4 PHE5        0.0000 
     30 CZ         13.4477  -15.3482    3.9434 C.ar      4 PHE5        0.0000 
     31 CZ         12.2701  -15.5798    4.8432 C.ar      4 PHE5        0.0000 
     32 N          11.0925  -15.8113    5.7429 N.2       2 ALA2        0.0000 
     33 DU          9.9149  -16.0429    6.6427 H         6 CUB7        0.0000 
     34 DU          7.5597  -16.5061    8.4423 H         6 CUB7        0.0000 
     35 CA          6.3821  -16.7377    9.3421 C.3       5 GLY6        0.0000 
     36 CA          5.2045  -16.9693   10.2419 C.3       5 GLY6        0.0000 
     37 OG         14.5576  -16.5440    2.5876 O.2       1 SER1        0.0000 
     38 OG         13.3800  -16.7756    3.4874 O.2       1 SER1        0.0000 
     39 N          12.2024  -17.0071    4.3871 N.2       2 ALA2        0.0000 
     40 N          11.0248  -17.2387    5.2869 N.2       2 ALA2        0.0000 
     41 N           9.8472  -17.4703    6.1867 N.2       2 ALA2        0.0000 
     42 DU          8.6696  -17.7019    7.0865 H         6 CUB7        0.0000 
     43 DU          7.4920  -17.9335    7.9863 H         6 CUB7        0.0000 
     44 N           6.3144  -18.1651    8.8861 N.2       2 ALA2        0.0000 
     45 N           5.1368  -18.3967    9.7859 N.2       2 ALA2        0.0000 
     46 OG         14.4899  -17.9714    2.1316 O.2       1 SER1        0.0000 
     47 O          13.3123  -18.2030    3.0313 O.2       2 ALA2        0.0000 
     48 N          12.1347  -18.4345    3.9311 N.2       2 ALA2        0.0000 
     49 N          10.9571  -18.6661    4.8309 N.2       2 ALA2        0.0000 
     50 N           9.7795  -18.8977    5.7307 N.2       2 ALA2        0.0000 
     51 DU          8.6019  -19.1293    6.6305 H         6 CUB7        0.0000 
     52 N           7.4243  -19.3609    7.5303 N.2       2 ALA2        0.0000 
     53 N           6.2467  -19.5925    8.4301 N.2       2 ALA2        0.0000 
     54 O          14.4222  -19.3988    1.6755 O.2       2 ALA2        0.0000 
     55 CZ          9.8671  -12.3909   10.0207 C.ar      4 PHE5        0.0000 
     56 CZ         12.1546  -13.3552    7.7651 C.ar      4 PHE5        0.0000 
     57 CZ         10.9770  -13.5867    8.6649 C.ar      4 PHE5        0.0000 
     58 CZ          9.7994  -13.8183    9.5647 C.ar      4 PHE5        0.0000 
     59 CZ         13.2645  -14.5510    6.4093 C.ar      4 PHE5        0.0000 
     60 CZ         12.0869  -14.7826    7.3091 C.ar      4 PHE5        0.0000 
     61 DU         10.9093  -15.0141    8.2089 H         6 CUB7        0.0000 
     62 DU          9.7317  -15.2457    9.1087 H         6 CUB7        0.0000 
     63 CZ          8.5541  -15.4773   10.0085 C.ar      4 PHE5        0.0000 
     64 CZ          7.3765  -15.7089   10.9083 C.ar      4 PHE5        0.0000 
     65 CZ         15.5520  -15.5152    4.1537 C.ar      4 PHE5        0.0000 
     66 CZ         14.3744  -15.7468    5.0535 C.ar      4 PHE5        0.0000 
     67 CZ         13.1968  -15.9784    5.9533 C.ar      4 PHE5        0.0000 
     68 DU         12.0192  -16.2100    6.8531 H         6 CUB7        0.0000 
     69 N          10.8416  -16.4415    7.7529 N.2       2 ALA2        0.0000 
     70 DU          9.6640  -16.6731    8.6527 H         6 CUB7        0.0000 
     71 DU          8.4864  -16.9047    9.5525 H         6 CUB7        0.0000 
     72 CA          7.3088  -17.1363   10.4523 C.3       5 GLY6        0.0000 
     73 OG         15.4842  -16.9426    3.6977 O.2       1 SER1        0.0000 
     74 DU         14.3066  -17.1742    4.5975 H         6 CUB7        0.0000 
     75 DU         13.1290  -17.4058    5.4973 H         6 CUB7        0.0000 
     76 DU         11.9514  -17.6374    6.3971 H         6 CUB7        0.0000 
     77 N          10.7738  -17.8689    7.2969 N.2       2 ALA2        0.0000 
     78 DU          9.5962  -18.1005    8.1967 H         6 CUB7        0.0000 
     79 N           8.4186  -18.3321    9.0965 N.2       2 ALA2        0.0000 
     80 N           7.2410  -18.5637    9.9963 N.2       2 ALA2        0.0000 
     81 O          16.5941  -18.1384    2.3419 O.2       2 ALA2        0.0000 
     82 O          15.4165  -18.3700    3.2417 O.2       2 ALA2        0.0000 
     83 O          14.2389  -18.6016    4.1415 O.2       2 ALA2        0.0000 
     84 O          13.0613  -18.8332    5.0413 O.2       2 ALA2        0.0000 
     85 DU         11.8837  -19.0648    5.9411 H         6 CUB7        0.0000 
     86 DU         10.7061  -19.2963    6.8409 H         6 CUB7        0.0000 
     87 OG          9.5285  -19.5279    7.7407 O.2       1 SER1        0.0000 
     88 N           8.3509  -19.7595    8.6405 N.2       2 ALA2        0.0000 
     89 O          16.5264  -19.5658    1.8859 O.2       2 ALA2        0.0000 
     90 O          12.9936  -20.2606    4.5853 O.2       2 ALA2        0.0000 
     91 O          11.8160  -20.4922    5.4851 O.2       2 ALA2        0.0000 
     92 OG          9.4608  -20.9553    7.2847 O.2       1 SER1        0.0000 
     93 CA         11.9714  -12.5580   10.2311 C.3       5 GLY6        0.0000 
     94 CZ         13.0813  -13.7538    8.8753 C.ar      4 PHE5        0.0000 
     95 CA         11.9037  -13.9854    9.7751 C.3       5 GLY6        0.0000 
     96 CA         10.7261  -14.2169   10.6748 C.3       5 GLY6        0.0000 
     97 CZ         16.5463  -14.4864    5.7199 C.ar      4 PHE5        0.0000 
     98 CZ         15.3687  -14.7180    6.6197 C.ar      4 PHE5        0.0000 
     99 CZ         14.1911  -14.9496    7.5195 C.ar      4 PHE5        0.0000 
    100 N          13.0135  -15.1812    8.4193 N.2       2 ALA2        0.0000 
    101 N          11.8359  -15.4128    9.3190 N.2       2 ALA2        0.0000 
    102 N          10.6583  -15.6443   10.2188 N.2       2 ALA2        0.0000 
    103 CA          9.4807  -15.8759   11.1186 C.3       5 GLY6        0.0000 
    104 CZ          8.3031  -16.1075   12.0184 C.ar      4 PHE5        0.0000 
    105 CZ         16.4786  -15.9138    5.2639 C.ar      4 PHE5        0.0000 
    106 CZ         15.3010  -16.1454    6.1637 C.ar      4 PHE5        0.0000 
    107 DU         14.1234  -16.3770    7.0635 H         6 CUB7        0.0000 
    108 N          12.9458  -16.6086    7.9632 N.2       2 ALA2        0.0000 
    109 N          10.5906  -17.0717    9.7628 N.2       2 ALA2        0.0000 
    110 N           9.4130  -17.3033   10.6626 N.2       2 ALA2        0.0000 
    111 CA          8.2354  -17.5349   11.5624 C.3       5 GLY6        0.0000 
    112 DU         16.4109  -17.3412    4.8079 H         6 CUB7        0.0000 
    113 DU         15.2333  -17.5728    5.7076 H         6 CUB7        0.0000 
    114 OG         14.0557  -17.8044    6.6074 O.2       1 SER1        0.0000 
    115 N          12.8781  -18.0360    7.5072 N.2       2 ALA2        0.0000 
    116 N          10.5229  -18.4991    9.3068 N.2       2 ALA2        0.0000 
    117 N           9.3453  -18.7307   10.2066 N.2       2 ALA2        0.0000 
    118 N           8.1677  -18.9623   11.1064 N.2       2 ALA2        0.0000 
    119 O          16.3432  -18.7686    4.3518 O.2       2 ALA2        0.0000 
    120 O          15.1656  -19.0002    5.2516 O.2       2 ALA2        0.0000 
    121 OG         13.9880  -19.2318    6.1514 O.2       1 SER1        0.0000 
    122 OG         12.8104  -19.4634    7.0512 O.2       1 SER1        0.0000 
    123 N          11.6328  -19.6950    7.9510 N.2       2 ALA2        0.0000 
    124 OG         10.4552  -19.9265    8.8508 O.2       1 SER1        0.0000 
    125 O          17.4530  -19.9644    2.9960 O.2       2 ALA2        0.0000 
    126 O          13.9202  -20.6592    5.6954 O.2       2 ALA2        0.0000 
    127 CA         12.7426  -20.8908    6.5952 C.3       5 GLY6        0.0000 
    128 CZ         17.6084  -12.0302    7.7420 C.ar      4 PHE5        0.0000 
    129 CZ         17.5407  -13.4576    7.2860 C.ar      4 PHE5        0.0000 
    130 CZ         16.3631  -13.6892    8.1858 C.ar      4 PHE5        0.0000 
    131 NZ         15.1855  -13.9208    9.0856 N.2       3 LYS4        0.0000 
    132 NZ         14.0079  -14.1524    9.9854 N.2       3 LYS4        0.0000 
    133 NZ         12.8303  -14.3840   10.8852 N.2       3 LYS4        0.0000 
    134 CZ         17.4730  -14.8850    6.8300 C.ar      4 PHE5        0.0000 
    135 CZ         16.2954  -15.1166    7.7298 C.ar      4 PHE5        0.0000 
    136 CZ         15.1178  -15.3482    8.6296 C.ar      4 PHE5        0.0000 
    137 N          13.9402  -15.5798    9.5294 N.2       2 ALA2        0.0000 
    138 N          11.5850  -16.0430   11.3290 N.2       2 ALA2        0.0000 
    139 DU         17.4053  -16.3124    6.3740 H         6 CUB7        0.0000 
    140 NZ         16.2277  -16.5440    7.2738 N.2       3 LYS4        0.0000 
    141 N          15.0501  -16.7756    8.1736 N.2       2 ALA2        0.0000 
    142 N          10.3397  -17.7020   11.7728 N.2       2 ALA2        0.0000 
    143 O           9.1621  -17.9335   12.6726 O.2       2 ALA2        0.0000 
    144 OG         16.1599  -17.9714    6.8178 O.2       1 SER1        0.0000 
    145 OG         14.9823  -18.2030    7.7176 O.2       1 SER1        0.0000 
    146 N          10.2719  -19.1294   11.3168 N.2       2 ALA2        0.0000 
    147 O           9.0943  -19.3609   12.2166 O.2       2 ALA2        0.0000 
    148 O          17.2698  -19.1672    5.4620 O.2       2 ALA2        0.0000 
    149 OG         16.0922  -19.3988    6.3618 O.2       1 SER1        0.0000 
    150 N           5.9574  -15.0786    4.2121 N.2       2 ALA2        0.0000 
    151 CA          9.2392  -15.0141    3.5227 C.3       5 GLY6        0.0000 
    152 N           8.0616  -15.2457    4.4224 N.2       2 ALA2        0.0000 
    153 N           6.8840  -15.4773    5.3222 N.2       2 ALA2        0.0000 
    154 CA          5.7064  -15.7088    6.2220 C.3       5 GLY6        0.0000 
    155 N          17.2898  -14.0879    9.2960 N.2       2 ALA2        0.0000 
    156 N          17.2220  -15.5153    8.8400 N.2       2 ALA2        0.0000 
    157 NZ         16.0444  -15.7468    9.7398 N.2       3 LYS4        0.0000 
    158 NZ         17.1543  -16.9427    8.3840 N.2       3 LYS4        0.0000 
@<TRIPOS>BOND
@<TRIPOS>SUBSTRUCTURE
     1 SER1       37 GROUP   
     2 ALA2        5 GROUP   
     3 LYS4      131 GROUP   
     4 PHE5        1 GROUP   
     5 GLY6        3 GROUP   
     6 CUB7        4 GROUP   
@<TRIPOS>SET

