#    Name: 4i10_1BS_1_INTS_M
#    Modification time : Tue Mar 25 02:10:39 2014

@<TRIPOS>MOLECULE
4i10_1BS_1_INTS_M
   54     0     9     0     0
SMALL
NO_CHARGES


@<TRIPOS>ATOM
      1 CA          9.6555  -11.3200    2.5305 C.3       3 GLC5        0.0000 
      2 CA          9.8280  -11.9200    4.1360 C.3       9 GLL5        0.0000 
      3 CA          9.4830  -10.7200    0.9250 C.3       6 GLP5        0.0000 
      4 CA          9.6475  -10.9910    5.9115 C.3       3 GLC5        0.0000 
      5 CA          9.4670  -10.0620    7.6870 C.3       6 GLP5        0.0000 
      6 CA          9.7530  -14.9370    2.9005 C.3       3 GLC5        0.0000 
      7 CA          9.4220  -14.5680    4.8960 C.3       9 GLL5        0.0000 
      8 CA         10.0840  -15.3060    0.9050 C.3       6 GLP5        0.0000 
      9 CA         13.4850  -13.2150    7.3000 C.3       3 GLC5        0.0000 
     10 CA         12.2670  -14.1140    8.2210 C.3       9 GLL5        0.0000 
     11 CA         14.7030  -12.3160    6.3790 C.3       6 GLP5        0.0000 
     12 CA         11.3130  -12.1055    8.4910 C.3       3 GLC5        0.0000 
     13 CA         10.3590  -10.0970    8.7610 C.3       6 GLP5        0.0000 
     14 O          12.2560  -17.2955    9.7130 O.2       1 ALC1        0.0000 
     15 O          11.5780  -16.3210    8.9200 O.2       7 ALL1        0.0000 
     16 O          12.9340  -18.2700   10.5060 O.2       4 ALP1        0.0000 
     17 CA         12.4465  -19.9450    9.1720 C.3       3 GLC5        0.0000 
     18 CA         10.9670  -19.0650    8.0430 C.3       9 GLL5        0.0000 
     19 CA         13.9260  -20.8250   10.3010 C.3       6 GLP5        0.0000 
     20 CA          9.8255  -21.6135    9.3670 C.3       3 GLC5        0.0000 
     21 CA          9.6080  -19.5730    8.6530 C.3       9 GLL5        0.0000 
     22 CA         10.0430  -23.6540   10.0810 C.3       6 GLP5        0.0000 
     23 CA         12.9475  -13.0225   11.3105 C.3       3 GLC5        0.0000 
     24 CA         12.6950  -14.9120   10.6240 C.3       9 GLL5        0.0000 
     25 CA         13.2000  -11.1330   11.9970 C.3       6 GLP5        0.0000 
     26 CA         13.3120  -16.3605   11.6465 C.3       3 GLC5        0.0000 
     27 CA         13.9290  -17.8090   12.6690 C.3       6 GLP5        0.0000 
     28 CA         10.3620  -12.2155    9.2940 C.3       3 GLC5        0.0000 
     29 CA         10.3650  -14.3340    9.8270 C.3       9 GLL5        0.0000 
     30 CA          8.6050  -13.8155   10.7515 C.3       3 GLC5        0.0000 
     31 CA          6.8450  -13.2970   11.6760 C.3       6 GLP5        0.0000 
     32 N          11.9235  -21.8670    8.8960 N.am      2 SEC2        0.0000 
     33 N          11.7140  -21.3070    7.5340 N.am      8 SEL2        0.0000 
     34 N          12.1330  -22.4270   10.2580 N.am      5 SEP2        0.0000 
     35 N          12.4570  -24.3430    8.2365 N.am      2 SEC2        0.0000 
     36 N          12.2530  -23.4860    7.0960 N.am      8 SEL2        0.0000 
     37 N          12.6610  -25.2000    9.3770 N.am      5 SEP2        0.0000 
     38 CA         11.9606  -12.4745    4.0900 C.3       3 GLC5        0.0000 
     39 CA         10.1030  -13.3540    5.1540 C.3       9 GLL5        0.0000 
     40 CA         13.4200  -12.0460    2.7480 C.3       6 GLP5        0.0000 
     41 CA         10.9214  -14.4116   11.6880 C.3       3 GLC5        0.0000 
     42 CA         10.5500  -14.1910   13.4550 C.3       6 GLP5        0.0000 
     43 CA          7.6250  -18.7390   12.1343 C.3       3 GLC5        0.0000 
     44 CA          9.3960  -17.7750   12.0660 C.3       9 GLL5        0.0000 
     45 CA          5.6790  -19.2750   12.7340 C.3       6 GLP5        0.0000 
     46 CA          9.1605  -16.4168   13.5817 C.3       3 GLC5        0.0000 
     47 CA          9.4480  -15.5160   15.2140 C.3       6 GLP5        0.0000 
     48 CA          8.7713  -18.3442   13.4614 C.3       3 GLC5        0.0000 
     49 CA          8.3500  -16.8600   11.8330 C.3       9 GLL5        0.0000 
     50 CA          8.5820  -19.1570   15.2390 C.3       6 GLP5        0.0000 
     51 CA          6.8652  -18.2789   11.5389 C.3       3 GLC5        0.0000 
     52 CA         13.9243  -23.0472    4.9832 C.3       3 GLC5        0.0000 
     53 CA         11.9050  -22.0510    5.2140 C.3       9 GLL5        0.0000 
     54 CA         15.7750  -23.5520    5.2350 C.3       6 GLP5        0.0000 
@<TRIPOS>BOND
@<TRIPOS>SUBSTRUCTURE
     1 ALC1       14 GROUP        1 X    ALC  0     ROOT ALC X 1
     2 SEC2       32 GROUP        1 X    SEC  0     **** SEC X 2
     3 GLC5        1 GROUP        1 X    GLC  0     **** GLC X 6
     4 ALP1       16 GROUP        1 Y    ALP  0     ROOT ALP Y 8
     5 SEP2       34 GROUP        1 Y    SEP  0     **** SEP Y 9
     6 GLP5        3 GROUP        1 Y    GLP  0     **** GLP Y 13
     7 ALL1       15 GROUP        1 Z    ALL  0     ROOT ALL Z 15
     8 SEL2       33 GROUP        1 Z    SEL  0     **** SEL Z 16
     9 GLL5        2 GROUP        1 Z    GLL  0     **** GLL Z 20
@<TRIPOS>SET

