#    Name: 4i10_1BS_1_ligand
#    Modification time : Tue Mar 25 02:10:39 2014

@<TRIPOS>MOLECULE
4i10_1BS_1_ligand
   58    62     1     0     0
SMALL
NO_CHARGES


@<TRIPOS>ATOM
      1 CL1         9.8280  -11.9200    4.1360 Cl        1 1BS504      0.0000 
      2 C1         10.1030  -13.3540    5.1540 C.ar      1 1BS504      0.0000 
      3 C2         11.0370  -13.1690    6.2190 C.ar      1 1BS504      0.0000 
      4 C3         11.2540  -14.2180    7.0790 C.ar      1 1BS504      0.0000 
      5 C4         10.6130  -15.4220    6.8500 C.ar      1 1BS504      0.0000 
      6 C5          9.6690  -15.5970    5.8120 C.ar      1 1BS504      0.0000 
      7 C6          9.4220  -14.5680    4.8960 C.ar      1 1BS504      0.0000 
      8 C9         12.2670  -14.1140    8.2210 C.3       1 1BS504      0.0000 
      9 C10        11.7460  -14.9490    9.4060 C.3       1 1BS504      0.0000 
     10 N11        11.5780  -16.3210    8.9200 N.pl3     1 1BS504      0.0000 
     11 C12        10.9890  -16.5600    7.7840 C.2       1 1BS504      0.0000 
     12 N13        10.7720  -17.8000    7.2990 N.pl3     1 1BS504      0.0000 
     13 C14        10.9670  -19.0650    8.0430 C.3       1 1BS504      0.0000 
     14 C15         9.6080  -19.5730    8.6530 C.3       1 1BS504      0.0000 
     15 C27        12.6950  -14.9120   10.6240 C.3       1 1BS504      0.0000 
     16 C28        10.3650  -14.3340    9.8270 C.3       1 1BS504      0.0000 
     17 C7         11.3870  -20.0710    7.0820 C.2       1 1BS504      0.0000 
     18 N8         11.3450  -19.7620    5.7320 N.pl3     1 1BS504      0.0000 
     19 C19        11.9630  -22.3430    6.6760 C.2       1 1BS504      0.0000 
     20 N24        11.7140  -21.3070    7.5340 N.2       1 1BS504      0.0000 
     21 O25        12.2530  -23.4860    7.0960 O.2       1 1BS504      0.0000 
     22 C26         9.1110  -18.6070    9.7370 C.ar      1 1BS504      0.0000 
     23 C29         9.7460  -18.6310   11.0030 C.ar      1 1BS504      0.0000 
     24 C30         9.3960  -17.7750   12.0660 C.ar      1 1BS504      0.0000 
     25 C31         8.3500  -16.8600   11.8330 C.ar      1 1BS504      0.0000 
     26 C32         7.7340  -16.8750   10.5760 C.ar      1 1BS504      0.0000 
     27 C33         8.0610  -17.6980    9.4830 C.ar      1 1BS504      0.0000 
     28 C8         11.9050  -22.0510    5.2140 C.ar      1 1BS504      0.0000 
     29 C16        11.6150  -20.7290    4.8050 C.ar      1 1BS504      0.0000 
     30 C17        11.6280  -20.4240    3.4110 C.ar      1 1BS504      0.0000 
     31 C18        11.9320  -21.4430    2.4730 C.ar      1 1BS504      0.0000 
     32 N20        12.2420  -22.7030    2.9040 N.ar      1 1BS504      0.0000 
     33 C21        12.2420  -23.0340    4.2490 C.ar      1 1BS504      0.0000 
     34 H          11.5121  -12.2810    6.3154 H         1 1BS504      0.0000 
     35 H           9.1645  -16.4874    5.7350 H         1 1BS504      0.0000 
     36 H           8.8162  -14.6736    4.1211 H         1 1BS504      0.0000 
     37 H          12.3634  -13.0865    8.5267 H         1 1BS504      0.0000 
     38 H          13.2159  -14.5079    7.8999 H         1 1BS504      0.0000 
     39 H          11.9580  -17.0622    9.5417 H         1 1BS504      0.0000 
     40 H          10.4308  -17.9343    6.3013 H         1 1BS504      0.0000 
     41 H          11.6631  -18.9600    8.8202 H         1 1BS504      0.0000 
     42 H           9.7731  -20.5525    9.0813 H         1 1BS504      0.0000 
     43 H           8.8802  -19.6361    7.8553 H         1 1BS504      0.0000 
     44 H          11.1096  -18.8019    5.4361 H         1 1BS504      0.0000 
     45 H          10.5163  -19.3229   11.1539 H         1 1BS504      0.0000 
     46 H           9.8691  -17.8150   12.9473 H         1 1BS504      0.0000 
     47 H           8.0573  -16.2159   12.5524 H         1 1BS504      0.0000 
     48 H           6.9243  -16.1848   10.4276 H         1 1BS504      0.0000 
     49 H           7.6006  -17.6467    8.6178 H         1 1BS504      0.0000 
     50 H          11.4202  -19.4815    3.0967 H         1 1BS504      0.0000 
     51 H          11.9132  -21.2111    1.4707 H         1 1BS504      0.0000 
     52 H          12.4816  -23.9782    4.5595 H         1 1BS504      0.0000 
     53 H          13.6005  -15.2726   10.4004 H         1 1BS504      0.0000 
     54 H          12.8262  -13.9809   10.9644 H         1 1BS504      0.0000 
     55 H          12.3429  -15.4557   11.3858 H         1 1BS504      0.0000 
     56 H          10.4540  -13.3781   10.1070 H         1 1BS504      0.0000 
     57 H           9.7032  -14.3596    9.0778 H         1 1BS504      0.0000 
     58 H           9.9573  -14.8277   10.5952 H         1 1BS504      0.0000 
@<TRIPOS>BOND
     1    2    1 1    
     2    3    2 ar   
     3    7    2 ar   
     4    4    3 ar   
     5   34    3 1    
     6    5    4 ar   
     7    8    4 1    
     8    6    5 ar   
     9   11    5 1    
    10    7    6 ar   
    11   35    6 1    
    12   36    7 1    
    13    9    8 1    
    14   37    8 1    
    15   38    8 1    
    16   10    9 1    
    17   15    9 1    
    18   16    9 1    
    19   11   10 1    
    20   39   10 1    
    21   12   11 2    
    22   13   12 1    
    23   40   12 1    
    24   14   13 1    
    25   17   13 1    
    26   41   13 1    
    27   22   14 1    
    28   42   14 1    
    29   43   14 1    
    30   53   15 1    
    31   54   15 1    
    32   55   15 1    
    33   56   16 1    
    34   57   16 1    
    35   58   16 1    
    36   18   17 1    
    37   20   17 2    
    38   29   18 1    
    39   44   18 1    
    40   20   19 1    
    41   21   19 2    
    42   28   19 1    
    43   23   22 ar   
    44   27   22 ar   
    45   24   23 ar   
    46   45   23 1    
    47   25   24 ar   
    48   46   24 1    
    49   26   25 ar   
    50   47   25 1    
    51   27   26 ar   
    52   48   26 1    
    53   49   27 1    
    54   29   28 ar   
    55   33   28 ar   
    56   30   29 ar   
    57   31   30 ar   
    58   50   30 1    
    59   32   31 ar   
    60   51   31 1    
    61   33   32 ar   
    62   52   33 1    
@<TRIPOS>SUBSTRUCTURE
     1 1BS504      1 GROUP   
@<TRIPOS>SET

