#    Name: 2iok_IOK_1_INTS_M
#    Modification time : Tue Mar 25 18:28:10 2014

@<TRIPOS>MOLECULE
2iok_IOK_1_INTS_M
   81     0     3     0     0
SMALL
NO_CHARGES


@<TRIPOS>ATOM
      1 CA         14.9750   38.0180   51.4850 C.3       1 GLC5        0.0000 
      2 CA         14.7030   36.0910   50.7260 C.3       3 GLL5        0.0000 
      3 CA         15.2470   39.9450   52.2440 C.3       2 GLP5        0.0000 
      4 CA         16.4030   37.5475   49.7845 C.3       1 GLC5        0.0000 
      5 CA         17.1660   35.7170   50.5440 C.3       3 GLL5        0.0000 
      6 CA         15.6400   39.3780   49.0250 C.3       2 GLP5        0.0000 
      7 CA         18.5940   34.1250   47.9490 C.3       1 GLC5        0.0000 
      8 CA         18.3040   35.7050   49.5170 C.3       3 GLL5        0.0000 
      9 CA         18.8840   32.5450   46.3810 C.3       2 GLP5        0.0000 
     10 CA         20.1775   33.8260   49.3010 C.3       1 GLC5        0.0000 
     11 CA         19.6700   35.7650   50.2260 C.3       3 GLL5        0.0000 
     12 CA         20.6850   31.8870   48.3760 C.3       2 GLP5        0.0000 
     13 CA         20.3625   38.3450   51.4425 C.3       1 GLC5        0.0000 
     14 CA         20.2190   37.1960   50.2740 C.3       3 GLL5        0.0000 
     15 CA         20.5060   39.4940   52.6110 C.3       2 GLP5        0.0000 
     16 CA         19.3995   31.6760   52.1135 C.3       1 GLC5        0.0000 
     17 CA         19.5540   33.4560   53.2550 C.3       3 GLL5        0.0000 
     18 CA         19.2450   29.8960   50.9720 C.3       2 GLP5        0.0000 
     19 CA         21.1480   32.2735   53.0530 C.3       1 GLC5        0.0000 
     20 CA         22.7420   31.0910   52.8510 C.3       2 GLP5        0.0000 
     21 CA         16.9070   37.2460   54.3720 C.3       1 GLC5        0.0000 
     22 CA         16.7130   35.1350   54.9380 C.3       3 GLL5        0.0000 
     23 CA         17.1010   39.3570   53.8060 C.3       2 GLP5        0.0000 
     24 CA         22.6335   34.0525   56.2640 C.3       1 GLC5        0.0000 
     25 CA         21.4750   35.2110   55.2730 C.3       3 GLL5        0.0000 
     26 CA         23.7920   32.8940   57.2550 C.3       2 GLP5        0.0000 
     27 CA         23.9285   34.6870   55.5675 C.3       1 GLC5        0.0000 
     28 CA         22.6520   35.6750   55.8940 C.3       3 GLL5        0.0000 
     29 CA         25.2050   33.6990   55.2410 C.3       2 GLP5        0.0000 
     30 CA         23.1825   34.6890   57.1385 C.3       1 GLC5        0.0000 
     31 CA         22.5730   36.4840   57.0220 C.3       3 GLL5        0.0000 
     32 CA         20.2795   38.2025   55.6040 C.3       1 GLC5        0.0000 
     33 CA         20.1570   36.4350   56.8730 C.3       3 GLL5        0.0000 
     34 CA         20.4020   39.9700   54.3350 C.3       2 GLP5        0.0000 
     35 CA         20.2735   35.5155   58.7950 C.3       1 GLC5        0.0000 
     36 CA         20.3900   34.5960   60.7170 C.3       2 GLP5        0.0000 
     37 CA         12.1855   37.8630   49.6270 C.3       1 GLC5        0.0000 
     38 CA         13.4320   36.2650   50.1780 C.3       3 GLL5        0.0000 
     39 CA         11.0250   39.4780   49.7670 C.3       2 GLP5        0.0000 
     40 CA         12.4464   35.1793   50.9015 C.3       1 GLC5        0.0000 
     41 CA         13.2600   36.2310   48.7960 C.3       3 GLL5        0.0000 
     42 CA         11.2290   34.1540   52.1790 C.3       2 GLP5        0.0000 
     43 CA         13.2384   34.2777   49.4190 C.3       1 GLC5        0.0000 
     44 CA         12.8130   32.3510   49.2140 C.3       2 GLP5        0.0000 
     45 CA         14.4200   34.1893   47.5802 C.3       1 GLC5        0.0000 
     46 CA         14.3680   36.0660   47.9580 C.3       3 GLL5        0.0000 
     47 CA         13.8350   32.4290   46.9250 C.3       2 GLP5        0.0000 
     48 CA         16.0605   37.0517   47.0752 C.3       1 GLC5        0.0000 
     49 CA         17.1160   38.1540   45.9150 C.3       2 GLP5        0.0000 
     50 CA         21.6653   35.6942   49.8845 C.3       1 GLC5        0.0000 
     51 CA         23.3860   34.9080   49.5190 C.3       2 GLP5        0.0000 
     52 CA         20.2840   36.7422   48.4974 C.3       1 GLC5        0.0000 
     53 CA         20.9650   37.0190   46.9220 C.3       2 GLP5        0.0000 
     54 CA         18.5876   32.9574   55.2862 C.3       1 GLC5        0.0000 
     55 CA         18.1720   31.4070   56.1420 C.3       2 GLP5        0.0000 
     56 CA         16.6812   33.6287   56.1328 C.3       1 GLC5        0.0000 
     57 CA         17.3380   32.0280   57.2550 C.3       2 GLP5        0.0000 
     58 CA         14.8117   37.0365   54.5915 C.3       1 GLC5        0.0000 
     59 CA         15.3360   35.3240   55.0830 C.3       3 GLL5        0.0000 
     60 CA         14.7150   39.0810   54.5430 C.3       2 GLP5        0.0000 
     61 CA         13.2812   35.8335   55.5655 C.3       1 GLC5        0.0000 
     62 CA         11.6540   36.6750   56.4910 C.3       2 GLP5        0.0000 
     63 CA         12.9887   34.2017   52.9338 C.3       1 GLC5        0.0000 
     64 CA         14.4810   34.6600   54.1970 C.3       3 GLL5        0.0000 
     65 CA         16.4600   32.4740   51.7060 C.3       1 GLC5        0.0000 
     66 CA         15.0160   33.8390   53.1800 C.3       3 GLL5        0.0000 
     67 CA         17.2210   31.2180   50.2860 C.3       2 GLP5        0.0000 
     68 CA         16.8972   32.4525   54.2762 C.3       1 GLC5        0.0000 
     69 CA         16.3820   33.6210   53.0720 C.3       3 GLL5        0.0000 
     70 CA         17.3250   30.8820   55.0090 C.3       2 GLP5        0.0000 
     71 CA         23.1063   34.8250   53.7743 C.3       1 GLC5        0.0000 
     72 CA         24.1490   34.2070   51.9650 C.3       2 GLP5        0.0000 
     73 CA         21.8893   36.1505   59.1430 C.3       1 GLC5        0.0000 
     74 CA         21.3200   36.8740   57.5120 C.3       3 GLL5        0.0000 
     75 CA         21.8320   35.6220   61.0190 C.3       2 GLP5        0.0000 
     76 CA         19.8397   37.4072   58.2892 C.3       1 GLC5        0.0000 
     77 CA         18.9410   38.1600   59.3860 C.3       2 GLP5        0.0000 
     78 CA         22.0631   38.1999   55.8740 C.3       1 GLC5        0.0000 
     79 CA         22.1600   39.9230   54.7630 C.3       2 GLP5        0.0000 
     80 CA         21.2584   38.3355   57.5355 C.3       1 GLC5        0.0000 
     81 CA         21.4650   40.1140   58.0010 C.3       2 GLP5        0.0000 
@<TRIPOS>BOND
@<TRIPOS>SUBSTRUCTURE
     1 GLC5        1 GROUP        1 X    GLC  0     ROOT GLC X 6
     2 GLP5        3 GROUP        1 Y    GLP  0     ROOT GLP Y 13
     3 GLL5        2 GROUP        1 Z    GLL  0     ROOT GLL Z 20
@<TRIPOS>SET

