#    Name: 2iok_IOK_1_ligand
#    Modification time : Tue Mar 25 18:28:10 2014

@<TRIPOS>MOLECULE
2iok_IOK_1_ligand
   56    59     1     0     0
SMALL
NO_CHARGES


@<TRIPOS>ATOM
      1 C1         15.8130   35.8830   49.8880 C.ar      1 IOK600      0.0000 
      2 C2         14.7030   36.0910   50.7260 C.ar      1 IOK600      0.0000 
      3 C3         13.4320   36.2650   50.1780 C.ar      1 IOK600      0.0000 
      4 C4         13.2600   36.2310   48.7960 C.ar      1 IOK600      0.0000 
      5 O5         12.0210   36.3920   48.2900 O.3       1 IOK600      0.0000 
      6 C6         14.3680   36.0660   47.9580 C.ar      1 IOK600      0.0000 
      7 C7         15.6420   35.8330   48.5130 C.ar      1 IOK600      0.0000 
      8 C8         17.1660   35.7170   50.5440 C.3       1 IOK600      0.0000 
      9 C9         18.3040   35.7050   49.5170 C.3       1 IOK600      0.0000 
     10 C10        19.6700   35.7650   50.2260 C.3       1 IOK600      0.0000 
     11 C11        20.2190   37.1960   50.2740 C.3       1 IOK600      0.0000 
     12 N12        19.5080   35.2640   51.6000 N.am      1 IOK600      0.0000 
     13 C13        19.7070   33.9740   51.8590 C.2       1 IOK600      0.0000 
     14 O14        20.0400   33.1950   50.9300 O.2       1 IOK600      0.0000 
     15 C15        19.5540   33.4560   53.2550 C.3       1 IOK600      0.0000 
     16 C16        18.6170   34.2690   54.1110 C.2       1 IOK600      0.0000 
     17 C17        18.9210   35.1530   55.1780 C.2       1 IOK600      0.0000 
     18 N18        17.7520   35.6460   55.6650 N.pl3     1 IOK600      0.0000 
     19 C19        16.7130   35.1350   54.9380 C.ar      1 IOK600      0.0000 
     20 C20        15.3360   35.3240   55.0830 C.ar      1 IOK600      0.0000 
     21 C21        14.4810   34.6600   54.1970 C.ar      1 IOK600      0.0000 
     22 C22        15.0160   33.8390   53.1800 C.ar      1 IOK600      0.0000 
     23 C23        16.3820   33.6210   53.0720 C.ar      1 IOK600      0.0000 
     24 C24        17.2400   34.3160   53.9610 C.ar      1 IOK600      0.0000 
     25 C25        20.2230   35.5800   55.7620 C.ar      1 IOK600      0.0000 
     26 C26        21.4750   35.2110   55.2730 C.ar      1 IOK600      0.0000 
     27 C27        22.6520   35.6750   55.8940 C.ar      1 IOK600      0.0000 
     28 C28        22.5730   36.4840   57.0220 C.ar      1 IOK600      0.0000 
     29 C29        21.3200   36.8740   57.5120 C.ar      1 IOK600      0.0000 
     30 C30        20.1570   36.4350   56.8730 C.ar      1 IOK600      0.0000 
     31 H          14.8337   36.1140   51.7440 H         1 IOK600      0.0000 
     32 H          12.6245   36.4179   50.7934 H         1 IOK600      0.0000 
     33 H          14.2579   36.1137   46.9414 H         1 IOK600      0.0000 
     34 H          16.4322   35.6283   47.8945 H         1 IOK600      0.0000 
     35 H          17.1885   34.7777   51.1060 H         1 IOK600      0.0000 
     36 H          17.3355   36.5379   51.2483 H         1 IOK600      0.0000 
     37 H          18.2064   36.5644   48.8615 H         1 IOK600      0.0000 
     38 H          18.2490   34.7943   48.9293 H         1 IOK600      0.0000 
     39 H          20.3617   35.1449   49.6876 H         1 IOK600      0.0000 
     40 H          19.2423   35.9546   52.3087 H         1 IOK600      0.0000 
     41 H          20.5478   33.4216   53.7439 H         1 IOK600      0.0000 
     42 H          19.1909   32.4097   53.2197 H         1 IOK600      0.0000 
     43 H          17.6643   36.2588   56.4052 H         1 IOK600      0.0000 
     44 H          14.9664   35.9253   55.8097 H         1 IOK600      0.0000 
     45 H          13.4664   34.7654   54.2809 H         1 IOK600      0.0000 
     46 H          14.3671   33.3957   52.5068 H         1 IOK600      0.0000 
     47 H          16.7676   32.9884   52.3847 H         1 IOK600      0.0000 
     48 H          21.5478   34.5951   54.4524 H         1 IOK600      0.0000 
     49 H          23.5645   35.4107   55.5066 H         1 IOK600      0.0000 
     50 H          23.4260   36.7965   57.4968 H         1 IOK600      0.0000 
     51 H          21.2577   37.4789   58.3359 H         1 IOK600      0.0000 
     52 H          19.2359   36.7424   57.2211 H         1 IOK600      0.0000 
     53 H          21.1040   37.2389   50.7377 H         1 IOK600      0.0000 
     54 H          20.3495   37.5746   49.3577 H         1 IOK600      0.0000 
     55 H          19.6024   37.8142   50.7615 H         1 IOK600      0.0000 
     56 H          12.1499   36.9285   47.4560 H         1 IOK600      0.0000 
@<TRIPOS>BOND
     1    2    1 ar   
     2    7    1 ar   
     3    8    1 1    
     4    3    2 ar   
     5   31    2 1    
     6    4    3 ar   
     7   32    3 1    
     8    5    4 1    
     9    6    4 ar   
    10   56    5 1    
    11    7    6 ar   
    12   33    6 1    
    13   34    7 1    
    14    9    8 1    
    15   35    8 1    
    16   36    8 1    
    17   10    9 1    
    18   37    9 1    
    19   38    9 1    
    20   11   10 1    
    21   12   10 1    
    22   39   10 1    
    23   53   11 1    
    24   54   11 1    
    25   55   11 1    
    26   13   12 am   
    27   40   12 1    
    28   14   13 2    
    29   15   13 1    
    30   16   15 1    
    31   41   15 1    
    32   42   15 1    
    33   17   16 2    
    34   24   16 1    
    35   18   17 1    
    36   25   17 1    
    37   19   18 1    
    38   43   18 1    
    39   20   19 ar   
    40   24   19 ar   
    41   21   20 ar   
    42   44   20 1    
    43   22   21 ar   
    44   45   21 1    
    45   23   22 ar   
    46   46   22 1    
    47   24   23 ar   
    48   47   23 1    
    49   26   25 ar   
    50   30   25 ar   
    51   27   26 ar   
    52   48   26 1    
    53   28   27 ar   
    54   49   27 1    
    55   29   28 ar   
    56   50   28 1    
    57   30   29 ar   
    58   51   29 1    
    59   52   30 1    
@<TRIPOS>SUBSTRUCTURE
     1 IOK600      1 GROUP   
@<TRIPOS>SET

