#    Name: 1prc_UQ1_1_INTS_M
#    Modification time : Mon Mar 24 22:11:40 2014

@<TRIPOS>MOLECULE
1prc_UQ1_1_INTS_M
   55     0     6     0     0
SMALL
NO_CHARGES


@<TRIPOS>ATOM
      1 N         133.0515   71.6500   -6.0175 N.am      1 SEC2        0.0000 
      2 N         132.1580   72.0250   -5.0780 N.am      5 SEL2        0.0000 
      3 N         133.9450   71.2750   -6.9570 N.am      3 SEP2        0.0000 
      4 N         131.5675   72.5910   -6.1540 N.am      1 SEC2        0.0000 
      5 N         130.9770   73.1570   -7.2300 N.am      3 SEP2        0.0000 
      6 CA        131.6580   75.3215   -3.9895 C.3       2 GLC5        0.0000 
      7 CA        132.2720   73.4400   -3.2070 C.3       6 GLL5        0.0000 
      8 CA        131.0440   77.2030   -4.7720 C.3       4 GLP5        0.0000 
      9 CA        135.4500   74.6435   -4.3990 C.3       2 GLC5        0.0000 
     10 CA        133.3950   74.5060   -5.0620 C.3       6 GLL5        0.0000 
     11 CA        137.5050   74.7810   -3.7360 C.3       4 GLP5        0.0000 
     12 CA        132.2615   74.5530   -6.2325 C.3       2 GLC5        0.0000 
     13 CA        131.1280   74.6000   -7.4030 C.3       4 GLP5        0.0000 
     14 CA        132.2195   75.8545   -4.9170 C.3       2 GLC5        0.0000 
     15 CA        133.4970   76.7860   -0.1820 C.3       2 GLC5        0.0000 
     16 CA        132.6380   75.9950   -1.7630 C.3       6 GLL5        0.0000 
     17 CA        134.3560   77.5770    1.3990 C.3       4 GLP5        0.0000 
     18 CA        131.8410   76.5990   -3.2675 C.3       2 GLC5        0.0000 
     19 CA        130.6950   75.4535   -1.8455 C.3       2 GLC5        0.0000 
     20 CA        128.7520   74.9120   -1.9280 C.3       4 GLP5        0.0000 
     21 N         131.5680   73.4480    0.8195 N.am      1 SEC2        0.0000 
     22 N         132.1700   72.4350    0.1610 N.am      5 SEL2        0.0000 
     23 N         130.9660   74.4610    1.4780 N.am      3 SEP2        0.0000 
     24 CA        131.9445   68.8355    0.7865 C.3       2 GLC5        0.0000 
     25 CA        131.9750   69.7560   -0.8900 C.3       6 GLL5        0.0000 
     26 CA        131.9140   67.9150    2.4630 C.3       4 GLP5        0.0000 
     27 CA        131.6605   70.9415    0.9540 C.3       2 GLC5        0.0000 
     28 CA        131.3460   72.1270    2.7980 C.3       4 GLP5        0.0000 
     29 CA        133.4180   69.4560   -1.1170 C.3       2 GLC5        0.0000 
     30 CA        134.8610   69.1560   -1.3440 C.3       4 GLP5        0.0000 
     31 CA        133.5430   69.3075   -3.2310 C.3       2 GLC5        0.0000 
     32 CA        131.9840   69.5900   -3.7540 C.3       6 GLL5        0.0000 
     33 CA        135.1020   69.0250   -2.7080 C.3       4 GLP5        0.0000 
     34 CA        132.5290   69.4350   -5.8615 C.3       2 GLC5        0.0000 
     35 CA        133.0740   69.2800   -7.9690 C.3       4 GLP5        0.0000 
     36 CA        129.3980   70.0090   -2.6770 C.3       2 GLC5        0.0000 
     37 CA        130.6360   68.9020   -3.4890 C.3       6 GLL5        0.0000 
     38 CA        128.1600   71.1160   -1.8650 C.3       4 GLP5        0.0000 
     39 CA        133.4175   67.4345   -4.9890 C.3       2 GLC5        0.0000 
     40 CA        131.3090   67.2090   -5.1710 C.3       6 GLL5        0.0000 
     41 CA        135.5260   67.6600   -4.8070 C.3       4 GLP5        0.0000 
     42 CA        132.6840   65.5750   -5.2910 C.3       2 GLC5        0.0000 
     43 CA        134.0590   63.9410   -5.4110 C.3       4 GLP5        0.0000 
     44 CA        132.1915   68.2445   -6.5700 C.3       2 GLC5        0.0000 
     45 CA        134.0285   72.9592   -1.7933 C.3       2 GLC5        0.0000 
     46 CA        135.7880   72.4140   -1.0490 C.3       4 GLP5        0.0000 
     47 CA        130.5105   74.2082   -2.2328 C.3       2 GLC5        0.0000 
     48 CA        132.2660   73.5690   -1.8680 C.3       6 GLL5        0.0000 
     49 CA        133.9288   71.6845   -1.7158 C.3       2 GLC5        0.0000 
     50 CA        132.0730   71.0000   -1.7150 C.3       6 GLL5        0.0000 
     51 CA        130.3070   70.7560   -4.4365 C.3       2 GLC5        0.0000 
     52 CA        132.0660   70.9100   -3.0500 C.3       6 GLL5        0.0000 
     53 CA        128.5890   71.2620   -5.4710 C.3       4 GLP5        0.0000 
     54 CA        130.1025   70.8800   -2.0206 C.3       2 GLC5        0.0000 
     55 CA        129.1631   69.4830   -4.6688 C.3       2 GLC5        0.0000 
@<TRIPOS>BOND
@<TRIPOS>SUBSTRUCTURE
     1 SEC2        1 GROUP        1 X    SEC  0     ROOT SEC X 2
     2 GLC5        6 GROUP        1 X    GLC  0     **** GLC X 6
     3 SEP2        3 GROUP        1 Y    SEP  0     ROOT SEP Y 9
     4 GLP5        8 GROUP        1 Y    GLP  0     **** GLP Y 13
     5 SEL2        2 GROUP        1 Z    SEL  0     ROOT SEL Z 16
     6 GLL5        7 GROUP        1 Z    GLL  0     **** GLL Z 20
@<TRIPOS>SET

