#    Name: 1prc_UQ1_1_ligand
#    Modification time : Mon Mar 24 22:11:40 2014

@<TRIPOS>MOLECULE
1prc_UQ1_1_ligand
   36    36     1     0     0
SMALL
NO_CHARGES


@<TRIPOS>ATOM
      1 C1        132.1700   72.1220   -3.8560 C.2       1 UQ1614      0.0000 
      2 O1        132.1580   72.0250   -5.0780 O.2       1 UQ1614      0.0000 
      3 C2        132.2720   73.4400   -3.2070 C.2       1 UQ1614      0.0000 
      4 O2        132.3590   74.4740   -4.0470 O.3       1 UQ1614      0.0000 
      5 CM2       133.3950   74.5060   -5.0620 C.3       1 UQ1614      0.0000 
      6 C3        132.2660   73.5690   -1.8680 C.2       1 UQ1614      0.0000 
      7 O3        132.3340   74.7110   -1.1580 O.3       1 UQ1614      0.0000 
      8 CM3       132.6380   75.9950   -1.7630 C.3       1 UQ1614      0.0000 
      9 C4        132.1650   72.3350   -1.0640 C.2       1 UQ1614      0.0000 
     10 O4        132.1700   72.4350    0.1610 O.2       1 UQ1614      0.0000 
     11 C5        132.0730   71.0000   -1.7150 C.2       1 UQ1614      0.0000 
     12 CM5       131.9750   69.7560   -0.8900 C.3       1 UQ1614      0.0000 
     13 C6        132.0660   70.9100   -3.0500 C.2       1 UQ1614      0.0000 
     14 C7        131.9840   69.5900   -3.7540 C.3       1 UQ1614      0.0000 
     15 C8        130.6360   68.9020   -3.4890 C.2       1 UQ1614      0.0000 
     16 C9        130.3290   67.7800   -4.1570 C.2       1 UQ1614      0.0000 
     17 C10       131.3090   67.2090   -5.1710 C.3       1 UQ1614      0.0000 
     18 C11       128.9920   67.0670   -3.9100 C.3       1 UQ1614      0.0000 
     19 H         132.7843   68.9308   -3.4092 H         1 UQ1614      0.0000 
     20 H         132.0956   69.7322   -4.8317 H         1 UQ1614      0.0000 
     21 H         130.0488   69.3575   -2.8037 H         1 UQ1614      0.0000 
     22 H         134.3100   74.4755   -4.6598 H         1 UQ1614      0.0000 
     23 H         133.3245   73.7304   -5.6892 H         1 UQ1614      0.0000 
     24 H         133.3461   75.3367   -5.6165 H         1 UQ1614      0.0000 
     25 H         133.5336   75.9932   -2.2079 H         1 UQ1614      0.0000 
     26 H         131.9654   76.2461   -2.4591 H         1 UQ1614      0.0000 
     27 H         132.6483   76.7312   -1.0864 H         1 UQ1614      0.0000 
     28 H         132.7685   69.6436   -0.2919 H         1 UQ1614      0.0000 
     29 H         131.1647   69.7619   -0.3040 H         1 UQ1614      0.0000 
     30 H         131.9188   68.9360   -1.4597 H         1 UQ1614      0.0000 
     31 H         132.1849   66.9741   -4.7495 H         1 UQ1614      0.0000 
     32 H         130.9573   66.3767   -5.5994 H         1 UQ1614      0.0000 
     33 H         131.5025   67.8581   -5.9067 H         1 UQ1614      0.0000 
     34 H         128.8993   66.2460   -4.4734 H         1 UQ1614      0.0000 
     35 H         128.8942   66.7809   -2.9568 H         1 UQ1614      0.0000 
     36 H         128.2122   67.6566   -4.1205 H         1 UQ1614      0.0000 
@<TRIPOS>BOND
     1    2    1 2    
     2    3    1 1    
     3   13    1 1    
     4    4    3 1    
     5    6    3 2    
     6    5    4 1    
     7   22    5 1    
     8   23    5 1    
     9   24    5 1    
    10    7    6 1    
    11    9    6 1    
    12    8    7 1    
    13   25    8 1    
    14   26    8 1    
    15   27    8 1    
    16   10    9 2    
    17   11    9 1    
    18   12   11 1    
    19   13   11 2    
    20   28   12 1    
    21   29   12 1    
    22   30   12 1    
    23   14   13 1    
    24   15   14 1    
    25   19   14 1    
    26   20   14 1    
    27   16   15 2    
    28   21   15 1    
    29   17   16 1    
    30   18   16 1    
    31   31   17 1    
    32   32   17 1    
    33   33   17 1    
    34   34   18 1    
    35   35   18 1    
    36   36   18 1    
@<TRIPOS>SUBSTRUCTURE
     1 UQ1614      1 GROUP   
@<TRIPOS>SET

