#    Name: 3r7w_GNP_2_INTS_M
#    Modification time : Tue Mar 25 11:13:57 2014

@<TRIPOS>MOLECULE
3r7w_GNP_2_INTS_M
   46     0    12     0     0
SMALL
NO_CHARGES


@<TRIPOS>ATOM
      1 Zn          4.4955   78.9105   75.4760 Zn        3 ZIC7        0.0000 
      2 Zn          4.4530   77.8710   76.1490 Zn       11 ZIL7        0.0000 
      3 Zn          4.5380   79.9500   74.8030 Zn        7 ZIP7        0.0000 
      4 N           1.7555   77.9195   78.6255 N.am      2 SEC2        0.0000 
      5 N           3.0140   77.5350   78.2460 N.am     10 SEL2        0.0000 
      6 N           0.4970   78.3040   79.0050 N.am      6 SEP2        0.0000 
      7 N           9.1270   78.6100   77.0230 N.am      2 SEC2        0.0000 
      8 N           7.6670   78.1130   77.7910 N.am     10 SEL2        0.0000 
      9 N          10.5870   79.1070   76.2550 N.am      6 SEP2        0.0000 
     10 Zn          5.3235   79.8440   75.7010 Zn        3 ZIC7        0.0000 
     11 Zn          6.1090   79.7380   76.5990 Zn       11 ZIL7        0.0000 
     12 N           7.4515   80.1320   75.5490 N.am      2 SEC2        0.0000 
     13 N           6.1090   79.7380   76.5990 N.am     10 SEL2        0.0000 
     14 N           8.7940   80.5260   74.4990 N.am      6 SEP2        0.0000 
     15 N           8.5510   81.1550   75.9660 N.am      2 SEC2        0.0000 
     16 N           8.3080   81.7840   77.4330 N.am     10 SEL2        0.0000 
     17 N           8.6265   82.5230   76.2270 N.am      2 SEC2        0.0000 
     18 N           8.9450   83.2620   75.0210 N.am      6 SEP2        0.0000 
     19 N           8.5520   83.2995   77.5255 N.am      2 SEC2        0.0000 
     20 N           8.7960   84.8150   77.6180 N.am      6 SEP2        0.0000 
     21 N           8.3295   83.6330   78.6725 N.am      2 SEC2        0.0000 
     22 N           7.8630   82.4510   79.7270 N.am     10 SEL2        0.0000 
     23 N          13.7765   83.2485   79.3460 N.am      2 SEC2        0.0000 
     24 N          12.8220   84.1060   79.6660 N.am     10 SEL2        0.0000 
     25 N          14.7310   82.3910   79.0260 N.am      6 SEP2        0.0000 
     26 CA         14.2820   82.9155   80.2485 C.3       4 GLC5        0.0000 
     27 CA         13.4340   84.5840   80.8260 C.3      12 GLL5        0.0000 
     28 CA         15.1300   81.2470   79.6710 C.3       8 GLP5        0.0000 
     29 CA         14.0215   85.8970   79.6505 C.3       4 GLC5        0.0000 
     30 CA         14.6090   87.2100   78.4750 C.3       8 GLP5        0.0000 
     31 O          16.3005   85.7075   82.5565 O.2       1 ALC1        0.0000 
     32 O          14.9610   85.3880   82.3950 O.2       9 ALL1        0.0000 
     33 O          17.6400   86.0270   82.7180 O.2       5 ALP1        0.0000 
     34 O          15.8005   86.6295   82.8920 O.2       1 ALC1        0.0000 
     35 O          16.6400   87.8710   83.3890 O.2       5 ALP1        0.0000 
     36 O          15.4965   86.8830   83.9720 O.2       1 ALC1        0.0000 
     37 O          14.3530   85.8950   84.5550 O.2       9 ALL1        0.0000 
     38 CA          7.4768   80.5913   81.7135 C.3       4 GLC5        0.0000 
     39 CA          8.1260   82.9660   82.0870 C.3      12 GLL5        0.0000 
     40 CA          7.1910   78.6270   81.8660 C.3       8 GLP5        0.0000 
     41 CA          7.9365   86.7675   81.9913 C.3       4 GLC5        0.0000 
     42 CA          7.7650   84.4580   82.1460 C.3      12 GLL5        0.0000 
     43 CA          7.4850   88.7270   82.1130 C.3       8 GLP5        0.0000 
     44 CA         13.9748   83.5452   82.6277 C.3       4 GLC5        0.0000 
     45 CA         12.5270   84.6870   81.8510 C.3      12 GLL5        0.0000 
     46 CA         14.9690   82.4550   83.9170 C.3       8 GLP5        0.0000 
@<TRIPOS>BOND
@<TRIPOS>SUBSTRUCTURE
     1 ALC1       31 GROUP        1 X    ALC  0     ROOT ALC X 1
     2 SEC2        4 GROUP        1 X    SEC  0     **** SEC X 2
     3 ZIC7        1 GROUP        1 X    ZIC  0     **** ZIC X 5
     4 GLC5       26 GROUP        1 X    GLC  0     **** GLC X 6
     5 ALP1       33 GROUP        1 Y    ALP  0     ROOT ALP Y 8
     6 SEP2        6 GROUP        1 Y    SEP  0     **** SEP Y 9
     7 ZIP7        3 GROUP        1 Y    ZIP  0     **** ZIP Y 12
     8 GLP5       28 GROUP        1 Y    GLP  0     **** GLP Y 13
     9 ALL1       32 GROUP        1 Z    ALL  0     ROOT ALL Z 15
    10 SEL2        5 GROUP        1 Z    SEL  0     **** SEL Z 16
    11 ZIL7        2 GROUP        1 Z    ZIL  0     **** ZIL Z 19
    12 GLL5       27 GROUP        1 Z    GLL  0     **** GLL Z 20
@<TRIPOS>SET

