#    Name: 3r7w_GNP_2_ligand
#    Modification time : Tue Mar 25 11:13:58 2014

@<TRIPOS>MOLECULE
3r7w_GNP_2_ligand
   44    46     1     0     0
SMALL
NO_CHARGES


@<TRIPOS>ATOM
      1 PG          4.3740   77.4320   77.5980 P.3       1 GNP500      0.0000 
      2 O1G         4.4530   77.8710   76.1490 O.co2     1 GNP500      0.0000 
      3 O2G         3.0140   77.5350   78.2460 O.co2     1 GNP500      0.0000 
      4 O3G         5.0010   76.0500   77.6210 O.co2     1 GNP500      0.0000 
      5 N3B         5.2900   78.3970   78.4710 N.4       1 GNP500      0.0000 
      6 PB          6.5730   79.1120   77.8620 P.3       1 GNP500      0.0000 
      7 O1B         7.6670   78.1130   77.7910 O.co2     1 GNP500      0.0000 
      8 O2B         6.1090   79.7380   76.5990 O.co2     1 GNP500      0.0000 
      9 O3A         7.0430   80.2220   78.8250 O.3       1 GNP500      0.0000 
     10 PA          7.2540   81.7060   78.4670 P.3       1 GNP500      0.0000 
     11 O1A         8.3080   81.7840   77.4330 O.co2     1 GNP500      0.0000 
     12 O2A         5.9620   82.3740   78.1720 O.co2     1 GNP500      0.0000 
     13 O5'         7.8630   82.4510   79.7270 O.3       1 GNP500      0.0000 
     14 C5'         7.3990   82.1450   81.0350 C.3       1 GNP500      0.0000 
     15 C4'         8.1260   82.9660   82.0870 C.3       1 GNP500      0.0000 
     16 O4'         9.5510   82.8960   81.8330 O.3       1 GNP500      0.0000 
     17 C3'         7.7650   84.4580   82.1460 C.3       1 GNP500      0.0000 
     18 O3'         7.4520   84.8560   83.4970 O.3       1 GNP500      0.0000 
     19 C2'         9.0110   85.1580   81.5930 C.3       1 GNP500      0.0000 
     20 O2'         9.2640   86.4240   82.1710 O.3       1 GNP500      0.0000 
     21 C1'        10.0850   84.1850   82.0460 C.3       1 GNP500      0.0000 
     22 N9         11.3370   84.2680   81.3180 N.pl3     1 GNP500      0.0000 
     23 C8         11.5780   83.9280   80.0080 C.2       1 GNP500      0.0000 
     24 N7         12.8220   84.1060   79.6660 N.2       1 GNP500      0.0000 
     25 C5         13.4340   84.5840   80.8260 C.2       1 GNP500      0.0000 
     26 C6         14.7770   84.9560   81.0820 C.2       1 GNP500      0.0000 
     27 O6         15.7410   84.9380   80.3080 O.2       1 GNP500      0.0000 
     28 N1         14.9610   85.3880   82.3950 N.am      1 GNP500      0.0000 
     29 C2         13.9760   85.4540   83.3470 C.2       1 GNP500      0.0000 
     30 N2         14.3530   85.8950   84.5550 N.pl3     1 GNP500      0.0000 
     31 N3         12.7170   85.1070   83.1250 N.2       1 GNP500      0.0000 
     32 C4         12.5270   84.6870   81.8510 C.2       1 GNP500      0.0000 
     33 H           7.5479   81.0783   81.2803 H         1 GNP500      0.0000 
     34 H           6.3180   82.3463   81.1407 H         1 GNP500      0.0000 
     35 H           7.9282   82.5363   83.0699 H         1 GNP500      0.0000 
     36 H           6.9616   84.6208   81.4625 H         1 GNP500      0.0000 
     37 H           8.9746   85.1340   80.5458 H         1 GNP500      0.0000 
     38 H          10.2480   84.3367   83.1062 H         1 GNP500      0.0000 
     39 H          10.8528   83.5858   79.4153 H         1 GNP500      0.0000 
     40 H          15.9462   85.6881   82.6711 H         1 GNP500      0.0000 
     41 H          15.3247   86.1049   84.6632 H         1 GNP500      0.0000 
     42 H          13.6289   85.9747   85.2400 H         1 GNP500      0.0000 
     43 H           6.4549   84.9286   83.5209 H         1 GNP500      0.0000 
     44 H           8.6204   86.4936   82.9331 H         1 GNP500      0.0000 
@<TRIPOS>BOND
     1    2    1 ar   
     2    3    1 ar   
     3    4    1 ar   
     4    5    1 1    
     5    6    5 1    
     6    7    6 ar   
     7    8    6 ar   
     8    9    6 1    
     9   10    9 1    
    10   11   10 ar   
    11   12   10 ar   
    12   13   10 1    
    13   14   13 1    
    14   15   14 1    
    15   33   14 1    
    16   34   14 1    
    17   16   15 1    
    18   17   15 1    
    19   35   15 1    
    20   21   16 1    
    21   18   17 1    
    22   19   17 1    
    23   36   17 1    
    24   43   18 1    
    25   20   19 1    
    26   21   19 1    
    27   37   19 1    
    28   44   20 1    
    29   22   21 1    
    30   38   21 1    
    31   23   22 1    
    32   32   22 1    
    33   24   23 2    
    34   39   23 1    
    35   25   24 1    
    36   26   25 1    
    37   32   25 2    
    38   27   26 2    
    39   28   26 am   
    40   29   28 1    
    41   40   28 1    
    42   30   29 1    
    43   31   29 2    
    44   41   30 1    
    45   42   30 1    
    46   32   31 1    
@<TRIPOS>SUBSTRUCTURE
     1 GNP500      1 GROUP   
@<TRIPOS>SET

