#    Name: 3fmn_530_1_INTS_M
#    Modification time : Tue Mar 25 06:06:09 2014

@<TRIPOS>MOLECULE
3fmn_530_1_INTS_M
   64     0     9     0     0
SMALL
NO_CHARGES


@<TRIPOS>ATOM
      1 CA         12.4105   10.4885   30.1460 C.3       3 GLC5        0.0000 
      2 CA         14.0890   10.6860   30.6230 C.3       9 GLL5        0.0000 
      3 CA         10.7320   10.2910   29.6690 C.3       6 GLP5        0.0000 
      4 CA         13.6230    9.2035   31.8060 C.3       3 GLC5        0.0000 
      5 CA         13.1570    7.7210   32.9890 C.3       6 GLP5        0.0000 
      6 CA         15.0315    9.2535   29.9270 C.3       3 GLC5        0.0000 
      7 CA         15.9740    7.8210   29.2310 C.3       6 GLP5        0.0000 
      8 CA         19.1010   12.1895   28.8995 C.3       3 GLC5        0.0000 
      9 CA         17.3090   12.3170   30.0500 C.3       9 GLL5        0.0000 
     10 CA         20.8930   12.0620   27.7490 C.3       6 GLP5        0.0000 
     11 CA         14.5905    9.2440   32.4860 C.3       3 GLC5        0.0000 
     12 CA         16.0240   10.7670   31.9830 C.3       9 GLL5        0.0000 
     13 CA         19.2335   10.9465   34.4495 C.3       3 GLC5        0.0000 
     14 CA         17.9650   10.8610   33.3200 C.3       9 GLL5        0.0000 
     15 CA         20.5020   11.0320   35.5790 C.3       6 GLP5        0.0000 
     16 CA         16.9750    9.8295   34.8610 C.3       3 GLC5        0.0000 
     17 CA         15.9850    8.7980   36.4020 C.3       6 GLP5        0.0000 
     18 CA         20.4085   11.2705   33.4545 C.3       3 GLC5        0.0000 
     19 CA         20.3150   11.5090   31.3300 C.3       9 GLL5        0.0000 
     20 CA         19.8785    9.6400   32.3590 C.3       3 GLC5        0.0000 
     21 CA         19.4420    7.7710   33.3880 C.3       6 GLP5        0.0000 
     22 CA         20.6040   11.7855   29.5395 C.3       3 GLC5        0.0000 
     23 CA         19.1685    8.8430   30.2730 C.3       3 GLC5        0.0000 
     24 CA         21.0360    9.3520   30.7440 C.3       9 GLL5        0.0000 
     25 CA         17.3010    8.3340   29.8020 C.3       6 GLP5        0.0000 
     26 O          20.4155    6.9870   30.0145 O.2       1 ALC1        0.0000 
     27 O          21.0900    8.0750   30.3250 O.2       7 ALL1        0.0000 
     28 O          19.7410    5.8990   29.7040 O.2       4 ALP1        0.0000 
     29 N          22.7970    6.2995   30.1910 N.am      2 SEC2        0.0000 
     30 N          22.4120    7.5920   30.4180 N.am      8 SEL2        0.0000 
     31 N          23.1820    5.0070   29.9640 N.am      5 SEP2        0.0000 
     32 CA         21.5655   11.0340   33.6005 C.3       3 GLC5        0.0000 
     33 CA         22.6290   11.0360   31.6220 C.3       9 GLL5        0.0000 
     34 O          25.0720    7.0565   30.9865 O.2       1 ALC1        0.0000 
     35 O          24.4830    8.4330   31.1100 O.2       7 ALL1        0.0000 
     36 O          25.6610    5.6800   30.8630 O.2       4 ALP1        0.0000 
     37 CA         25.6705    9.2025   28.1605 C.3       3 GLC5        0.0000 
     38 CA         26.3790    9.5960   30.1150 C.3       9 GLL5        0.0000 
     39 CA         24.9620    8.8090   26.2060 C.3       6 GLP5        0.0000 
     40 CA         28.5125   11.0505   28.8305 C.3       3 GLC5        0.0000 
     41 CA         27.4890   10.6120   30.3870 C.3       9 GLL5        0.0000 
     42 CA         29.5360   11.4890   27.2740 C.3       6 GLP5        0.0000 
     43 CA         16.4877    9.9157   30.0645 C.3       3 GLC5        0.0000 
     44 CA         15.3540   11.1090   30.8110 C.3       9 GLL5        0.0000 
     45 CA         14.0496   12.6554   29.4430 C.3       3 GLC5        0.0000 
     46 CA         12.7410   13.9190   28.6060 C.3       6 GLP5        0.0000 
     47 CA         16.8280   11.2327   28.1893 C.3       3 GLC5        0.0000 
     48 CA         15.9950   11.8860   29.8430 C.3       9 GLL5        0.0000 
     49 CA         17.0040   10.3640   26.4320 C.3       6 GLP5        0.0000 
     50 CA         17.0508   13.6648   31.9883 C.3       3 GLC5        0.0000 
     51 CA         16.4580   15.1820   33.3380 C.3       6 GLP5        0.0000 
     52 CA         17.4722   10.2407   30.2203 C.3       3 GLC5        0.0000 
     53 CA         17.9780   11.9780   31.2270 C.3       9 GLL5        0.0000 
     54 CA         13.7854   11.5736   32.0730 C.3       3 GLC5        0.0000 
     55 CA         12.1980   12.3150   32.7960 C.3       6 GLP5        0.0000 
     56 CA         18.5455    9.4008   33.0705 C.3       3 GLC5        0.0000 
     57 CA         17.3330   11.2000   32.1860 C.3       9 GLL5        0.0000 
     58 CA         16.6704   12.0761   33.7461 C.3       3 GLC5        0.0000 
     59 CA         16.0190   13.2300   34.7900 C.3       6 GLP5        0.0000 
     60 CA         17.3114    9.6281   31.2521 C.3       3 GLC5        0.0000 
     61 CA         20.5795    8.6605   32.1660 C.3       3 GLC5        0.0000 
     62 CA         21.5330   11.1775   29.5160 C.3       3 GLC5        0.0000 
     63 CA         28.3625    8.5630   29.6570 C.3       3 GLC5        0.0000 
     64 CA         29.7910    7.0220   29.0630 C.3       6 GLP5        0.0000 
@<TRIPOS>BOND
@<TRIPOS>SUBSTRUCTURE
     1 ALC1       26 GROUP        1 X    ALC  0     ROOT ALC X 1
     2 SEC2       29 GROUP        1 X    SEC  0     **** SEC X 2
     3 GLC5        1 GROUP        1 X    GLC  0     **** GLC X 6
     4 ALP1       28 GROUP        1 Y    ALP  0     ROOT ALP Y 8
     5 SEP2       31 GROUP        1 Y    SEP  0     **** SEP Y 9
     6 GLP5        3 GROUP        1 Y    GLP  0     **** GLP Y 13
     7 ALL1       27 GROUP        1 Z    ALL  0     ROOT ALL Z 15
     8 SEL2       30 GROUP        1 Z    SEL  0     **** SEL Z 16
     9 GLL5        2 GROUP        1 Z    GLL  0     **** GLL Z 20
@<TRIPOS>SET

