#    Name: 3fmn_530_1_ligand
#    Modification time : Tue Mar 25 06:06:09 2014

@<TRIPOS>MOLECULE
3fmn_530_1_ligand
   40    43     1     0     0
SMALL
NO_CHARGES


@<TRIPOS>ATOM
      1 F25        14.0890   10.6860   30.6230 F         1 530361      0.0000 
      2 C21        15.3540   11.1090   30.8110 C.ar      1 530361      0.0000 
      3 C20        15.9950   11.8860   29.8430 C.ar      1 530361      0.0000 
      4 C19        17.3090   12.3170   30.0500 C.ar      1 530361      0.0000 
      5 C22        16.0240   10.7670   31.9830 C.ar      1 530361      0.0000 
      6 C23        17.3330   11.2000   32.1860 C.ar      1 530361      0.0000 
      7 F24        17.9650   10.8610   33.3200 F         1 530361      0.0000 
      8 C12        17.9780   11.9780   31.2270 C.ar      1 530361      0.0000 
      9 O11        19.2760   12.4000   31.4320 O.3       1 530361      0.0000 
     10 C3         20.3150   11.5090   31.3300 C.ar      1 530361      0.0000 
     11 N2         21.5790   11.8800   31.6980 N.ar      1 530361      0.0000 
     12 N4         20.0460   10.2660   30.8590 N.ar      1 530361      0.0000 
     13 C6         21.0360    9.3520   30.7440 C.ar      1 530361      0.0000 
     14 N7         21.0900    8.0750   30.3250 N.pl3     1 530361      0.0000 
     15 N8         22.4120    7.5920   30.4180 N.2       1 530361      0.0000 
     16 C9         23.1520    8.6060   30.9020 C.2       1 530361      0.0000 
     17 C5         22.3980    9.7480   31.1440 C.ar      1 530361      0.0000 
     18 C1         22.6290   11.0360   31.6220 C.ar      1 530361      0.0000 
     19 N10        24.4830    8.4330   31.1100 N.pl3     1 530361      0.0000 
     20 C13        25.4270    9.5140   31.3060 C.3       1 530361      0.0000 
     21 C18        26.3790    9.5960   30.1150 C.3       1 530361      0.0000 
     22 C17        27.4890   10.6120   30.3870 C.3       1 530361      0.0000 
     23 O16        28.1750   10.2810   31.6000 O.3       1 530361      0.0000 
     24 C15        27.3340   10.2920   32.7600 C.3       1 530361      0.0000 
     25 C14        26.2070    9.2720   32.5950 C.3       1 530361      0.0000 
     26 H          15.5021   12.1407   28.9800 H         1 530361      0.0000 
     27 H          17.7807   12.8829   29.3354 H         1 530361      0.0000 
     28 H          15.5549   10.1970   32.6964 H         1 530361      0.0000 
     29 H          20.3555    7.5378   30.0025 H         1 530361      0.0000 
     30 H          23.5711   11.3128   31.9010 H         1 530361      0.0000 
     31 H          24.8920    7.4600   31.1369 H         1 530361      0.0000 
     32 H          24.9109   10.4570   31.3953 H         1 530361      0.0000 
     33 H          25.8242    9.8994   29.2307 H         1 530361      0.0000 
     34 H          26.8224    8.6189   29.9405 H         1 530361      0.0000 
     35 H          27.0270   11.6057   30.4415 H         1 530361      0.0000 
     36 H          28.1667   10.6060   29.5242 H         1 530361      0.0000 
     37 H          26.8756   11.2749   32.9181 H         1 530361      0.0000 
     38 H          27.8918   10.0310   33.6666 H         1 530361      0.0000 
     39 H          26.6327    8.2682   32.5753 H         1 530361      0.0000 
     40 H          25.5289    9.3470   33.4458 H         1 530361      0.0000 
@<TRIPOS>BOND
     1    2    1 1    
     2    3    2 ar   
     3    5    2 ar   
     4    4    3 ar   
     5   26    3 1    
     6    8    4 ar   
     7   27    4 1    
     8    6    5 ar   
     9   28    5 1    
    10    7    6 1    
    11    8    6 ar   
    12    9    8 1    
    13   10    9 1    
    14   11   10 ar   
    15   12   10 ar   
    16   18   11 ar   
    17   13   12 ar   
    18   14   13 1    
    19   17   13 ar   
    20   15   14 1    
    21   29   14 1    
    22   16   15 2    
    23   17   16 1    
    24   19   16 1    
    25   18   17 ar   
    26   30   18 1    
    27   20   19 1    
    28   31   19 1    
    29   21   20 1    
    30   25   20 1    
    31   32   20 1    
    32   22   21 1    
    33   33   21 1    
    34   34   21 1    
    35   23   22 1    
    36   35   22 1    
    37   36   22 1    
    38   24   23 1    
    39   25   24 1    
    40   37   24 1    
    41   38   24 1    
    42   39   25 1    
    43   40   25 1    
@<TRIPOS>SUBSTRUCTURE
     1 530361      1 GROUP   
@<TRIPOS>SET

