#    Name: 3inj_BXB_8_INTS_M
#    Modification time : Tue Mar 25 16:51:37 2014

@<TRIPOS>MOLECULE
3inj_BXB_8_INTS_M
   46     0     6     0     0
SMALL
NO_CHARGES


@<TRIPOS>ATOM
      1 CA         21.8515   53.6835   -4.2585 C.3       2 GLC5        0.0000 
      2 CA         21.5130   52.7220   -5.9990 C.3       6 GLL5        0.0000 
      3 CA         22.1900   54.6450   -2.5180 C.3       4 GLP5        0.0000 
      4 CA         23.6785   53.1555   -4.6035 C.3       2 GLC5        0.0000 
      5 CA         22.8660   52.3770   -5.9760 C.3       6 GLL5        0.0000 
      6 CA         24.4910   53.9340   -3.2310 C.3       4 GLP5        0.0000 
      7 O          20.3160   49.6045   -3.2120 O.2       1 ALC1        0.0000 
      8 O          19.6520   48.8160   -4.1690 O.2       5 ALL1        0.0000 
      9 O          20.9800   50.3930   -2.2550 O.2       3 ALP1        0.0000 
     10 CA         17.5760   51.4730   -4.8675 C.3       2 GLC5        0.0000 
     11 CA         18.7830   52.2250   -5.8370 C.3       6 GLL5        0.0000 
     12 CA         16.3690   50.7210   -3.8980 C.3       4 GLP5        0.0000 
     13 CA         22.9410   46.6875   -5.2795 C.3       2 GLC5        0.0000 
     14 CA         22.8940   48.3430   -5.3260 C.3       6 GLL5        0.0000 
     15 CA         22.9880   45.0320   -5.2330 C.3       4 GLP5        0.0000 
     16 CA         23.9410   48.1825   -3.5075 C.3       2 GLC5        0.0000 
     17 CA         24.9880   48.0220   -1.6890 C.3       4 GLP5        0.0000 
     18 CA         19.1270   46.3785   -5.4775 C.3       2 GLC5        0.0000 
     19 CA         18.6620   47.7880   -3.9100 C.3       6 GLL5        0.0000 
     20 CA         19.5920   44.9690   -7.0450 C.3       4 GLP5        0.0000 
     21 CA         17.5155   49.2545   -3.9040 C.3       2 GLC5        0.0000 
     22 CA         17.5620   46.5045   -3.6250 C.3       2 GLC5        0.0000 
     23 CA         16.4620   45.2210   -3.3400 C.3       4 GLP5        0.0000 
     24 CA         19.9435   45.5615   -4.9910 C.3       2 GLC5        0.0000 
     25 CA         20.2950   46.1540   -2.9370 C.3       6 GLL5        0.0000 
     26 CA         19.9770   42.8605   -0.0205 C.3       2 GLC5        0.0000 
     27 CA         21.6280   43.8720   -0.4410 C.3       6 GLL5        0.0000 
     28 CA         18.3260   41.8490    0.4000 C.3       4 GLP5        0.0000 
     29 CA         22.5580   42.8650   -1.5990 C.3       2 GLC5        0.0000 
     30 CA         23.4880   41.8580   -2.7570 C.3       4 GLP5        0.0000 
     31 CA         23.6665   43.6975   -0.0590 C.3       2 GLC5        0.0000 
     32 CA         25.7050   43.5230    0.3230 C.3       4 GLP5        0.0000 
     33 CA         21.7140   45.8835   -0.0510 C.3       2 GLC5        0.0000 
     34 CA         21.8000   47.8950    0.3390 C.3       4 GLP5        0.0000 
     35 CA         22.8960   51.4300   -3.8680 C.3       2 GLC5        0.0000 
     36 CA         22.3560   50.0310   -5.5890 C.3       6 GLL5        0.0000 
     37 CA         22.9730   52.3150   -2.0540 C.3       4 GLP5        0.0000 
     38 CA         18.8005   48.8200   -2.0380 C.3       2 GLC5        0.0000 
     39 CA         18.6980   50.2840   -0.7380 C.3       4 GLP5        0.0000 
     40 CA         18.6648   48.4240   -0.8700 C.3       2 GLC5        0.0000 
     41 CA         18.4390   46.9440   -1.5540 C.3       6 GLL5        0.0000 
     42 CA         18.5767   45.5328    1.0925 C.3       2 GLC5        0.0000 
     43 CA         18.8240   46.1840   -0.4500 C.3       6 GLL5        0.0000 
     44 CA         17.7610   45.2680    2.7100 C.3       4 GLP5        0.0000 
     45 CA         21.7430   45.4045   -3.8140 C.3       2 GLC5        0.0000 
     46 CA         20.7010   45.4000   -1.8530 C.3       6 GLL5        0.0000 
@<TRIPOS>BOND
@<TRIPOS>SUBSTRUCTURE
     1 ALC1        7 GROUP        1 X    ALC  0     ROOT ALC X 1
     2 GLC5        1 GROUP        1 X    GLC  0     **** GLC X 6
     3 ALP1        9 GROUP        1 Y    ALP  0     ROOT ALP Y 8
     4 GLP5        3 GROUP        1 Y    GLP  0     **** GLP Y 13
     5 ALL1        8 GROUP        1 Z    ALL  0     ROOT ALL Z 15
     6 GLL5        2 GROUP        1 Z    GLL  0     **** GLL Z 20
@<TRIPOS>SET

