#    Name: 3inj_BXB_8_ligand
#    Modification time : Tue Mar 25 16:51:37 2014

@<TRIPOS>MOLECULE
3inj_BXB_8_ligand
   32    34     1     0     0
SMALL
NO_CHARGES


@<TRIPOS>ATOM
      1 C1         20.9090   50.3520   -5.5940 C.ar      1 BXB1001     0.0000 
      2 C2         20.5200   51.7640   -5.8170 C.ar      1 BXB1001     0.0000 
      3 C3         21.5130   52.7220   -5.9990 C.ar      1 BXB1001     0.0000 
      4 C4         22.8660   52.3770   -5.9760 C.ar      1 BXB1001     0.0000 
      5 C5         23.2820   51.0590   -5.7750 C.ar      1 BXB1001     0.0000 
      6 C6         22.3560   50.0310   -5.5890 C.ar      1 BXB1001     0.0000 
      7 C7         19.8760   49.2740   -5.4030 C.2       1 BXB1001     0.0000 
      8 N8         19.6520   48.8160   -4.1690 N.am      1 BXB1001     0.0000 
      9 O9         19.2560   48.8620   -6.3800 O.2       1 BXB1001     0.0000 
     10 CL10       18.7830   52.2250   -5.8370 Cl        1 BXB1001     0.0000 
     11 CL11       22.8940   48.3430   -5.3260 Cl        1 BXB1001     0.0000 
     12 C12        18.6620   47.7880   -3.9100 C.3       1 BXB1001     0.0000 
     13 C13        19.1440   46.9240   -2.7660 C.ar      1 BXB1001     0.0000 
     14 C14        18.4390   46.9440   -1.5540 C.ar      1 BXB1001     0.0000 
     15 C15        18.8240   46.1840   -0.4500 C.ar      1 BXB1001     0.0000 
     16 C16        19.9610   45.4110   -0.6000 C.ar      1 BXB1001     0.0000 
     17 C17        20.7010   45.4000   -1.8530 C.ar      1 BXB1001     0.0000 
     18 C18        20.2950   46.1540   -2.9370 C.ar      1 BXB1001     0.0000 
     19 O19        21.7580   44.5520   -1.7090 O.3       1 BXB1001     0.0000 
     20 C20        21.6280   43.8720   -0.4410 C.3       1 BXB1001     0.0000 
     21 O21        20.5870   44.5690    0.2760 O.3       1 BXB1001     0.0000 
     22 H          21.2454   53.7107   -6.1547 H         1 BXB1001     0.0000 
     23 H          23.5797   53.1179   -6.1115 H         1 BXB1001     0.0000 
     24 H          24.2929   50.8412   -5.7638 H         1 BXB1001     0.0000 
     25 H          20.1725   49.1719   -3.3427 H         1 BXB1001     0.0000 
     26 H          18.5151   47.1547   -4.7861 H         1 BXB1001     0.0000 
     27 H          17.7026   48.2276   -3.6335 H         1 BXB1001     0.0000 
     28 H          17.5942   47.5520   -1.4786 H         1 BXB1001     0.0000 
     29 H          18.2995   46.2009    0.4064 H         1 BXB1001     0.0000 
     30 H          20.7984   46.1526   -3.8072 H         1 BXB1001     0.0000 
     31 H          22.5643   43.9149    0.1106 H         1 BXB1001     0.0000 
     32 H          21.3528   42.8311   -0.5948 H         1 BXB1001     0.0000 
@<TRIPOS>BOND
     1    2    1 ar   
     2    6    1 ar   
     3    7    1 1    
     4    3    2 ar   
     5   10    2 1    
     6    4    3 ar   
     7   22    3 1    
     8    5    4 ar   
     9   23    4 1    
    10    6    5 ar   
    11   24    5 1    
    12   11    6 1    
    13    8    7 am   
    14    9    7 2    
    15   12    8 1    
    16   25    8 1    
    17   13   12 1    
    18   26   12 1    
    19   27   12 1    
    20   14   13 ar   
    21   18   13 ar   
    22   15   14 ar   
    23   28   14 1    
    24   16   15 ar   
    25   29   15 1    
    26   17   16 ar   
    27   21   16 1    
    28   18   17 ar   
    29   19   17 1    
    30   30   18 1    
    31   20   19 1    
    32   21   20 1    
    33   31   20 1    
    34   32   20 1    
@<TRIPOS>SUBSTRUCTURE
     1 BXB1001     1 GROUP   
@<TRIPOS>SET

