#    Name: 3b92_440_1_INTS_M
#    Modification time : Mon Mar 24 19:09:36 2014

@<TRIPOS>MOLECULE
3b92_440_1_INTS_M
   48     0     6     0     0
SMALL
NO_CHARGES


@<TRIPOS>ATOM
      1 CA          0.5460   59.7815   82.2990 C.3       2 GLC5        0.0000 
      2 CA          1.2060   59.3620   84.1460 C.3       6 GLL5        0.0000 
      3 CA         -0.1140   60.2010   80.4520 C.3       4 GLP5        0.0000 
      4 CA         -0.2900   60.7415   83.2805 C.3       2 GLC5        0.0000 
      5 CA          1.4570   60.6490   84.6430 C.3       6 GLL5        0.0000 
      6 CA         -2.0370   60.8340   81.9180 C.3       4 GLP5        0.0000 
      7 CA          1.9620   62.5180   83.8575 C.3       2 GLC5        0.0000 
      8 CA          2.4670   64.3870   83.0720 C.3       4 GLP5        0.0000 
      9 CA          1.7730   63.0315   86.8545 C.3       2 GLC5        0.0000 
     10 CA         -0.2580   63.2200   86.5630 C.3       6 GLL5        0.0000 
     11 CA          3.8040   62.8430   87.1460 C.3       4 GLP5        0.0000 
     12 CA          0.8970   64.5895   87.8555 C.3       2 GLC5        0.0000 
     13 CA          2.0520   65.9590   89.1480 C.3       4 GLP5        0.0000 
     14 CA         -2.1275   62.0635   86.4930 C.3       2 GLC5        0.0000 
     15 CA         -3.9970   60.9070   86.4230 C.3       4 GLP5        0.0000 
     16 CA         -3.8705   66.1335   82.7030 C.3       2 GLC5        0.0000 
     17 CA         -3.0410   64.8880   83.7500 C.3       6 GLL5        0.0000 
     18 CA         -4.7000   67.3790   81.6560 C.3       4 GLP5        0.0000 
     19 CA         -2.0265   62.5650   83.3205 C.3       2 GLC5        0.0000 
     20 CA         -2.0160   64.2960   84.7230 C.3       6 GLL5        0.0000 
     21 N           0.2560   57.3165   81.4650 N.am      1 SEC2        0.0000 
     22 N           0.5820   56.8300   82.8780 N.am      5 SEL2        0.0000 
     23 N          -0.0700   57.8030   80.0520 N.am      3 SEP2        0.0000 
     24 CA          5.5070   56.5015   83.6760 C.3       2 GLC5        0.0000 
     25 CA          4.3340   56.5520   85.3070 C.3       6 GLL5        0.0000 
     26 CA          6.6800   56.4510   82.0450 C.3       4 GLP5        0.0000 
     27 CA          4.2545   58.4130   86.1265 C.3       2 GLC5        0.0000 
     28 CA          4.1750   60.2740   86.9460 C.3       4 GLP5        0.0000 
     29 CA          5.6500   57.1695   86.5040 C.3       2 GLC5        0.0000 
     30 CA          6.9660   57.7870   87.7010 C.3       4 GLP5        0.0000 
     31 CA          1.8628   61.0930   86.6970 C.3       2 GLC5        0.0000 
     32 CA          0.6600   61.1780   85.6780 C.3       6 GLL5        0.0000 
     33 CA          3.5880   61.3900   87.4430 C.3       4 GLP5        0.0000 
     34 CA         -2.2545   60.3397   86.2018 C.3       2 GLC5        0.0000 
     35 CA         -0.3850   60.4140   86.2240 C.3       6 GLL5        0.0000 
     36 CA         -1.1398   59.8538   83.5683 C.3       2 GLC5        0.0000 
     37 CA         -0.6390   59.1310   85.7370 C.3       6 GLL5        0.0000 
     38 CA          2.7532   60.1397   85.6702 C.3       2 GLC5        0.0000 
     39 CA         -0.3360   65.4153   85.7790 C.3       2 GLC5        0.0000 
     40 CA          0.0720   67.3040   85.5310 C.3       4 GLP5        0.0000 
     41 CA         -1.2283   65.9480   84.8838 C.3       2 GLC5        0.0000 
     42 CA         -2.3700   64.6841   86.9910 C.3       2 GLC5        0.0000 
     43 CA         -3.3600   65.4570   88.6070 C.3       4 GLP5        0.0000 
     44 CA         -0.6596   63.9917   83.2069 C.3       2 GLC5        0.0000 
     45 CA         -1.2300   63.8330   85.4910 C.3       6 GLL5        0.0000 
     46 CA          0.5600   63.7710   81.5500 C.3       4 GLP5        0.0000 
     47 CA         -3.0436   62.6222   84.8939 C.3       2 GLC5        0.0000 
     48 CA         -4.2080   61.0320   84.9240 C.3       4 GLP5        0.0000 
@<TRIPOS>BOND
@<TRIPOS>SUBSTRUCTURE
     1 SEC2       21 GROUP        1 X    SEC  0     ROOT SEC X 2
     2 GLC5        1 GROUP        1 X    GLC  0     **** GLC X 6
     3 SEP2       23 GROUP        1 Y    SEP  0     ROOT SEP Y 9
     4 GLP5        3 GROUP        1 Y    GLP  0     **** GLP Y 13
     5 SEL2       22 GROUP        1 Z    SEL  0     ROOT SEL Z 16
     6 GLL5        2 GROUP        1 Z    GLL  0     **** GLL Z 20
@<TRIPOS>SET

