#    Name: 3b92_440_1_ligand
#    Modification time : Mon Mar 24 19:09:36 2014

@<TRIPOS>MOLECULE
3b92_440_1_ligand
   33    33     1     0     0
SMALL
NO_CHARGES


@<TRIPOS>ATOM
      1 C          -0.3850   60.4140   86.2240 C.ar      1 440501      0.0000 
      2 C1         -0.6390   59.1310   85.7370 C.ar      1 440501      0.0000 
      3 C2          1.2060   59.3620   84.1460 C.ar      1 440501      0.0000 
      4 C3          1.4570   60.6490   84.6430 C.ar      1 440501      0.0000 
      5 C4          0.6600   61.1780   85.6780 C.ar      1 440501      0.0000 
      6 O           0.8750   62.5030   86.0710 O.3       1 440501      0.0000 
      7 C5         -0.2580   63.2200   86.5630 C.3       1 440501      0.0000 
      8 C6         -3.0410   64.8880   83.7500 C.3       1 440501      0.0000 
      9 C7         -2.0160   64.2960   84.7230 C.1       1 440501      0.0000 
     10 C8         -1.2300   63.8330   85.4910 C.1       1 440501      0.0000 
     11 C9          0.1540   58.6160   84.7000 C.ar      1 440501      0.0000 
     12 O1         -1.6420   56.8910   83.9960 O.2       1 440501      0.0000 
     13 O2          0.5820   56.8300   82.8780 O.2       1 440501      0.0000 
     14 S          -0.2180   57.0230   84.0700 S.o2      1 440501      0.0000 
     15 C10         0.3050   55.9790   85.4240 C.3       1 440501      0.0000 
     16 C11         1.6920   56.3580   85.9060 C.3       1 440501      0.0000 
     17 C12         2.7660   55.7160   85.0470 C.3       1 440501      0.0000 
     18 S1          4.3340   56.5520   85.3070 S.3       1 440501      0.0000 
     19 H          -0.9582   60.8025   86.9796 H         1 440501      0.0000 
     20 H          -1.3957   58.5682   86.1301 H         1 440501      0.0000 
     21 H           1.7750   58.9759   83.3983 H         1 440501      0.0000 
     22 H           2.2220   61.2094   84.2543 H         1 440501      0.0000 
     23 H           0.0505   64.0741   87.2234 H         1 440501      0.0000 
     24 H          -0.8965   62.5764   87.2255 H         1 440501      0.0000 
     25 H           0.2534   54.9978   85.0011 H         1 440501      0.0000 
     26 H          -0.4592   56.1379   86.1554 H         1 440501      0.0000 
     27 H           1.8163   56.0331   86.9418 H         1 440501      0.0000 
     28 H           1.8030   57.4444   85.8704 H         1 440501      0.0000 
     29 H           2.6070   55.8365   84.0030 H         1 440501      0.0000 
     30 H           2.9879   54.7127   85.3191 H         1 440501      0.0000 
     31 H          -2.6902   64.9182   82.8140 H         1 440501      0.0000 
     32 H          -3.8856   64.3530   83.7294 H         1 440501      0.0000 
     33 H          -3.2925   65.8233   83.9991 H         1 440501      0.0000 
@<TRIPOS>BOND
     1    2    1 ar   
     2    5    1 ar   
     3   19    1 1    
     4   11    2 ar   
     5   20    2 1    
     6    4    3 ar   
     7   11    3 ar   
     8   21    3 1    
     9    5    4 ar   
    10   22    4 1    
    11    6    5 1    
    12    7    6 1    
    13   10    7 1    
    14   23    7 1    
    15   24    7 1    
    16    9    8 1    
    17   31    8 1    
    18   32    8 1    
    19   33    8 1    
    20   10    9 3    
    21   14   11 1    
    22   14   12 2    
    23   14   13 2    
    24   15   14 1    
    25   16   15 1    
    26   25   15 1    
    27   26   15 1    
    28   17   16 1    
    29   27   16 1    
    30   28   16 1    
    31   18   17 1    
    32   29   17 1    
    33   30   17 1    
@<TRIPOS>SUBSTRUCTURE
     1 440501      1 GROUP   
@<TRIPOS>SET

