#    Name: 2axa_FHM_1_INTS_M
#    Modification time : Mon Mar 24 19:42:26 2014

@<TRIPOS>MOLECULE
2axa_FHM_1_INTS_M
   93     0     9     0     0
SMALL
NO_CHARGES


@<TRIPOS>ATOM
      1 CA         32.3010    0.7260    8.3100 C.3       3 GLC5        0.0000 
      2 CA         30.4130    0.1240    8.4630 C.3       9 GLL5        0.0000 
      3 CA         34.1890    1.3280    8.1570 C.3       6 GLP5        0.0000 
      4 CA         29.8665    2.0585   11.8965 C.3       3 GLC5        0.0000 
      5 CA         29.1660    0.4280   11.8760 C.3       9 GLL5        0.0000 
      6 CA         30.5670    3.6890   11.9170 C.3       6 GLP5        0.0000 
      7 CA         30.7245    0.5710   12.9810 C.3       3 GLC5        0.0000 
      8 CA         32.2830    0.7140   14.0860 C.3       6 GLP5        0.0000 
      9 CA         28.1750    3.1855   11.5255 C.3       3 GLC5        0.0000 
     10 CA         28.7030    1.7370    9.9530 C.3       9 GLL5        0.0000 
     11 CA         27.6470    4.6340   13.0980 C.3       6 GLP5        0.0000 
     12 CA         28.2540   -0.0320    6.6810 C.3       3 GLC5        0.0000 
     13 CA         29.9980    0.3430    5.6730 C.3       9 GLL5        0.0000 
     14 CA         26.5100   -0.4070    7.6890 C.3       6 GLP5        0.0000 
     15 CA         30.4865   -1.2900    6.1830 C.3       3 GLC5        0.0000 
     16 CA         30.9750   -2.9230    6.6930 C.3       6 GLP5        0.0000 
     17 CA         31.8200    0.9650    6.0580 C.3       3 GLC5        0.0000 
     18 CA         33.6420    1.5870    6.4430 C.3       6 GLP5        0.0000 
     19 CA         31.2755    1.9880    5.4300 C.3       3 GLC5        0.0000 
     20 CA         29.7730    0.8090    4.2420 C.3       9 GLL5        0.0000 
     21 CA         32.7780    3.1670    6.6180 C.3       6 GLP5        0.0000 
     22 N          31.9475    1.1020    3.4370 N.am      2 SEC2        0.0000 
     23 N          30.8400    1.6800    3.8580 N.am      8 SEL2        0.0000 
     24 N          33.0550    0.5240    3.0160 N.am      5 SEP2        0.0000 
     25 CA         30.2425   -1.1655    1.5390 C.3       3 GLC5        0.0000 
     26 CA         29.7160   -0.4060    3.3140 C.3       9 GLL5        0.0000 
     27 CA         30.7690   -1.9250   -0.2360 C.3       6 GLP5        0.0000 
     28 CA         29.8160    1.1070    1.7165 C.3       3 GLC5        0.0000 
     29 CA         29.9160    2.6200    0.1190 C.3       6 GLP5        0.0000 
     30 CA         30.3455   -1.6645    5.0035 C.3       3 GLC5        0.0000 
     31 O          29.8065    3.7150    3.2035 O.2       1 ALC1        0.0000 
     32 O          28.5730    2.8620    3.8660 O.2       7 ALL1        0.0000 
     33 O          31.0400    4.5680    2.5410 O.2       4 ALP1        0.0000 
     34 CA         25.7640    2.1770    5.8105 C.3       3 GLC5        0.0000 
     35 CA         26.2460    3.4220    4.0060 C.3       9 GLL5        0.0000 
     36 CA         25.2820    0.9320    7.6150 C.3       6 GLP5        0.0000 
     37 CA         28.5285    6.9505    2.6225 C.3       3 GLC5        0.0000 
     38 CA         27.8990    5.0550    3.4280 C.3       9 GLL5        0.0000 
     39 CA         29.1580    8.8460    1.8170 C.3       6 GLP5        0.0000 
     40 CA         27.4860    7.2480    2.1010 C.3       3 GLC5        0.0000 
     41 CA         26.8960    6.0180    3.3860 C.3       9 GLL5        0.0000 
     42 CA         28.0760    8.4780    0.8160 C.3       6 GLP5        0.0000 
     43 N          25.8140    9.0470    3.6205 N.am      2 SEC2        0.0000 
     44 N          25.1510    8.0070    3.2720 N.am      8 SEL2        0.0000 
     45 N          26.4770   10.0870    3.9690 N.am      5 SEP2        0.0000 
     46 CA         26.2405    4.6755    5.7735 C.3       3 GLC5        0.0000 
     47 CA         25.2270    4.3760    3.9650 C.3       9 GLL5        0.0000 
     48 CA         27.2540    4.9750    7.5820 C.3       6 GLP5        0.0000 
     49 CA         24.3295    2.6030    6.5155 C.3       3 GLC5        0.0000 
     50 CA         23.3770    4.2740    5.4160 C.3       9 GLL5        0.0000 
     51 CA         21.8360    4.5390    6.0275 C.3       3 GLC5        0.0000 
     52 CA         20.2950    4.8040    6.6390 C.3       6 GLP5        0.0000 
     53 CA         21.6115    4.6040    4.9715 C.3       3 GLC5        0.0000 
     54 CA         22.9280    4.4040    3.3040 C.3       9 GLL5        0.0000 
     55 CA         21.6035    4.5610    2.1105 C.3       3 GLC5        0.0000 
     56 CA         20.2790    4.7180    0.9170 C.3       6 GLP5        0.0000 
     57 CA         24.4645    1.7615    5.8670 C.3       3 GLC5        0.0000 
     58 CA         23.6470    2.5910    4.1190 C.3       9 GLL5        0.0000 
     59 CA         23.0810    1.1525    4.7710 C.3       3 GLC5        0.0000 
     60 CA         22.5150   -0.2860    5.4230 C.3       6 GLP5        0.0000 
     61 CA         28.4090   -0.2080    8.4138 C.3       3 GLC5        0.0000 
     62 CA         31.7725   -1.0775    9.4977 C.3       3 GLC5        0.0000 
     63 CA         33.2370   -2.1460    9.8570 C.3       6 GLP5        0.0000 
     64 CA         27.7683    0.3968    8.9730 C.3       3 GLC5        0.0000 
     65 CA         29.3500    0.6640   10.5610 C.3       9 GLL5        0.0000 
     66 CA         28.0516   -0.9543   11.0819 C.3       3 GLC5        0.0000 
     67 CA         30.2030   -0.1420    9.8140 C.3       9 GLL5        0.0000 
     68 CA         26.6320   -2.2530   11.1320 C.3       6 GLP5        0.0000 
     69 CA         29.6791   -1.2822   11.9754 C.3       3 GLC5        0.0000 
     70 CA         29.8870   -2.9090   12.9190 C.3       6 GLP5        0.0000 
     71 CA         28.0315    3.4223    8.4300 C.3       3 GLC5        0.0000 
     72 CA         27.9260    0.5967    7.9585 C.3       3 GLC5        0.0000 
     73 CA         28.9150    2.0020    8.6030 C.3       9 GLL5        0.0000 
     74 CA         31.0600    2.3838    7.4230 C.3       3 GLC5        0.0000 
     75 CA         30.5068   -1.1640    7.5944 C.3       3 GLC5        0.0000 
     76 CA         29.7690    1.1990    7.8530 C.3       9 GLL5        0.0000 
     77 CA         27.7315    4.0557    1.5910 C.3       3 GLC5        0.0000 
     78 CA         27.5770    3.7420    3.7520 C.3       9 GLL5        0.0000 
     79 CA         27.7250    3.7130   -0.4080 C.3       6 GLP5        0.0000 
     80 CA         29.0608    5.9812    4.5120 C.3       3 GLC5        0.0000 
     81 CA         30.7240    6.4260    5.6170 C.3       6 GLP5        0.0000 
     82 CA         27.3296    4.6467    5.6178 C.3       3 GLC5        0.0000 
     83 CA         26.6547    6.2818    5.3952 C.3       3 GLC5        0.0000 
     84 CA         27.0760    6.7060    7.2650 C.3       6 GLP5        0.0000 
     85 CA         23.9555    5.2850    6.2103 C.3       3 GLC5        0.0000 
     86 CA         24.3340    6.4770    7.6120 C.3       6 GLP5        0.0000 
     87 CA         22.3200    2.8062    5.5025 C.3       3 GLC5        0.0000 
     88 CA         23.7770    3.9120    4.2010 C.3       9 GLL5        0.0000 
     89 CA         20.9280    2.3610    6.8450 C.3       6 GLP5        0.0000 
     90 CA         23.7344    3.6312    2.1019 C.3       3 GLC5        0.0000 
     91 CA         23.9690    3.8880    0.2680 C.3       6 GLP5        0.0000 
     92 CA         21.7844    2.6268    3.4704 C.3       3 GLC5        0.0000 
     93 CA         20.0690    1.8790    3.0050 C.3       6 GLP5        0.0000 
@<TRIPOS>BOND
@<TRIPOS>SUBSTRUCTURE
     1 ALC1       31 GROUP        1 X    ALC  0     ROOT ALC X 1
     2 SEC2       22 GROUP        1 X    SEC  0     **** SEC X 2
     3 GLC5        1 GROUP        1 X    GLC  0     **** GLC X 6
     4 ALP1       33 GROUP        1 Y    ALP  0     ROOT ALP Y 8
     5 SEP2       24 GROUP        1 Y    SEP  0     **** SEP Y 9
     6 GLP5        3 GROUP        1 Y    GLP  0     **** GLP Y 13
     7 ALL1       32 GROUP        1 Z    ALL  0     ROOT ALL Z 15
     8 SEL2       23 GROUP        1 Z    SEL  0     **** SEL Z 16
     9 GLL5        2 GROUP        1 Z    GLL  0     **** GLL Z 20
@<TRIPOS>SET

