#    Name: 2axa_FHM_1_ligand
#    Modification time : Mon Mar 24 19:42:26 2014

@<TRIPOS>MOLECULE
2axa_FHM_1_ligand
   42    43     1     0     0
SMALL
NO_CHARGES


@<TRIPOS>ATOM
      1 C17        30.4130    0.1240    8.4630 C.ar      1 FHM1        0.0000 
      2 C18        30.2030   -0.1420    9.8140 C.ar      1 FHM1        0.0000 
      3 C19        29.3500    0.6640   10.5610 C.ar      1 FHM1        0.0000 
      4 F19        29.1660    0.4280   11.8760 F         1 FHM1        0.0000 
      5 C20        28.7030    1.7370    9.9530 C.ar      1 FHM1        0.0000 
      6 C21        28.9150    2.0020    8.6030 C.ar      1 FHM1        0.0000 
      7 C16        29.7690    1.1990    7.8530 C.ar      1 FHM1        0.0000 
      8 O14        29.9340    1.4920    6.5330 O.3       1 FHM1        0.0000 
      9 C13        29.9980    0.3430    5.6730 C.3       1 FHM1        0.0000 
     10 C11        29.7730    0.8090    4.2420 C.3       1 FHM1        0.0000 
     11 O11        30.8400    1.6800    3.8580 O.3       1 FHM1        0.0000 
     12 C12        29.7160   -0.4060    3.3140 C.3       1 FHM1        0.0000 
     13 C10        28.4490    1.5720    4.1710 C.2       1 FHM1        0.0000 
     14 O10        27.3840    1.0000    4.4000 O.2       1 FHM1        0.0000 
     15 N9         28.5730    2.8620    3.8660 N.am      1 FHM1        0.0000 
     16 C6         27.5770    3.7420    3.7520 C.ar      1 FHM1        0.0000 
     17 C5         26.2460    3.4220    4.0060 C.ar      1 FHM1        0.0000 
     18 C1         27.8990    5.0550    3.4280 C.ar      1 FHM1        0.0000 
     19 C2         26.8960    6.0180    3.3860 C.ar      1 FHM1        0.0000 
     20 C3         25.5710    5.6970    3.6650 C.ar      1 FHM1        0.0000 
     21 N8         24.7020    6.7100    3.6330 N.pl3     1 FHM1        0.0000 
     22 O2         23.3630    6.5930    4.0900 O.2       1 FHM1        0.0000 
     23 O1         25.1510    8.0070    3.2720 O.2       1 FHM1        0.0000 
     24 C4         25.2270    4.3760    3.9650 C.ar      1 FHM1        0.0000 
     25 C7         23.7770    3.9120    4.2010 C.3       1 FHM1        0.0000 
     26 F2         23.3770    4.2740    5.4160 F         1 FHM1        0.0000 
     27 F3         22.9280    4.4040    3.3040 F         1 FHM1        0.0000 
     28 F1         23.6470    2.5910    4.1190 F         1 FHM1        0.0000 
     29 H          31.0445   -0.4739    7.9141 H         1 FHM1        0.0000 
     30 H          30.6804   -0.9370   10.2600 H         1 FHM1        0.0000 
     31 H          28.0697    2.3324   10.5007 H         1 FHM1        0.0000 
     32 H          28.4363    2.7981    8.1562 H         1 FHM1        0.0000 
     33 H          29.2270   -0.3861    5.9185 H         1 FHM1        0.0000 
     34 H          30.9714   -0.1429    5.7234 H         1 FHM1        0.0000 
     35 H          29.5817    3.2347    3.6932 H         1 FHM1        0.0000 
     36 H          25.9992    2.4342    4.2354 H         1 FHM1        0.0000 
     37 H          28.8698    5.3125    3.2212 H         1 FHM1        0.0000 
     38 H          27.1408    6.9964    3.1415 H         1 FHM1        0.0000 
     39 H          30.5641   -0.9351    3.3424 H         1 FHM1        0.0000 
     40 H          28.9738   -1.0284    3.5623 H         1 FHM1        0.0000 
     41 H          29.5687   -0.1393    2.3616 H         1 FHM1        0.0000 
     42 H          31.3577    1.8409    4.6983 H         1 FHM1        0.0000 
@<TRIPOS>BOND
     1    2    1 ar   
     2    7    1 ar   
     3   29    1 1    
     4    3    2 ar   
     5   30    2 1    
     6    4    3 1    
     7    5    3 ar   
     8    6    5 ar   
     9   31    5 1    
    10    7    6 ar   
    11   32    6 1    
    12    8    7 1    
    13    9    8 1    
    14   10    9 1    
    15   33    9 1    
    16   34    9 1    
    17   11   10 1    
    18   12   10 1    
    19   13   10 1    
    20   42   11 1    
    21   39   12 1    
    22   40   12 1    
    23   41   12 1    
    24   14   13 2    
    25   15   13 am   
    26   16   15 1    
    27   35   15 1    
    28   17   16 ar   
    29   18   16 ar   
    30   24   17 ar   
    31   36   17 1    
    32   19   18 ar   
    33   37   18 1    
    34   20   19 ar   
    35   38   19 1    
    36   21   20 1    
    37   24   20 ar   
    38   22   21 2    
    39   23   21 2    
    40   25   24 1    
    41   26   25 1    
    42   27   25 1    
    43   28   25 1    
@<TRIPOS>SUBSTRUCTURE
     1 FHM1        1 GROUP   
@<TRIPOS>SET

