#    Name: 1zoh_K44_1_INTS_M
#    Modification time : Tue Mar 25 11:57:15 2014

@<TRIPOS>MOLECULE
1zoh_K44_1_INTS_M
   54     0     3     0     0
SMALL
NO_CHARGES


@<TRIPOS>ATOM
      1 CA         20.0470    7.4075   18.7190 C.3       1 GLC5        0.0000 
      2 CA         21.6850    8.6710   18.8360 C.3       3 GLL5        0.0000 
      3 CA         18.4090    6.1440   18.6020 C.3       2 GLP5        0.0000 
      4 CA         22.8200    8.9495   21.2710 C.3       1 GLC5        0.0000 
      5 CA         22.1160    7.1290   20.6350 C.3       3 GLL5        0.0000 
      6 CA         23.5240   10.7700   21.9070 C.3       2 GLP5        0.0000 
      7 CA         25.6145    3.4295   23.5080 C.3       1 GLC5        0.0000 
      8 CA         23.6130    3.3820   22.7050 C.3       3 GLL5        0.0000 
      9 CA         27.6160    3.4770   24.3110 C.3       2 GLP5        0.0000 
     10 CA         19.2345    6.5120   23.0355 C.3       1 GLC5        0.0000 
     11 CA         21.3670    6.4730   22.9940 C.3       3 GLL5        0.0000 
     12 CA         17.1020    6.5510   23.0770 C.3       2 GLP5        0.0000 
     13 CA         20.2005    5.9540   21.5645 C.3       1 GLC5        0.0000 
     14 CA         19.0340    5.4350   20.1350 C.3       2 GLP5        0.0000 
     15 CA         26.3690    5.9030   18.8150 C.3       1 GLC5        0.0000 
     16 CA         24.7840    6.1340   17.6550 C.3       3 GLL5        0.0000 
     17 CA         27.9540    5.6720   19.9750 C.3       2 GLP5        0.0000 
     18 CA         26.2200    6.7125   16.6775 C.3       1 GLC5        0.0000 
     19 CA         27.6560    7.2910   15.7000 C.3       2 GLP5        0.0000 
     20 CA         23.1485    5.4185   17.2585 C.3       1 GLC5        0.0000 
     21 CA         21.5130    4.7030   16.8620 C.3       2 GLP5        0.0000 
     22 CA         24.1325    9.6120   17.8850 C.3       1 GLC5        0.0000 
     23 CA         23.1670    8.7410   16.4070 C.3       3 GLL5        0.0000 
     24 CA         25.0980   10.4830   19.3630 C.3       2 GLP5        0.0000 
     25 CA         21.8090    9.6070   15.2420 C.3       1 GLC5        0.0000 
     26 CA         20.4510   10.4730   14.0770 C.3       2 GLP5        0.0000 
     27 CA         24.3440    9.8410   15.7125 C.3       1 GLC5        0.0000 
     28 CA         25.5210   10.9410   15.0180 C.3       2 GLP5        0.0000 
     29 CA         21.4190    7.7780   15.8330 C.3       1 GLC5        0.0000 
     30 CA         19.6710    6.8150   15.2590 C.3       2 GLP5        0.0000 
     31 CA         21.9270   10.7565   19.3115 C.3       1 GLC5        0.0000 
     32 CA         20.7440   10.1060   18.0180 C.3       3 GLL5        0.0000 
     33 CA         23.1100   11.4070   20.6050 C.3       2 GLP5        0.0000 
     34 CA         20.5975   10.2895   16.0475 C.3       1 GLC5        0.0000 
     35 CA         18.8210   10.5670   18.2615 C.3       1 GLC5        0.0000 
     36 CA         16.8980   11.0280   18.5050 C.3       2 GLP5        0.0000 
     37 CA         20.2075    8.4605   16.6385 C.3       1 GLC5        0.0000 
     38 CA         21.5720   10.2230   20.8585 C.3       1 GLC5        0.0000 
     39 CA         20.0340    9.0390   21.1120 C.3       3 GLL5        0.0000 
     40 CA         18.4380    9.7900   20.5280 C.3       1 GLC5        0.0000 
     41 CA         16.8420   10.5410   19.9440 C.3       2 GLP5        0.0000 
     42 CA         18.5680    7.7950   22.0945 C.3       1 GLC5        0.0000 
     43 CA         19.5340    7.2370   20.6235 C.3       1 GLC5        0.0000 
     44 CA         21.8550    6.5330   17.6657 C.3       1 GLC5        0.0000 
     45 CA         22.7090    8.0550   18.1030 C.3       3 GLL5        0.0000 
     46 CA         22.3225    9.9175   20.0368 C.3       1 GLC5        0.0000 
     47 CA         24.9973    7.1913   20.1115 C.3       1 GLC5        0.0000 
     48 CA         23.0910    6.5160   19.8870 C.3       3 GLL5        0.0000 
     49 CA         26.7430    7.6280   20.9630 C.3       2 GLP5        0.0000 
     50 CA         22.3822    5.7288   18.0610 C.3       1 GLC5        0.0000 
     51 CA         24.0869    8.7515   19.2452 C.3       1 GLC5        0.0000 
     52 CA         20.7274    6.2607   20.1313 C.3       1 GLC5        0.0000 
     53 CA         23.4545    6.6182   23.8937 C.3       1 GLC5        0.0000 
     54 CA         25.2780    7.4670   24.4700 C.3       2 GLP5        0.0000 
@<TRIPOS>BOND
@<TRIPOS>SUBSTRUCTURE
     1 GLC5        1 GROUP        1 X    GLC  0     ROOT GLC X 6
     2 GLP5        3 GROUP        1 Y    GLP  0     ROOT GLP Y 13
     3 GLL5        2 GROUP        1 Z    GLL  0     ROOT GLL Z 20
@<TRIPOS>SET

