#    Name: 1zoh_K44_1_ligand
#    Modification time : Tue Mar 25 11:57:15 2014

@<TRIPOS>MOLECULE
1zoh_K44_1_ligand
   24    26     1     0     0
SMALL
NO_CHARGES


@<TRIPOS>ATOM
      1 C1         22.7090    8.0550   18.1030 C.ar      1 K44501      0.0000 
      2 C2         21.6850    8.6710   18.8360 C.ar      1 K44501      0.0000 
      3 C3         21.3850    8.1850   20.1010 C.ar      1 K44501      0.0000 
      4 C4         23.4120    6.9930   18.6330 C.ar      1 K44501      0.0000 
      5 N5         23.6510    5.4830   20.5310 N.2       1 K44501      0.0000 
      6 C6         23.0910    6.5160   19.8870 C.ar      1 K44501      0.0000 
      7 C7         22.1160    7.1290   20.6350 C.ar      1 K44501      0.0000 
      8 N8         22.0990    6.4450   21.7640 N.pl3     1 K44501      0.0000 
      9 C9         22.9740    5.4850   21.6700 C.2       1 K44501      0.0000 
     10 N10        23.0490    4.7180   22.7770 N.3       1 K44501      0.0000 
     11 C11        23.6130    3.3820   22.7050 C.3       1 K44501      0.0000 
     12 C12        21.3670    6.4730   22.9940 C.3       1 K44501      0.0000 
     13 C14        21.8950    5.0660   23.6410 C.3       1 K44501      0.0000 
     14 BR10       24.7840    6.1340   17.6550 Br        1 K44501      0.0000 
     15 BR11       23.1670    8.7410   16.4070 Br        1 K44501      0.0000 
     16 BR12       20.7440   10.1060   18.0180 Br        1 K44501      0.0000 
     17 BR13       20.0340    9.0390   21.1120 Br        1 K44501      0.0000 
     18 H          20.3341    6.3609   22.8786 H         1 K44501      0.0000 
     19 H          21.6738    7.2213   23.6563 H         1 K44501      0.0000 
     20 H          22.1806    5.2829   24.6296 H         1 K44501      0.0000 
     21 H          21.1014    4.3819   23.5510 H         1 K44501      0.0000 
     22 H          24.5607    3.3956   22.3862 H         1 K44501      0.0000 
     23 H          23.6102    2.9291   23.5966 H         1 K44501      0.0000 
     24 H          23.1009    2.7960   22.0770 H         1 K44501      0.0000 
@<TRIPOS>BOND
     1    2    1 ar   
     2    4    1 ar   
     3   15    1 1    
     4    3    2 ar   
     5   16    2 1    
     6    7    3 ar   
     7   17    3 1    
     8    6    4 ar   
     9   14    4 1    
    10    6    5 1    
    11    9    5 2    
    12    7    6 ar   
    13    8    7 1    
    14    9    8 1    
    15   12    8 1    
    16   10    9 1    
    17   11   10 1    
    18   13   10 1    
    19   22   11 1    
    20   23   11 1    
    21   24   11 1    
    22   13   12 1    
    23   18   12 1    
    24   19   12 1    
    25   20   13 1    
    26   21   13 1    
@<TRIPOS>SUBSTRUCTURE
     1 K44501      1 GROUP   
@<TRIPOS>SET

