#    Name: 3piy_585_1_INTS_M
#    Modification time : Tue Mar 25 06:39:15 2014

@<TRIPOS>MOLECULE
3piy_585_1_INTS_M
   81     0     9     0     0
SMALL
NO_CHARGES


@<TRIPOS>ATOM
      1 O         -14.7745    8.2570  -12.1185 O.2       1 ALC1        0.0000 
      2 O         -14.2190    7.6380  -13.4350 O.2       7 ALL1        0.0000 
      3 O         -15.3300    8.8760  -10.8020 O.2       4 ALP1        0.0000 
      4 CA        -15.7140    8.8745  -13.8825 C.3       3 GLC5        0.0000 
      5 CA        -14.7430    7.0630  -14.6100 C.3       9 GLL5        0.0000 
      6 CA        -16.6850   10.6860  -13.1550 C.3       6 GLP5        0.0000 
      7 CA        -13.8270    6.3295  -12.7040 C.3       3 GLC5        0.0000 
      8 CA        -12.9110    5.5960  -10.7980 C.3       6 GLP5        0.0000 
      9 CA        -17.4400    4.1695  -15.9895 C.3       3 GLC5        0.0000 
     10 CA        -18.7070    5.6880  -16.8800 C.3       9 GLL5        0.0000 
     11 CA        -16.1730    2.6510  -15.0990 C.3       6 GLP5        0.0000 
     12 CA        -17.7545    4.0935  -19.4230 C.3       3 GLC5        0.0000 
     13 CA        -19.1340    5.6630  -19.1480 C.3       9 GLL5        0.0000 
     14 CA        -16.3750    2.5240  -19.6980 C.3       6 GLP5        0.0000 
     15 CA        -19.5190    3.7770  -17.9990 C.3       3 GLC5        0.0000 
     16 CA        -19.9040    1.8910  -16.8500 C.3       6 GLP5        0.0000 
     17 CA        -20.8880    6.4775  -20.0490 C.3       3 GLC5        0.0000 
     18 CA        -22.6420    7.2920  -20.9500 C.3       6 GLP5        0.0000 
     19 CA        -20.0700    7.1660  -18.2540 C.3       3 GLC5        0.0000 
     20 CA        -21.0060    8.6690  -17.3600 C.3       6 GLP5        0.0000 
     21 N         -21.4870    5.0855  -20.0290 N.am      2 SEC2        0.0000 
     22 N         -20.3940    5.3170  -18.9640 N.am      8 SEL2        0.0000 
     23 N         -22.5800    4.8540  -21.0940 N.am      5 SEP2        0.0000 
     24 CA        -16.9225    4.4550  -20.2780 C.3       3 GLC5        0.0000 
     25 CA        -17.4700    6.3860  -20.8580 C.3       9 GLL5        0.0000 
     26 CA        -18.0095    8.6535  -19.2995 C.3       3 GLC5        0.0000 
     27 CA        -16.7570    7.2910  -20.0820 C.3       9 GLL5        0.0000 
     28 CA        -19.2620   10.0160  -18.5170 C.3       6 GLP5        0.0000 
     29 O         -19.5825    6.1200  -21.5685 O.2       1 ALC1        0.0000 
     30 O         -18.7030    5.8510  -20.4550 O.2       7 ALL1        0.0000 
     31 O         -20.4620    6.3890  -22.6820 O.2       4 ALP1        0.0000 
     32 CA        -22.0415    3.9230  -18.9690 C.3       3 GLC5        0.0000 
     33 CA        -20.8690    5.1280  -17.7340 C.3       9 GLL5        0.0000 
     34 CA        -23.2140    2.7180  -20.2040 C.3       6 GLP5        0.0000 
     35 CA        -22.2295    6.1865  -18.7385 C.3       3 GLC5        0.0000 
     36 CA        -23.5900    7.2450  -19.7430 C.3       6 GLP5        0.0000 
     37 CA        -14.5500    4.5680  -15.8415 C.3       3 GLC5        0.0000 
     38 CA        -14.4070    6.2610  -16.8650 C.3       9 GLL5        0.0000 
     39 CA        -14.6930    2.8750  -14.8180 C.3       6 GLP5        0.0000 
     40 CA        -22.4745    5.9440  -15.3170 C.3       3 GLC5        0.0000 
     41 CA        -20.4590    5.1440  -15.3530 C.3       9 GLL5        0.0000 
     42 CA        -24.4900    6.7440  -15.2810 C.3       6 GLP5        0.0000 
     43 CA        -22.0695    4.0450  -14.5490 C.3       3 GLC5        0.0000 
     44 CA        -23.6800    2.9460  -13.7450 C.3       6 GLP5        0.0000 
     45 CA         -9.9875    9.6405  -13.4510 C.3       3 GLC5        0.0000 
     46 CA        -10.7150    8.2480  -14.6750 C.3       9 GLL5        0.0000 
     47 CA         -9.2600   11.0330  -12.2270 C.3       6 GLP5        0.0000 
     48 CA        -15.7905   11.0125  -19.5110 C.3       3 GLC5        0.0000 
     49 CA        -15.5710    9.2630  -18.7520 C.3       9 GLL5        0.0000 
     50 CA        -16.0100   12.7620  -20.2700 C.3       6 GLP5        0.0000 
     51 CA        -17.4165    9.6395  -18.6345 C.3       3 GLC5        0.0000 
     52 CA        -16.4145    9.9685  -17.1460 C.3       3 GLC5        0.0000 
     53 CA        -17.2580   10.6740  -15.5400 C.3       6 GLP5        0.0000 
     54 CA        -15.5525    4.0485  -23.1590 C.3       3 GLC5        0.0000 
     55 CA        -16.2620    5.4450  -24.6150 C.3       9 GLL5        0.0000 
     56 CA        -14.8430    2.6520  -21.7030 C.3       6 GLP5        0.0000 
     57 CA        -17.7835    3.9050  -24.0360 C.3       3 GLC5        0.0000 
     58 CA        -19.3050    2.3650  -23.4570 C.3       6 GLP5        0.0000 
     59 CA        -14.4160    5.3810  -14.3900 C.3       3 GLC5        0.0000 
     60 CA        -13.8910    6.8410  -15.7060 C.3       9 GLL5        0.0000 
     61 CA        -14.5150    3.8100  -13.6220 C.3       6 GLP5        0.0000 
     62 CA        -10.9608    6.4870  -15.7790 C.3       3 GLC5        0.0000 
     63 CA        -12.2420    8.2720  -14.8230 C.3       9 GLL5        0.0000 
     64 CA        -10.4430    4.7140  -16.8090 C.3       6 GLP5        0.0000 
     65 CA        -11.0663    7.2830  -13.1910 C.3       3 GLC5        0.0000 
     66 CA        -10.6540    6.3060  -11.6330 C.3       6 GLP5        0.0000 
     67 CA        -16.7757    8.1487  -22.4765 C.3       3 GLC5        0.0000 
     68 CA        -15.0390    7.4070  -21.7750 C.3       9 GLL5        0.0000 
     69 CA        -18.1510    9.3430  -22.7750 C.3       6 GLP5        0.0000 
     70 CA        -12.2960    5.6325  -16.5472 C.3       3 GLC5        0.0000 
     71 CA        -16.1580    4.3567  -15.7313 C.3       3 GLC5        0.0000 
     72 CA        -15.7490    5.9320  -16.9200 C.3       9 GLL5        0.0000 
     73 CA        -15.6058    4.4512  -22.0210 C.3       3 GLC5        0.0000 
     74 CA        -16.9750    5.9990  -22.0970 C.3       9 GLL5        0.0000 
     75 CA        -17.1498    8.4428  -21.5418 C.3       3 GLC5        0.0000 
     76 CA        -17.6867    7.7677  -22.1262 C.3       3 GLC5        0.0000 
     77 CA        -14.5270    4.6867  -18.1457 C.3       3 GLC5        0.0000 
     78 CA        -13.9760    3.2770  -19.3990 C.3       6 GLP5        0.0000 
     79 CA        -20.0968    3.5601  -16.5750 C.3       3 GLC5        0.0000 
     80 CA        -20.6478    6.9491  -16.8300 C.3       3 GLC5        0.0000 
     81 CA        -20.0350    5.3130  -16.6400 C.3       9 GLL5        0.0000 
@<TRIPOS>BOND
@<TRIPOS>SUBSTRUCTURE
     1 ALC1        1 GROUP        1 X    ALC  0     ROOT ALC X 1
     2 SEC2       21 GROUP        1 X    SEC  0     **** SEC X 2
     3 GLC5        4 GROUP        1 X    GLC  0     **** GLC X 6
     4 ALP1        3 GROUP        1 Y    ALP  0     ROOT ALP Y 8
     5 SEP2       23 GROUP        1 Y    SEP  0     **** SEP Y 9
     6 GLP5        6 GROUP        1 Y    GLP  0     **** GLP Y 13
     7 ALL1        2 GROUP        1 Z    ALL  0     ROOT ALL Z 15
     8 SEL2       22 GROUP        1 Z    SEL  0     **** SEL Z 16
     9 GLL5        5 GROUP        1 Z    GLL  0     **** GLL Z 20
@<TRIPOS>SET

