#    Name: 3piy_585_1_ligand
#    Modification time : Tue Mar 25 06:39:15 2014

@<TRIPOS>MOLECULE
3piy_585_1_ligand
   57    60     1     0     0
SMALL
NO_CHARGES


@<TRIPOS>ATOM
      1 N1        -14.2190    7.6380  -13.4350 N.am      1 5851        0.0000 
      2 N2        -18.2980    5.8380  -18.1290 N.ar      1 5851        0.0000 
      3 C3        -14.7430    7.0630  -14.6100 C.ar      1 5851        0.0000 
      4 C4        -18.7070    5.6880  -16.8800 C.ar      1 5851        0.0000 
      5 C5        -12.9830    8.2340  -13.4950 C.2       1 5851        0.0000 
      6 N6        -16.0250    6.7300  -14.6950 N.ar      1 5851        0.0000 
      7 C7        -19.1340    5.6630  -19.1480 C.ar      1 5851        0.0000 
      8 O8        -12.5700    7.1580  -15.6670 O.3       1 5851        0.0000 
      9 C9        -12.2420    8.2720  -14.8230 C.3       1 5851        0.0000 
     10 N10       -17.8790    5.8620  -15.7850 N.pl3     1 5851        0.0000 
     11 C11       -20.0350    5.3130  -16.6400 C.ar      1 5851        0.0000 
     12 C12       -15.0390    7.4070  -21.7750 C.ar      1 5851        0.0000 
     13 C13       -13.8910    6.8410  -15.7060 C.ar      1 5851        0.0000 
     14 C14       -16.5370    6.1930  -15.8070 C.ar      1 5851        0.0000 
     15 C15       -15.7620    6.5020  -22.5810 C.ar      1 5851        0.0000 
     16 C16       -15.5400    7.7940  -20.5350 C.ar      1 5851        0.0000 
     17 N17       -20.3940    5.3170  -18.9640 N.ar      1 5851        0.0000 
     18 C18       -17.4700    6.3860  -20.8580 C.ar      1 5851        0.0000 
     19 C19       -16.9750    5.9990  -22.0970 C.ar      1 5851        0.0000 
     20 C20       -16.7570    7.2910  -20.0820 C.ar      1 5851        0.0000 
     21 N21       -18.7030    5.8510  -20.4550 N.pl3     1 5851        0.0000 
     22 C22       -20.8690    5.1280  -17.7340 C.ar      1 5851        0.0000 
     23 O23       -12.5060    8.7620  -12.4990 O.2       1 5851        0.0000 
     24 C24       -14.4070    6.2610  -16.8650 C.ar      1 5851        0.0000 
     25 F25       -20.4590    5.1440  -15.3530 F         1 5851        0.0000 
     26 C26       -15.7490    5.9320  -16.9200 C.ar      1 5851        0.0000 
     27 O27       -13.8490    7.9400  -22.1790 O.3       1 5851        0.0000 
     28 O28       -14.7930    8.6670  -19.8020 O.3       1 5851        0.0000 
     29 O29       -15.2720    6.1180  -23.8120 O.3       1 5851        0.0000 
     30 C30       -12.6120    9.5910  -15.5020 C.3       1 5851        0.0000 
     31 C31       -10.7150    8.2480  -14.6750 C.3       1 5851        0.0000 
     32 C32       -12.7680    7.1930  -21.6020 C.3       1 5851        0.0000 
     33 C33       -15.5710    9.2630  -18.7520 C.3       1 5851        0.0000 
     34 C34       -16.2620    5.4450  -24.6150 C.3       1 5851        0.0000 
     35 H         -14.7557    7.6039  -12.5721 H         1 5851        0.0000 
     36 H         -18.3277    5.7251  -14.8138 H         1 5851        0.0000 
     37 H         -17.5092    5.3273  -22.6755 H         1 5851        0.0000 
     38 H         -17.1277    7.5914  -19.1701 H         1 5851        0.0000 
     39 H         -19.3758    5.5599  -21.2381 H         1 5851        0.0000 
     40 H         -21.8518    4.8443  -17.5680 H         1 5851        0.0000 
     41 H         -13.7926    6.0826  -17.6654 H         1 5851        0.0000 
     42 H         -16.1515    5.5091  -17.7541 H         1 5851        0.0000 
     43 H         -12.3511   10.3806  -14.9466 H         1 5851        0.0000 
     44 H         -12.1587    9.6928  -16.3875 H         1 5851        0.0000 
     45 H         -13.5959    9.6608  -15.6667 H         1 5851        0.0000 
     46 H         -10.2554    8.2693  -15.5629 H         1 5851        0.0000 
     47 H         -10.3801    9.0323  -14.1527 H         1 5851        0.0000 
     48 H         -10.4006    7.4250  -14.2019 H         1 5851        0.0000 
     49 H         -11.8776    7.5584  -21.8734 H         1 5851        0.0000 
     50 H         -12.7984    7.2074  -20.6026 H         1 5851        0.0000 
     51 H         -12.7887    6.2332  -21.8820 H         1 5851        0.0000 
     52 H         -15.0311    9.9062  -18.2090 H         1 5851        0.0000 
     53 H         -16.3548    9.7690  -19.1120 H         1 5851        0.0000 
     54 H         -15.9306    8.5761  -18.1205 H         1 5851        0.0000 
     55 H         -15.8957    5.1721  -25.5046 H         1 5851        0.0000 
     56 H         -16.5997    4.6155  -24.1701 H         1 5851        0.0000 
     57 H         -17.0558    6.0272  -24.7910 H         1 5851        0.0000 
@<TRIPOS>BOND
     1    3    1 1    
     2    5    1 am   
     3   35    1 1    
     4    4    2 ar   
     5    7    2 ar   
     6    6    3 ar   
     7   13    3 ar   
     8   10    4 1    
     9   11    4 ar   
    10    9    5 1    
    11   23    5 2    
    12   14    6 ar   
    13   17    7 ar   
    14   21    7 1    
    15    9    8 1    
    16   13    8 1    
    17   30    9 1    
    18   31    9 1    
    19   14   10 1    
    20   36   10 1    
    21   22   11 ar   
    22   25   11 1    
    23   15   12 ar   
    24   16   12 ar   
    25   27   12 1    
    26   24   13 ar   
    27   26   14 ar   
    28   19   15 ar   
    29   29   15 1    
    30   20   16 ar   
    31   28   16 1    
    32   22   17 ar   
    33   19   18 ar   
    34   20   18 ar   
    35   21   18 1    
    36   37   19 1    
    37   38   20 1    
    38   39   21 1    
    39   40   22 1    
    40   26   24 ar   
    41   41   24 1    
    42   42   26 1    
    43   32   27 1    
    44   33   28 1    
    45   34   29 1    
    46   43   30 1    
    47   44   30 1    
    48   45   30 1    
    49   46   31 1    
    50   47   31 1    
    51   48   31 1    
    52   49   32 1    
    53   50   32 1    
    54   51   32 1    
    55   52   33 1    
    56   53   33 1    
    57   54   33 1    
    58   55   34 1    
    59   56   34 1    
    60   57   34 1    
@<TRIPOS>SUBSTRUCTURE
     1 5851        1 GROUP   
@<TRIPOS>SET

