#    Name: 1rj9_GCP_2_INTS_M
#    Modification time : Tue Mar 25 00:45:04 2014

@<TRIPOS>MOLECULE
1rj9_GCP_2_INTS_M
   80     0    15     0     0
SMALL
NO_CHARGES


@<TRIPOS>ATOM
      1 NZ         36.0265   10.9525   35.9105 N.4       3 LYC4        0.0000 
      2 NZ         34.9380   10.7260   35.0230 N.4      13 LYL4        0.0000 
      3 NZ         37.1150   11.1790   36.7980 N.4       8 LYP4        0.0000 
      4 N          35.7810    9.9775   34.1610 N.am      2 SEC2        0.0000 
      5 N          34.9380   10.7260   35.0230 N.am     12 SEL2        0.0000 
      6 N          36.6240    9.2290   33.2990 N.am      7 SEP2        0.0000 
      7 N          36.0265   10.9525   35.9105 N.am      2 SEC2        0.0000 
      8 N          37.1150   11.1790   36.7980 N.am      7 SEP2        0.0000 
      9 NZ         31.9855    8.7880   34.4640 N.4       3 LYC4        0.0000 
     10 NZ         32.6890    9.9820   34.4710 N.4      13 LYL4        0.0000 
     11 NZ         30.0420    7.2380   34.7640 N.4       8 LYP4        0.0000 
     12 N          31.9855    8.7880   34.4640 N.am      2 SEC2        0.0000 
     13 N          32.6890    9.9820   34.4710 N.am     12 SEL2        0.0000 
     14 N          31.2820    7.5940   34.4570 N.am      7 SEP2        0.0000 
     15 NZ         35.1480   10.9780   36.7745 N.4       3 LYC4        0.0000 
     16 NZ         33.1810   10.7770   36.7510 N.4      13 LYL4        0.0000 
     17 Zn         33.0645   10.1250   37.7030 Zn        4 ZIC7        0.0000 
     18 Zn         33.1810   10.7770   36.7510 Zn       14 ZIL7        0.0000 
     19 Zn         32.9480    9.4730   38.6550 Zn        9 ZIP7        0.0000 
     20 CA         35.5790    8.0765   34.5725 C.3       5 GLC5        0.0000 
     21 CA         34.3010    8.3590   35.9060 C.3      15 GLL5        0.0000 
     22 CA         36.8570    7.7940   33.2390 C.3      10 GLP5        0.0000 
     23 Zn         33.7955    8.7650   38.4585 Zn        4 ZIC7        0.0000 
     24 Zn         34.6430    8.0570   38.2620 Zn       14 ZIL7        0.0000 
     25 N          34.9995    7.9310   39.6870 N.am      2 SEC2        0.0000 
     26 N          34.6430    8.0570   38.2620 N.am     12 SEL2        0.0000 
     27 N          35.3560    7.8050   41.1120 N.am      7 SEP2        0.0000 
     28 NZ         36.9595    9.8715   36.8705 N.4       3 LYC4        0.0000 
     29 NZ         36.8040    8.5640   36.9430 N.4      13 LYL4        0.0000 
     30 N          37.7705    7.6040   36.9840 N.am      2 SEC2        0.0000 
     31 N          36.8040    8.5640   36.9430 N.am     12 SEL2        0.0000 
     32 N          38.7370    6.6440   37.0250 N.am      7 SEP2        0.0000 
     33 N          37.3400    8.1405   38.1945 N.am      2 SEC2        0.0000 
     34 N          37.8760    7.7170   39.4460 N.am      7 SEP2        0.0000 
     35 N          36.9595    9.8715   36.8705 N.am      2 SEC2        0.0000 
     36 N          35.0765    5.0870   40.4780 N.am      2 SEC2        0.0000 
     37 N          35.0470    5.1000   39.0750 N.am     12 SEL2        0.0000 
     38 N          35.1060    5.0740   41.8810 N.am      7 SEP2        0.0000 
     39 N          34.9775    3.8980   39.6990 N.am      2 SEC2        0.0000 
     40 N          34.9080    2.6960   40.3230 N.am      7 SEP2        0.0000 
     41 N          32.0280    4.9035   38.1460 N.am      2 SEC2        0.0000 
     42 N          33.2290    5.2970   37.3690 N.am     12 SEL2        0.0000 
     43 N          30.8270    4.5100   38.9230 N.am      7 SEP2        0.0000 
     44 CA         37.2680    4.6475   37.0695 C.3       5 GLC5        0.0000 
     45 CA         36.0880    3.5430   35.9950 C.3      15 GLL5        0.0000 
     46 CA         38.4480    5.7520   38.1440 C.3      10 GLP5        0.0000 
     47 CA         38.0600    3.1055   35.3215 C.3       5 GLC5        0.0000 
     48 CA         40.0320    2.6680   34.6480 C.3      10 GLP5        0.0000 
     49 CA         35.7960    3.1210   33.4140 C.3       5 GLC5        0.0000 
     50 CA         35.6020    2.2680   35.3600 C.3      15 GLL5        0.0000 
     51 CA         35.9900    3.9740   31.4680 C.3      10 GLP5        0.0000 
     52 CA         32.5500    1.3625   36.4310 C.3       5 GLC5        0.0000 
     53 CA         34.4810    1.5560   36.1290 C.3      15 GLL5        0.0000 
     54 CA         30.6190    1.1690   36.7330 C.3      10 GLP5        0.0000 
     55 N          34.7385   -0.6850   34.7110 N.am      2 SEC2        0.0000 
     56 N          33.9350    0.5460   35.2810 N.am     12 SEL2        0.0000 
     57 N          35.5420   -1.9160   34.1410 N.am      7 SEP2        0.0000 
     58 O          33.9715   -0.0705   39.0010 O.2       1 ALC1        0.0000 
     59 O          34.5240   -0.3310   37.7730 O.2      11 ALL1        0.0000 
     60 O          33.4190    0.1900   40.2290 O.2       6 ALP1        0.0000 
     61 CA         36.7225    0.1575   34.9350 C.3       5 GLC5        0.0000 
     62 CA         36.5080    0.5330   36.6910 C.3      15 GLL5        0.0000 
     63 CA         36.9370   -0.2180   33.1790 C.3      10 GLP5        0.0000 
     64 N          42.6390    0.1705   38.5840 N.am      2 SEC2        0.0000 
     65 N          41.6400   -0.3970   39.6020 N.am     12 SEL2        0.0000 
     66 N          43.6380    0.7380   37.5660 N.am      7 SEP2        0.0000 
     67 O          41.8740   -2.6905   37.8695 O.2       1 ALC1        0.0000 
     68 O          40.7060   -1.8500   38.1320 O.2      11 ALL1        0.0000 
     69 O          43.0420   -3.5310   37.6070 O.2       6 ALP1        0.0000 
     70 O          40.7670   -4.3480   37.0825 O.2       1 ALC1        0.0000 
     71 O          39.8620   -3.4420   36.6490 O.2      11 ALL1        0.0000 
     72 O          41.6720   -5.2540   37.5160 O.2       6 ALP1        0.0000 
     73 O          41.4520   -3.4865   37.1280 O.2       1 ALC1        0.0000 
     74 CA         35.9892    0.8470   34.4617 C.3       5 GLC5        0.0000 
     75 CA         40.3765    0.4345   36.7998 C.3       5 GLC5        0.0000 
     76 CA         38.6240   -0.3190   37.6590 C.3      15 GLL5        0.0000 
     77 CA         41.6630    0.9440   35.4860 C.3      10 GLP5        0.0000 
     78 CA         38.0740   -1.5955   39.0742 C.3       5 GLC5        0.0000 
     79 CA         39.5560    0.1690   38.5680 C.3      15 GLL5        0.0000 
     80 CA         37.0580   -3.1160   40.0350 C.3      10 GLP5        0.0000 
@<TRIPOS>BOND
@<TRIPOS>SUBSTRUCTURE
     1 ALC1       58 GROUP        1 X    ALC  0     ROOT ALC X 1
     2 SEC2        4 GROUP        1 X    SEC  0     **** SEC X 2
     3 LYC4        1 GROUP        1 X    LYC  0     **** LYC X 4
     4 ZIC7       17 GROUP        1 X    ZIC  0     **** ZIC X 5
     5 GLC5       20 GROUP        1 X    GLC  0     **** GLC X 6
     6 ALP1       60 GROUP        1 Y    ALP  0     ROOT ALP Y 8
     7 SEP2        6 GROUP        1 Y    SEP  0     **** SEP Y 9
     8 LYP4        3 GROUP        1 Y    LYP  0     **** LYP Y 11
     9 ZIP7       19 GROUP        1 Y    ZIP  0     **** ZIP Y 12
    10 GLP5       22 GROUP        1 Y    GLP  0     **** GLP Y 13
    11 ALL1       59 GROUP        1 Z    ALL  0     ROOT ALL Z 15
    12 SEL2        5 GROUP        1 Z    SEL  0     **** SEL Z 16
    13 LYL4        2 GROUP        1 Z    LYL  0     **** LYL Z 18
    14 ZIL7       18 GROUP        1 Z    ZIL  0     **** ZIL Z 19
    15 GLL5       21 GROUP        1 Z    GLL  0     **** GLL Z 20
@<TRIPOS>SET

