#    Name: 1rj9_GCP_2_ligand
#    Modification time : Tue Mar 25 00:45:04 2014

@<TRIPOS>MOLECULE
1rj9_GCP_2_ligand
   46    48     1     0     0
SMALL
NO_CHARGES


@<TRIPOS>ATOM
      1 PG         33.7930    9.8990   35.5550 P.3       1 GCP600      0.0000 
      2 O1G        34.9380   10.7260   35.0230 O.co2     1 GCP600      0.0000 
      3 O2G        32.6890    9.9820   34.4710 O.co2     1 GCP600      0.0000 
      4 O3G        33.1810   10.7770   36.7510 O.co2     1 GCP600      0.0000 
      5 C3B        34.3010    8.3590   35.9060 C.3       1 GCP600      0.0000 
      6 PB         35.4070    8.0030   37.0450 P.3       1 GCP600      0.0000 
      7 O1B        34.6430    8.0570   38.2620 O.co2     1 GCP600      0.0000 
      8 O2B        36.8040    8.5640   36.9430 O.co2     1 GCP600      0.0000 
      9 O3A        35.4370    6.4690   36.8480 O.3       1 GCP600      0.0000 
     10 PA         34.7000    5.2720   37.6170 P.3       1 GCP600      0.0000 
     11 O1A        35.0470    5.1000   39.0750 O.co2     1 GCP600      0.0000 
     12 O2A        33.2290    5.2970   37.3690 O.co2     1 GCP600      0.0000 
     13 O5'        34.9770    4.0950   36.6230 O.3       1 GCP600      0.0000 
     14 C5'        36.0880    3.5430   35.9950 C.3       1 GCP600      0.0000 
     15 C4'        35.6020    2.2680   35.3600 C.3       1 GCP600      0.0000 
     16 O4'        36.7730    1.5720   35.7840 O.3       1 GCP600      0.0000 
     17 C3'        34.4810    1.5560   36.1290 C.3       1 GCP600      0.0000 
     18 O3'        33.9350    0.5460   35.2810 O.3       1 GCP600      0.0000 
     19 C2'        35.1510    0.7980   37.2600 C.3       1 GCP600      0.0000 
     20 O2'        34.5240   -0.3310   37.7730 O.3       1 GCP600      0.0000 
     21 C1'        36.5080    0.5330   36.6910 C.3       1 GCP600      0.0000 
     22 N9         37.6600    0.6290   37.5640 N.pl3     1 GCP600      0.0000 
     23 C8         38.0270    1.6530   38.4290 C.2       1 GCP600      0.0000 
     24 N7         39.1620    1.4250   39.0540 N.2       1 GCP600      0.0000 
     25 C5         39.5560    0.1690   38.5680 C.2       1 GCP600      0.0000 
     26 C6         40.7050   -0.6420   38.8430 C.2       1 GCP600      0.0000 
     27 O6         41.6400   -0.3970   39.6020 O.2       1 GCP600      0.0000 
     28 N1         40.7060   -1.8500   38.1320 N.am      1 GCP600      0.0000 
     29 C2         39.7150   -2.2490   37.2450 C.2       1 GCP600      0.0000 
     30 N2         39.8620   -3.4420   36.6490 N.pl3     1 GCP600      0.0000 
     31 N3         38.6430   -1.4980   36.9750 N.2       1 GCP600      0.0000 
     32 C4         38.6240   -0.3190   37.6590 C.2       1 GCP600      0.0000 
     33 H          34.6616    7.9162   34.9342 H         1 GCP600      0.0000 
     34 H          33.3717    7.7654   36.1397 H         1 GCP600      0.0000 
     35 H          36.8834    3.2912   36.6914 H         1 GCP600      0.0000 
     36 H          36.4877    4.1798   35.2102 H         1 GCP600      0.0000 
     37 H          35.5069    2.3159   34.3912 H         1 GCP600      0.0000 
     38 H          33.7986    2.2250   36.4915 H         1 GCP600      0.0000 
     39 H          35.3319    1.5738   38.0545 H         1 GCP600      0.0000 
     40 H          36.5160   -0.4008   36.1585 H         1 GCP600      0.0000 
     41 H          37.4593    2.4650   38.5379 H         1 GCP600      0.0000 
     42 H          41.5270   -2.5043   38.2866 H         1 GCP600      0.0000 
     43 H          39.1435   -3.7033   36.0044 H         1 GCP600      0.0000 
     44 H          40.6769   -3.9632   36.9027 H         1 GCP600      0.0000 
     45 H          33.4366   -0.0658   35.8952 H         1 GCP600      0.0000 
     46 H          34.1870   -0.0534   38.6727 H         1 GCP600      0.0000 
@<TRIPOS>BOND
     1    2    1 ar   
     2    3    1 ar   
     3    4    1 ar   
     4    5    1 1    
     5    6    5 1    
     6   33    5 1    
     7   34    5 1    
     8    7    6 ar   
     9    8    6 ar   
    10    9    6 1    
    11   10    9 1    
    12   11   10 ar   
    13   12   10 ar   
    14   13   10 1    
    15   14   13 1    
    16   15   14 1    
    17   35   14 1    
    18   36   14 1    
    19   16   15 1    
    20   17   15 1    
    21   37   15 1    
    22   21   16 1    
    23   18   17 1    
    24   19   17 1    
    25   38   17 1    
    26   45   18 1    
    27   20   19 1    
    28   21   19 1    
    29   39   19 1    
    30   46   20 1    
    31   22   21 1    
    32   40   21 1    
    33   23   22 1    
    34   32   22 1    
    35   24   23 2    
    36   41   23 1    
    37   25   24 1    
    38   26   25 1    
    39   32   25 2    
    40   27   26 2    
    41   28   26 am   
    42   29   28 1    
    43   42   28 1    
    44   30   29 1    
    45   31   29 2    
    46   43   30 1    
    47   44   30 1    
    48   32   31 1    
@<TRIPOS>SUBSTRUCTURE
     1 GCP600      1 GROUP   
@<TRIPOS>SET

