#    Name: 1NT1_1_CAVITY_N1_ALL.mol2
#    Modification time : Mon Mar 10 20:15:54 2014

@<TRIPOS>MOLECULE
1NT1_1_CAVITY_N1_ALL.mol2
  112     0     7     0     0
SMALL
NO_CHARGES


@<TRIPOS>ATOM
      1 OG         19.7942  -16.2144   23.3155 O.2       1 SER1        0.0000 
      2 OG         20.6027  -16.2161   22.0521 O.2       1 SER1        0.0000 
      3 CZ         19.3869  -16.6252   21.2746 C.ar      5 PHE5        0.0000 
      4 O          12.0982  -18.2566   21.9549 O.2       2 ALA2        0.0000 
      5 CA         10.8824  -18.6657   21.1774 C.3       6 GLY6        0.0000 
      6 N          10.4751  -19.0764   19.1364 N.2       2 ALA2        0.0000 
      7 DU         19.4505  -14.7713   23.0937 H         7 CUB7        0.0000 
      8 OG         20.2590  -14.7730   21.8302 O.2       1 SER1        0.0000 
      9 N          17.4261  -15.1788   23.5796 N.2       2 ALA2        0.0000 
     10 DU         18.2347  -15.1804   22.3162 H         7 CUB7        0.0000 
     11 CZ         19.0432  -15.1820   21.0527 C.ar      5 PHE5        0.0000 
     12 CZ         19.8517  -15.1837   19.7893 C.ar      5 PHE5        0.0000 
     13 N          17.0189  -15.5895   21.5387 N.2       2 ALA2        0.0000 
     14 CZ         17.8274  -15.5911   20.2752 C.ar      5 PHE5        0.0000 
     15 N          14.9946  -15.9969   22.0246 N.2       2 ALA2        0.0000 
     16 DU         15.8031  -15.9986   20.7612 H         7 CUB7        0.0000 
     17 CZ         16.6116  -16.0002   19.4977 C.ar      5 PHE5        0.0000 
     18 O          12.9703  -16.4044   22.5105 O.2       2 ALA2        0.0000 
     19 N          13.7788  -16.4060   21.2471 N.2       2 ALA2        0.0000 
     20 DU         14.5873  -16.4077   19.9837 H         7 CUB7        0.0000 
     21 O          11.7545  -16.8135   21.7330 O.2       2 ALA2        0.0000 
     22 DU         12.5630  -16.8151   20.4696 H         7 CUB7        0.0000 
     23 CA         10.5387  -17.2226   20.9555 C.3       6 GLY6        0.0000 
     24 CA         11.3472  -17.2242   19.6921 C.3       6 GLY6        0.0000 
     25 NZ         12.1557  -17.2259   18.4287 N.2       4 LYS4        0.0000 
     26 N          10.1314  -17.6333   18.9146 N.2       2 ALA2        0.0000 
     27 CA         19.9153  -13.3298   21.6084 C.3       6 GLY6        0.0000 
     28 CZ         20.7238  -13.3315   20.3449 C.ar      5 PHE5        0.0000 
     29 CA         17.0824  -13.7356   23.3578 C.3       6 GLY6        0.0000 
     30 CA         17.8909  -13.7373   22.0943 C.3       6 GLY6        0.0000 
     31 DU         18.6995  -13.7389   20.8309 H         7 CUB7        0.0000 
     32 CZ         19.5080  -13.7405   19.5674 C.ar      5 PHE5        0.0000 
     33 CZ         20.3165  -13.7422   18.3040 C.ar      5 PHE5        0.0000 
     34 N          15.8666  -14.1447   22.5803 N.2       2 ALA2        0.0000 
     35 DU         16.6752  -14.1464   21.3168 H         7 CUB7        0.0000 
     36 CZ         17.4837  -14.1480   20.0534 C.ar      5 PHE5        0.0000 
     37 CZ         18.2922  -14.1496   18.7899 C.ar      5 PHE5        0.0000 
     38 N          14.6508  -14.5538   21.8028 N.2       2 ALA2        0.0000 
     39 DU         15.4594  -14.5554   20.5393 H         7 CUB7        0.0000 
     40 CZ         16.2679  -14.5571   19.2759 C.ar      5 PHE5        0.0000 
     41 N          12.6265  -14.9613   22.2887 N.2       2 ALA2        0.0000 
     42 DU         13.4351  -14.9629   21.0253 H         7 CUB7        0.0000 
     43 DU         14.2436  -14.9645   19.7618 H         7 CUB7        0.0000 
     44 CZ         15.0521  -14.9662   18.4984 C.ar      5 PHE5        0.0000 
     45 CZ         15.8606  -14.9678   17.2349 C.ar      5 PHE5        0.0000 
     46 CA         11.4107  -15.3703   21.5112 C.3       6 GLY6        0.0000 
     47 O          12.2193  -15.3720   20.2478 O.2       2 ALA2        0.0000 
     48 CA         13.0278  -15.3736   18.9843 C.3       6 GLY6        0.0000 
     49 CA         14.6448  -15.3769   16.4574 C.3       6 GLY6        0.0000 
     50 NZ         15.4534  -15.3786   15.1940 N.2       4 LYS4        0.0000 
     51 CA         11.0035  -15.7811   19.4703 C.3       6 GLY6        0.0000 
     52 CA         20.3801  -11.8883   20.1231 C.3       6 GLY6        0.0000 
     53 N          17.5472  -12.2941   21.8725 N.2       2 ALA2        0.0000 
     54 N          18.3557  -12.2958   20.6090 N.2       2 ALA2        0.0000 
     55 CA         19.1643  -12.2974   19.3456 C.3       6 GLY6        0.0000 
     56 CA         19.9728  -12.2991   18.0822 C.3       6 GLY6        0.0000 
     57 CA         15.5229  -12.7016   22.3584 C.3       6 GLY6        0.0000 
     58 N          16.3314  -12.7032   21.0950 N.2       2 ALA2        0.0000 
     59 N          17.1400  -12.7049   19.8315 N.2       2 ALA2        0.0000 
     60 CA         17.9485  -12.7065   18.5681 C.3       6 GLY6        0.0000 
     61 CZ         18.7570  -12.7081   17.3047 C.ar      5 PHE5        0.0000 
     62 O          13.4986  -13.1090   22.8444 O.2       2 ALA2        0.0000 
     63 O          14.3071  -13.1107   21.5809 O.2       2 ALA2        0.0000 
     64 DU         15.1156  -13.1123   20.3175 H         7 CUB7        0.0000 
     65 OG         15.9242  -13.1140   19.0540 O.2       1 SER1        0.0000 
     66 CZ         16.7327  -13.1156   17.7906 C.ar      5 PHE5        0.0000 
     67 CZ         17.5412  -13.1172   16.5272 C.ar      5 PHE5        0.0000 
     68 OD1        18.3498  -13.1189   15.2637 O.3       3 ASP3        0.0000 
     69 N          11.4743  -13.5165   23.3303 N.2       2 ALA2        0.0000 
     70 N          12.2828  -13.5181   22.0669 N.2       2 ALA2        0.0000 
     71 O          13.0913  -13.5198   20.8034 O.2       2 ALA2        0.0000 
     72 CA         13.8999  -13.5214   19.5400 C.3       6 GLY6        0.0000 
     73 CA         14.7084  -13.5230   18.2765 C.3       6 GLY6        0.0000 
     74 CA         15.5169  -13.5247   17.0131 C.3       6 GLY6        0.0000 
     75 CZ         16.3254  -13.5263   15.7497 C.ar      5 PHE5        0.0000 
     76 CZ         17.1340  -13.5280   14.4862 C.ar      5 PHE5        0.0000 
     77 CA         11.0670  -13.9272   21.2894 C.3       6 GLY6        0.0000 
     78 CA         15.1097  -13.9354   14.9722 C.3       6 GLY6        0.0000 
     79 NZ         15.9182  -13.9371   13.7087 N.2       4 LYS4        0.0000 
     80 N          15.1792  -11.2584   22.1366 N.2       2 ALA2        0.0000 
     81 N          15.9877  -11.2601   20.8731 N.2       2 ALA2        0.0000 
     82 O          12.3463  -11.6643   23.8860 O.2       2 ALA2        0.0000 
     83 O          13.1549  -11.6659   22.6225 O.2       2 ALA2        0.0000 
     84 OG         13.9634  -11.6675   21.3591 O.2       1 SER1        0.0000 
     85 OG         14.7719  -11.6692   20.0956 O.2       1 SER1        0.0000 
     86 OG         16.3890  -11.6725   17.5688 O.2       1 SER1        0.0000 
     87 CA         17.1975  -11.6741   16.3053 C.3       6 GLY6        0.0000 
     88 N          11.1306  -12.0733   23.1085 N.2       2 ALA2        0.0000 
     89 CA         11.9391  -12.0750   21.8450 C.3       6 GLY6        0.0000 
     90 N          12.7476  -12.0766   20.5816 N.2       2 ALA2        0.0000 
     91 CA         13.5561  -12.0783   19.3181 C.3       6 GLY6        0.0000 
     92 OG         14.3647  -12.0799   18.0547 O.2       1 SER1        0.0000 
     93 OG         15.1732  -12.0816   16.7913 O.2       1 SER1        0.0000 
     94 DU         15.9817  -12.0832   15.5278 H         7 CUB7        0.0000 
     95 OD1        16.7902  -12.0848   14.2644 O.3       3 ASP3        0.0000 
     96 CA         13.9574  -12.4906   16.0138 C.3       6 GLY6        0.0000 
     97 CA         14.7659  -12.4923   14.7503 C.3       6 GLY6        0.0000 
     98 N          15.5745  -12.4939   13.4869 N.2       2 ALA2        0.0000 
     99 O          14.0269   -9.8137   23.1782 O.2       2 ALA2        0.0000 
    100 CA         11.1941  -10.2195   24.9276 C.3       6 GLY6        0.0000 
    101 N          12.0026  -10.2211   23.6641 N.2       2 ALA2        0.0000 
    102 CA         12.8111  -10.2228   22.4007 C.3       6 GLY6        0.0000 
    103 OG         13.6197  -10.2244   21.1372 O.2       1 SER1        0.0000 
    104 OG         16.8538  -10.2310   16.0835 O.2       1 SER1        0.0000 
    105 OD1        17.6623  -10.2326   14.8200 O.3       3 ASP3        0.0000 
    106 CA         10.7868  -10.6302   22.8866 C.3       6 GLY6        0.0000 
    107 N          11.5954  -10.6318   21.6232 N.2       2 ALA2        0.0000 
    108 N          12.4039  -10.6335   20.3597 N.2       2 ALA2        0.0000 
    109 OG         14.8295  -10.6384   16.5694 O.2       1 SER1        0.0000 
    110 N          15.6380  -10.6401   15.3060 N.2       2 ALA2        0.0000 
    111 N          16.4465  -10.6417   14.0425 N.2       2 ALA2        0.0000 
    112 O          14.4222  -11.0491   14.5285 O.2       2 ALA2        0.0000 
@<TRIPOS>BOND
@<TRIPOS>SUBSTRUCTURE
     1 SER1        1 GROUP   
     2 ALA2        4 GROUP   
     3 ASP3       68 GROUP   
     4 LYS4       25 GROUP   
     5 PHE5        3 GROUP   
     6 GLY6        5 GROUP   
     7 CUB7        7 GROUP   
@<TRIPOS>SET

