#    Name: 1nt1_T76_1_INTS_M
#    Modification time : Mon Mar 24 18:53:30 2014

@<TRIPOS>MOLECULE
1nt1_T76_1_INTS_M
   81     0     9     0     0
SMALL
NO_CHARGES


@<TRIPOS>ATOM
      1 CA         14.7185   -9.7415   19.3410 C.3       3 GLC5        0.0000 
      2 CA         14.1440  -11.3850   20.6840 C.3       9 GLL5        0.0000 
      3 CA         15.2930   -8.0980   17.9980 C.3       6 GLP5        0.0000 
      4 O          16.2370  -10.4720   21.6995 O.2       1 ALC1        0.0000 
      5 O          15.5830  -11.5230   20.9480 O.2       7 ALL1        0.0000 
      6 O          16.8910   -9.4210   22.4510 O.2       4 ALP1        0.0000 
      7 CA         19.2155  -11.8130   21.9305 C.3       3 GLC5        0.0000 
      8 CA         17.6880  -12.7240   20.8980 C.3       9 GLL5        0.0000 
      9 CA         20.7430  -10.9020   22.9630 C.3       6 GLP5        0.0000 
     10 CA         17.6075  -12.1085   22.9055 C.3       3 GLC5        0.0000 
     11 CA         17.5270  -11.4930   24.9130 C.3       6 GLP5        0.0000 
     12 CA         21.2350  -14.3635   19.2730 C.3       3 GLC5        0.0000 
     13 CA         19.7640  -13.5550   19.9390 C.3       9 GLL5        0.0000 
     14 CA         22.7060  -15.1720   18.6070 C.3       6 GLP5        0.0000 
     15 CA         21.2190  -14.7045   20.4105 C.3       3 GLC5        0.0000 
     16 CA         19.2630  -14.5920   20.9510 C.3       9 GLL5        0.0000 
     17 CA         23.1750  -14.8170   19.8700 C.3       6 GLP5        0.0000 
     18 O          15.8265  -16.0230   24.0580 O.2       1 ALC1        0.0000 
     19 O          16.8250  -16.6570   23.2880 O.2       7 ALL1        0.0000 
     20 O          14.8280  -15.3890   24.8280 O.2       4 ALP1        0.0000 
     21 N          11.8785  -17.3895   23.4745 N.am      2 SEC2        0.0000 
     22 N          12.0520  -17.0770   22.0300 N.am      8 SEL2        0.0000 
     23 N          11.7050  -17.7020   24.9190 N.am      5 SEP2        0.0000 
     24 CA         12.9915  -14.1325   24.1465 C.3       3 GLC5        0.0000 
     25 CA         12.1630  -14.7150   22.3090 C.3       9 GLL5        0.0000 
     26 CA         13.8200  -13.5500   25.9840 C.3       6 GLP5        0.0000 
     27 CA         11.2435  -16.3555   23.4420 C.3       3 GLC5        0.0000 
     28 CA         10.3240  -17.9960   24.5750 C.3       6 GLP5        0.0000 
     29 CA         10.3300  -14.9350   21.8740 C.3       3 GLC5        0.0000 
     30 CA          8.4970  -15.1550   21.4390 C.3       6 GLP5        0.0000 
     31 N          15.6060  -13.3370   24.1615 N.am      2 SEC2        0.0000 
     32 N          16.4310  -13.8520   23.1320 N.am      8 SEL2        0.0000 
     33 N          14.7810  -12.8220   25.1910 N.am      5 SEP2        0.0000 
     34 CA         19.7325  -16.4790   28.6825 C.3       3 GLC5        0.0000 
     35 CA         19.4010  -16.4530   26.7880 C.3       9 GLL5        0.0000 
     36 CA         20.0640  -16.5050   30.5770 C.3       6 GLP5        0.0000 
     37 CA         20.9655  -16.5070   28.3725 C.3       3 GLC5        0.0000 
     38 CA         20.6980  -15.6420   26.6280 C.3       9 GLL5        0.0000 
     39 CA         21.2330  -17.3720   30.1170 C.3       6 GLP5        0.0000 
     40 CA         21.2500  -12.6450   24.8010 C.3       3 GLC5        0.0000 
     41 CA         20.4210  -14.3300   25.8830 C.3       9 GLL5        0.0000 
     42 CA         22.0790  -10.9600   23.7190 C.3       6 GLP5        0.0000 
     43 CA         20.2755  -12.7615   23.7385 C.3       3 GLC5        0.0000 
     44 CA         19.8080  -14.6210   24.5140 C.3       9 GLL5        0.0000 
     45 CA         18.6675  -13.0570   24.7135 C.3       3 GLC5        0.0000 
     46 CA         10.5495   -8.5475   23.7175 C.3       3 GLC5        0.0000 
     47 CA         12.1860   -8.7050   24.7850 C.3       9 GLL5        0.0000 
     48 CA          8.9130   -8.3900   22.6500 C.3       6 GLP5        0.0000 
     49 CA         12.2520   -7.7760   23.2710 C.3       3 GLC5        0.0000 
     50 CA         12.3180   -6.8470   21.7570 C.3       6 GLP5        0.0000 
     51 CA         11.7250   -9.3845   26.4595 C.3       3 GLC5        0.0000 
     52 CA         11.2640  -10.0640   28.1340 C.3       6 GLP5        0.0000 
     53 CA         11.2660   -7.0950   25.6705 C.3       3 GLC5        0.0000 
     54 CA         10.3460   -5.4850   26.5560 C.3       6 GLP5        0.0000 
     55 CA         10.4718  -12.2512   21.5755 C.3       3 GLC5        0.0000 
     56 CA         12.6100  -12.4750   22.3290 C.3       9 GLL5        0.0000 
     57 CA          8.8080  -12.0570   20.2930 C.3       6 GLP5        0.0000 
     58 CA         12.9778  -12.9977   24.4210 C.3       3 GLC5        0.0000 
     59 CA         11.6610  -12.4160   23.3870 C.3       9 GLL5        0.0000 
     60 CA         10.3993   -9.5325   23.2960 C.3       3 GLC5        0.0000 
     61 CA         11.4900  -11.2300   24.1020 C.3       9 GLL5        0.0000 
     62 CA         12.8528  -12.1125   24.9630 C.3       3 GLC5        0.0000 
     63 CA         12.2810  -10.1200   23.7820 C.3       9 GLL5        0.0000 
     64 CA         11.5747  -10.3695   26.0380 C.3       3 GLC5        0.0000 
     65 CA         12.5225   -8.4937   22.4940 C.3       3 GLC5        0.0000 
     66 CA         14.4205  -10.5473   23.8995 C.3       3 GLC5        0.0000 
     67 CA         13.1730  -10.1610   22.6800 C.3       9 GLL5        0.0000 
     68 CA         16.1140  -10.9540   24.5680 C.3       6 GLP5        0.0000 
     69 CA         14.8324  -11.3009   22.9885 C.3       3 GLC5        0.0000 
     70 CA         13.3050  -11.3460   21.9390 C.3       9 GLL5        0.0000 
     71 CA         19.0830  -11.4404   19.2769 C.3       3 GLC5        0.0000 
     72 CA         19.2520   -9.7030   18.4690 C.3       6 GLP5        0.0000 
     73 CA         20.1283  -12.4878   21.7040 C.3       3 GLC5        0.0000 
     74 CA         18.8552  -15.1120   18.9215 C.3       3 GLC5        0.0000 
     75 CA         18.5280  -16.3200   17.4920 C.3       6 GLP5        0.0000 
     76 CA         17.9718  -14.6650   26.3843 C.3       3 GLC5        0.0000 
     77 CA         18.5290  -15.4530   24.6390 C.3       9 GLL5        0.0000 
     78 CA         17.2810  -13.2270   27.7460 C.3       6 GLP5        0.0000 
     79 CA         17.2578  -16.9250   27.1175 C.3       3 GLC5        0.0000 
     80 CA         15.4170  -17.2470   28.1380 C.3       6 GLP5        0.0000 
     81 CA         18.7581  -14.2079   27.0207 C.3       3 GLC5        0.0000 
@<TRIPOS>BOND
@<TRIPOS>SUBSTRUCTURE
     1 ALC1        4 GROUP        1 X    ALC  0     ROOT ALC X 1
     2 SEC2       21 GROUP        1 X    SEC  0     **** SEC X 2
     3 GLC5        1 GROUP        1 X    GLC  0     **** GLC X 6
     4 ALP1        6 GROUP        1 Y    ALP  0     ROOT ALP Y 8
     5 SEP2       23 GROUP        1 Y    SEP  0     **** SEP Y 9
     6 GLP5        3 GROUP        1 Y    GLP  0     **** GLP Y 13
     7 ALL1        5 GROUP        1 Z    ALL  0     ROOT ALL Z 15
     8 SEL2       22 GROUP        1 Z    SEL  0     **** SEL Z 16
     9 GLL5        2 GROUP        1 Z    GLL  0     **** GLL Z 20
@<TRIPOS>SET

