#    Name: 1nt1_T76_1_ligand
#    Modification time : Mon Mar 24 18:53:30 2014

@<TRIPOS>MOLECULE
1nt1_T76_1_ligand
   68    71     1     0     0
SMALL
NO_CHARGES


@<TRIPOS>ATOM
      1 C1         13.3050  -11.3460   21.9390 C.ar      1 T76247      0.0000 
      2 C2         12.6100  -12.4750   22.3290 C.ar      1 T76247      0.0000 
      3 C3         11.6610  -12.4160   23.3870 C.ar      1 T76247      0.0000 
      4 C4         11.4900  -11.2300   24.1020 C.ar      1 T76247      0.0000 
      5 C5         12.2810  -10.1200   23.7820 C.ar      1 T76247      0.0000 
      6 C6         13.1730  -10.1610   22.6800 C.ar      1 T76247      0.0000 
      7 C7         14.1440  -11.3850   20.6840 C.3       1 T76247      0.0000 
      8 N8         15.5830  -11.5230   20.9480 N.am      1 T76247      0.0000 
      9 C9         16.1920  -12.7050   20.6640 C.2       1 T76247      0.0000 
     10 C10        17.6880  -12.7240   20.8980 C.3       1 T76247      0.0000 
     11 O11        15.6200  -13.7450   20.3220 O.2       1 T76247      0.0000 
     12 O12        12.9140  -13.6870   21.7050 O.3       1 T76247      0.0000 
     13 C18        18.4400  -12.8770   19.5630 C.3       1 T76247      0.0000 
     14 C19        19.7640  -13.5550   19.9390 C.3       1 T76247      0.0000 
     15 C20        19.2630  -14.5920   20.9510 C.3       1 T76247      0.0000 
     16 N21        18.1110  -13.9590   21.5710 N.am      1 T76247      0.0000 
     17 C29        17.4450  -14.3920   22.6690 C.2       1 T76247      0.0000 
     18 C30        17.9410  -15.7110   23.2370 C.3       1 T76247      0.0000 
     19 N31        16.8250  -16.6570   23.2880 N.am      1 T76247      0.0000 
     20 C32        16.6220  -17.3810   22.1570 C.2       1 T76247      0.0000 
     21 O33        17.4440  -17.4820   21.2250 O.2       1 T76247      0.0000 
     22 C34        15.2330  -17.9950   22.0630 C.3       1 T76247      0.0000 
     23 C35        14.4690  -17.3110   20.9130 C.3       1 T76247      0.0000 
     24 N38        13.9290  -15.9920   21.3100 N.am      1 T76247      0.0000 
     25 C41        12.7000  -16.0430   21.8690 C.2       1 T76247      0.0000 
     26 O42        12.0520  -17.0770   22.0300 O.2       1 T76247      0.0000 
     27 C43        12.1630  -14.7150   22.3090 C.3       1 T76247      0.0000 
     28 O44        16.4310  -13.8520   23.1320 O.2       1 T76247      0.0000 
     29 C45        18.5290  -15.4530   24.6390 C.3       1 T76247      0.0000 
     30 C47        18.7960  -16.7530   25.4060 C.3       1 T76247      0.0000 
     31 C48        19.4010  -16.4530   26.7880 C.3       1 T76247      0.0000 
     32 C49        20.6980  -15.6420   26.6280 C.3       1 T76247      0.0000 
     33 C50        20.4210  -14.3300   25.8830 C.3       1 T76247      0.0000 
     34 C51        19.8080  -14.6210   24.5140 C.3       1 T76247      0.0000 
     35 CL68       12.1860   -8.7050   24.7850 Cl        1 T76247      0.0000 
     36 H          11.1117  -13.2467   23.6136 H         1 T76247      0.0000 
     37 H          10.7978  -11.1703   24.8490 H         1 T76247      0.0000 
     38 H          13.7114   -9.3325   22.4331 H         1 T76247      0.0000 
     39 H          13.9509  -10.4605   20.1041 H         1 T76247      0.0000 
     40 H          13.7912  -12.2245   20.0522 H         1 T76247      0.0000 
     41 H          16.0684  -10.7222   21.3355 H         1 T76247      0.0000 
     42 H          18.0365  -11.8833   21.3873 H         1 T76247      0.0000 
     43 H          18.6319  -11.9176   19.1513 H         1 T76247      0.0000 
     44 H          17.8856  -13.5071   18.9130 H         1 T76247      0.0000 
     45 H          20.3930  -12.8679   20.4144 H         1 T76247      0.0000 
     46 H          20.1662  -14.0380   19.1031 H         1 T76247      0.0000 
     47 H          20.0428  -14.7785   21.6602 H         1 T76247      0.0000 
     48 H          18.9897  -15.4802   20.4198 H         1 T76247      0.0000 
     49 H          18.7271  -16.0778   22.6033 H         1 T76247      0.0000 
     50 H          16.2853  -16.7257   24.1158 H         1 T76247      0.0000 
     51 H          14.6983  -17.8335   22.9860 H         1 T76247      0.0000 
     52 H          15.3129  -19.0504   21.8540 H         1 T76247      0.0000 
     53 H          13.6565  -17.9802   20.5990 H         1 T76247      0.0000 
     54 H          15.1570  -17.2046   20.0634 H         1 T76247      0.0000 
     55 H          14.4675  -15.1873   21.1534 H         1 T76247      0.0000 
     56 H          11.1011  -14.6641   22.0290 H         1 T76247      0.0000 
     57 H          12.2161  -14.6695   23.4062 H         1 T76247      0.0000 
     58 H          17.8031  -14.8638   25.2014 H         1 T76247      0.0000 
     59 H          19.4896  -17.3683   24.8401 H         1 T76247      0.0000 
     60 H          17.8619  -17.2920   25.5361 H         1 T76247      0.0000 
     61 H          19.6227  -17.3858   27.2910 H         1 T76247      0.0000 
     62 H          18.6914  -15.8805   27.3719 H         1 T76247      0.0000 
     63 H          21.4178  -16.2287   26.0663 H         1 T76247      0.0000 
     64 H          21.1018  -15.4187   27.6103 H         1 T76247      0.0000 
     65 H          21.3533  -13.7898   25.7535 H         1 T76247      0.0000 
     66 H          19.7321  -13.7274   26.4661 H         1 T76247      0.0000 
     67 H          19.5742  -13.6784   24.0170 H         1 T76247      0.0000 
     68 H          20.5308  -15.1658   23.9048 H         1 T76247      0.0000 
@<TRIPOS>BOND
     1    2    1 ar   
     2    6    1 ar   
     3    7    1 1    
     4    3    2 ar   
     5   12    2 1    
     6    4    3 ar   
     7   36    3 1    
     8    5    4 ar   
     9   37    4 1    
    10    6    5 ar   
    11   35    5 1    
    12   38    6 1    
    13    8    7 1    
    14   39    7 1    
    15   40    7 1    
    16    9    8 am   
    17   41    8 1    
    18   10    9 1    
    19   11    9 2    
    20   13   10 1    
    21   16   10 1    
    22   42   10 1    
    23   27   12 1    
    24   14   13 1    
    25   43   13 1    
    26   44   13 1    
    27   15   14 1    
    28   45   14 1    
    29   46   14 1    
    30   16   15 1    
    31   47   15 1    
    32   48   15 1    
    33   17   16 am   
    34   18   17 1    
    35   28   17 2    
    36   19   18 1    
    37   29   18 1    
    38   49   18 1    
    39   20   19 am   
    40   50   19 1    
    41   21   20 2    
    42   22   20 1    
    43   23   22 1    
    44   51   22 1    
    45   52   22 1    
    46   24   23 1    
    47   53   23 1    
    48   54   23 1    
    49   25   24 am   
    50   55   24 1    
    51   26   25 2    
    52   27   25 1    
    53   56   27 1    
    54   57   27 1    
    55   30   29 1    
    56   34   29 1    
    57   58   29 1    
    58   31   30 1    
    59   59   30 1    
    60   60   30 1    
    61   32   31 1    
    62   61   31 1    
    63   62   31 1    
    64   33   32 1    
    65   63   32 1    
    66   64   32 1    
    67   34   33 1    
    68   65   33 1    
    69   66   33 1    
    70   67   34 1    
    71   68   34 1    
@<TRIPOS>SUBSTRUCTURE
     1 T76247      1 GROUP   
@<TRIPOS>SET

