#    Name: 3M2T_2_CAVITY_N1_6.mol2
#    Modification time : Tue Mar 11 12:47:17 2014

@<TRIPOS>MOLECULE
3M2T_2_CAVITY_N1_6.mol2
   99     0     7     0     0
SMALL
NO_CHARGES


@<TRIPOS>ATOM
      1 O          58.2997    5.2377   82.8364 O.2       2 ALA2        0.0000 
      2 O          57.2068    4.4525   83.4990 O.2       2 ALA2        0.0000 
      3 O          56.1794    5.2907   82.7978 O.2       2 ALA2        0.0000 
      4 DU         56.1140    3.6673   84.1616 H         7 CUB7        0.0000 
      5 CA         55.0865    4.5055   83.4604 C.3       6 GLY6        0.0000 
      6 CZ         59.3958    6.9877   83.3224 C.ar      5 PHE5        0.0000 
      7 CZ         58.3684    7.8259   82.6212 C.ar      5 PHE5        0.0000 
      8 DU         58.3029    6.2024   83.9850 H         7 CUB7        0.0000 
      9 O          57.2755    7.0407   83.2838 O.2       2 ALA2        0.0000 
     10 CZ         56.2481    7.8790   82.5826 C.ar      5 PHE5        0.0000 
     11 DU         57.2101    5.4172   84.6476 H         7 CUB7        0.0000 
     12 N          56.1826    6.2555   83.9464 N.2       2 ALA2        0.0000 
     13 N          55.1552    7.0938   83.2452 N.2       2 ALA2        0.0000 
     14 CA         55.0898    5.4703   84.6090 C.3       6 GLY6        0.0000 
     15 DU         59.3990    7.9524   84.4710 H         7 CUB7        0.0000 
     16 CZ         58.3716    8.7907   83.7698 C.ar      5 PHE5        0.0000 
     17 OD1        57.3442    9.6289   83.0686 O.3       3 ASP3        0.0000 
     18 DU         57.2787    8.0055   84.4324 H         7 CUB7        0.0000 
     19 N          56.2513    8.8437   83.7312 N.2       2 ALA2        0.0000 
     20 DU         56.1859    7.2202   85.0950 H         7 CUB7        0.0000 
     21 N          55.1584    8.0585   84.3938 N.2       2 ALA2        0.0000 
     22 N          54.1310    8.8968   83.6926 N.2       2 ALA2        0.0000 
     23 N          55.0930    6.4350   85.7576 N.2       2 ALA2        0.0000 
     24 N          54.0656    7.2733   85.0564 N.2       2 ALA2        0.0000 
     25 DU         60.4952    9.7024   84.9570 H         7 CUB7        0.0000 
     26 DU         59.4023    8.9172   85.6196 H         7 CUB7        0.0000 
     27 OD1        58.3748    9.7554   84.9184 O.3       3 ASP3        0.0000 
     28 DU         57.2820    8.9702   85.5810 H         7 CUB7        0.0000 
     29 OD1        56.2545    9.8085   84.8798 O.3       3 ASP3        0.0000 
     30 CA         56.1891    8.1850   86.2436 C.3       6 GLY6        0.0000 
     31 CA         55.1617    9.0232   85.5424 C.3       6 GLY6        0.0000 
     32 CA         54.1342    9.8615   84.8412 C.3       6 GLY6        0.0000 
     33 CA         56.1236    6.5615   87.6074 C.3       6 GLY6        0.0000 
     34 CA         55.0962    7.3998   86.9062 C.3       6 GLY6        0.0000 
     35 CA         54.0688    8.2380   86.2050 C.3       6 GLY6        0.0000 
     36 CA         62.6187   10.6141   86.1442 C.3       6 GLY6        0.0000 
     37 N          61.5913   11.4523   85.4430 N.2       2 ALA2        0.0000 
     38 N          60.5638   12.2906   84.7417 N.2       2 ALA2        0.0000 
     39 DU         60.4984   10.6671   86.1056 H         7 CUB7        0.0000 
     40 OD1        59.4709   11.5054   85.4044 O.3       3 ASP3        0.0000 
     41 DU         59.4055    9.8819   86.7682 H         7 CUB7        0.0000 
     42 OD1        58.3781   10.7202   86.0670 O.3       3 ASP3        0.0000 
     43 DU         58.3126    9.0967   87.4308 H         7 CUB7        0.0000 
     44 DU         57.2852    9.9349   86.7296 H         7 CUB7        0.0000 
     45 OD1        56.2578   10.7732   86.0284 O.3       3 ASP3        0.0000 
     46 CA         55.2303   11.6115   85.3271 C.3       6 GLY6        0.0000 
     47 CA         56.1923    9.1497   87.3922 C.3       6 GLY6        0.0000 
     48 CA         55.1649    9.9880   86.6910 C.3       6 GLY6        0.0000 
     49 CA         54.1375   10.8263   85.9897 C.3       6 GLY6        0.0000 
     50 O          57.2036    3.4877   82.3504 O.2       2 ALA2        0.0000 
     51 CA         56.1107    2.7025   83.0130 C.3       6 GLY6        0.0000 
     52 N          61.5945   12.4171   86.5916 N.2       2 ALA2        0.0000 
     53 O          60.5670   13.2554   85.8903 O.2       2 ALA2        0.0000 
     54 DU         60.5016   11.6319   87.2542 H         7 CUB7        0.0000 
     55 OD1        59.4742   12.4701   86.5529 O.3       3 ASP3        0.0000 
     56 OD1        58.4467   13.3084   85.8517 O.3       3 ASP3        0.0000 
     57 OD1        58.3813   11.6849   87.2155 O.3       3 ASP3        0.0000 
     58 OD1        57.3539   12.5232   86.5143 O.3       3 ASP3        0.0000 
     59 DU         58.3158   10.0614   88.5794 H         7 CUB7        0.0000 
     60 N          57.2884   10.8997   87.8782 N.2       2 ALA2        0.0000 
     61 OD1        56.2610   11.7380   87.1769 O.3       3 ASP3        0.0000 
     62 CA         55.2336   12.5762   86.4757 C.3       6 GLY6        0.0000 
     63 CA         57.2230    9.2762   89.2420 C.3       6 GLY6        0.0000 
     64 N          61.5977   13.3818   87.7401 N.2       2 ALA2        0.0000 
     65 O          60.5703   14.2201   87.0389 O.2       2 ALA2        0.0000 
     66 O          59.5428   15.0584   86.3377 O.2       2 ALA2        0.0000 
     67 DU         60.5048   12.5966   88.4027 H         7 CUB7        0.0000 
     68 DU         59.4774   13.4349   87.7015 H         7 CUB7        0.0000 
     69 N          58.4500   14.2731   87.0003 N.2       2 ALA2        0.0000 
     70 DU         59.4119   11.8114   89.0653 H         7 CUB7        0.0000 
     71 DU         58.3845   12.6497   88.3641 H         7 CUB7        0.0000 
     72 DU         57.3571   13.4879   87.6629 H         7 CUB7        0.0000 
     73 N          56.3297   14.3262   86.9617 N.2       2 ALA2        0.0000 
     74 N          58.3191   11.0262   89.7280 N.2       2 ALA2        0.0000 
     75 N          57.2916   11.8644   89.0267 N.2       2 ALA2        0.0000 
     76 N          56.2642   12.7027   88.3255 N.2       2 ALA2        0.0000 
     77 O          55.2368   13.5410   87.6243 O.2       2 ALA2        0.0000 
     78 N          57.2262   10.2409   90.3906 N.2       2 ALA2        0.0000 
     79 CZ         61.6009   14.3466   88.8887 C.ar      5 PHE5        0.0000 
     80 O          60.5735   15.1848   88.1875 O.2       2 ALA2        0.0000 
     81 CA         59.5461   16.0231   87.4863 C.3       6 GLY6        0.0000 
     82 DU         60.5080   13.5614   89.5513 H         7 CUB7        0.0000 
     83 DU         59.4806   14.3996   88.8501 H         7 CUB7        0.0000 
     84 CA         58.4532   15.2379   88.1489 C.3       6 GLY6        0.0000 
     85 N          57.4258   16.0762   87.4477 N.2       2 ALA2        0.0000 
     86 DU         59.4152   12.7761   90.2139 H         7 CUB7        0.0000 
     87 DU         58.3877   13.6144   89.5127 H         7 CUB7        0.0000 
     88 OG         57.3603   14.4527   88.8115 O.2       1 SER1        0.0000 
     89 N          56.3329   15.2909   88.1103 N.2       2 ALA2        0.0000 
     90 N          58.3223   11.9909   90.8765 N.2       2 ALA2        0.0000 
     91 N          57.2949   12.8292   90.1753 N.2       2 ALA2        0.0000 
     92 OG         56.2674   13.6674   89.4741 O.2       1 SER1        0.0000 
     93 NZ         58.2568   10.3674   92.2404 N.2       4 LYS4        0.0000 
     94 CZ         60.5113   14.5261   90.6999 C.ar      5 PHE5        0.0000 
     95 CA         59.4838   15.3644   89.9987 C.3       6 GLY6        0.0000 
     96 DU         59.4184   13.7409   91.3625 H         7 CUB7        0.0000 
     97 CA         58.3910   14.5791   90.6613 C.3       6 GLY6        0.0000 
     98 N          58.3255   12.9557   92.0251 N.2       2 ALA2        0.0000 
     99 OG         57.2981   13.7939   91.3239 O.2       1 SER1        0.0000 
@<TRIPOS>BOND
@<TRIPOS>SUBSTRUCTURE
     1 SER1       88 GROUP   
     2 ALA2        1 GROUP   
     3 ASP3       17 GROUP   
     4 LYS4       93 GROUP   
     5 PHE5        6 GROUP   
     6 GLY6        5 GROUP   
     7 CUB7        4 GROUP   
@<TRIPOS>SET

