#    Name: 3m2t_NAD_2_INTS_M
#    Modification time : Mon Mar 24 22:41:40 2014

@<TRIPOS>MOLECULE
3m2t_NAD_2_INTS_M
   87     0     9     0     0
SMALL
NO_CHARGES


@<TRIPOS>ATOM
      1 N          56.5755    0.4450   88.6115 N.am      2 SEC2        0.0000 
      2 N          57.3670    1.7770   88.0940 N.am      8 SEL2        0.0000 
      3 N          55.7840   -0.8870   89.1290 N.am      5 SEP2        0.0000 
      4 N          55.3595    3.4965   89.6555 N.am      2 SEC2        0.0000 
      5 N          55.3660    3.2030   88.4380 N.am      8 SEL2        0.0000 
      6 N          55.3530    3.7900   90.8730 N.am      5 SEP2        0.0000 
      7 N          54.0675    3.9890   88.5635 N.am      2 SEC2        0.0000 
      8 N          52.7690    4.7750   88.6890 N.am      5 SEP2        0.0000 
      9 CA         51.1415    1.5350   86.3325 C.3       3 GLC5        0.0000 
     10 CA         52.9240    1.3510   86.1180 C.3       9 GLL5        0.0000 
     11 CA         49.3590    1.7190   86.5470 C.3       6 GLP5        0.0000 
     12 CA         53.6460    0.9850   88.2940 C.3       3 GLC5        0.0000 
     13 CA         53.4930   -0.1210   86.4420 C.3       9 GLL5        0.0000 
     14 CA         53.7990    2.0910   90.1460 C.3       6 GLP5        0.0000 
     15 CA         53.6315   -1.4210   88.2345 C.3       3 GLC5        0.0000 
     16 CA         53.7700   -2.7210   90.0270 C.3       6 GLP5        0.0000 
     17 N          54.4815   -0.8215   88.3900 N.am      2 SEC2        0.0000 
     18 N          53.1790   -0.7560   87.6510 N.am      8 SEL2        0.0000 
     19 O          51.8545   -1.0985   87.6745 O.2       1 ALC1        0.0000 
     20 O          53.1790   -0.7560   87.6510 O.2       7 ALL1        0.0000 
     21 O          50.5300   -1.4410   87.6980 O.2       4 ALP1        0.0000 
     22 O          52.0925   -2.9350   86.3050 O.2       1 ALC1        0.0000 
     23 O          53.2170   -2.3270   85.3470 O.2       7 ALL1        0.0000 
     24 O          50.9680   -3.5430   87.2630 O.2       4 ALP1        0.0000 
     25 CA         50.6650    0.7345   85.6295 C.3       3 GLC5        0.0000 
     26 CA         51.9710   -0.2500   84.7120 C.3       9 GLL5        0.0000 
     27 CA         48.5015   -0.1810   80.3135 C.3       3 GLC5        0.0000 
     28 CA         49.1690   -1.6430   80.9630 C.3       9 GLL5        0.0000 
     29 CA         47.8340    1.2810   79.6640 C.3       6 GLP5        0.0000 
     30 CA         47.0190   -0.1320   83.2550 C.3       3 GLC5        0.0000 
     31 CA         48.0450   -1.6940   82.9840 C.3       9 GLL5        0.0000 
     32 CA         45.9930    1.4300   83.5260 C.3       6 GLP5        0.0000 
     33 CA         46.0985   -1.9670   83.6920 C.3       3 GLC5        0.0000 
     34 CA         44.1520   -2.2400   84.4000 C.3       6 GLP5        0.0000 
     35 CA         47.9695   -2.4550   84.7605 C.3       3 GLC5        0.0000 
     36 CA         47.8940   -3.2160   86.5370 C.3       6 GLP5        0.0000 
     37 CA         47.9395   -0.2065   81.3240 C.3       3 GLC5        0.0000 
     38 N          55.1510    6.2010   89.6410 N.am      2 SEC2        0.0000 
     39 N          55.3480    5.7460   88.5360 N.am      8 SEL2        0.0000 
     40 N          54.9540    6.6560   90.7460 N.am      5 SEP2        0.0000 
     41 N          54.0585    5.2605   88.6125 N.am      2 SEC2        0.0000 
     42 O          53.7130    7.3200   82.0435 O.2       1 ALC1        0.0000 
     43 O          54.4040    8.3620   82.2160 O.2       7 ALL1        0.0000 
     44 O          53.0220    6.2780   81.8710 O.2       4 ALP1        0.0000 
     45 CA         56.0000   11.4380   83.4585 C.3       3 GLC5        0.0000 
     46 CA         55.8250    9.3660   84.1070 C.3       9 GLL5        0.0000 
     47 CA         56.1750   13.5100   82.8100 C.3       6 GLP5        0.0000 
     48 N          56.8665   11.5130   83.4440 N.am      2 SEC2        0.0000 
     49 N          56.5430   10.2510   83.2700 N.am      8 SEL2        0.0000 
     50 N          57.1900   12.7750   83.6180 N.am      5 SEP2        0.0000 
     51 O          55.4295   10.7695   82.8110 O.2       1 ALC1        0.0000 
     52 O          56.5430   10.2510   83.2700 O.2       7 ALL1        0.0000 
     53 O          54.3160   11.2880   82.3520 O.2       4 ALP1        0.0000 
     54 CA         54.1325    9.9295   87.1765 C.3       3 GLC5        0.0000 
     55 CA         54.8250    9.9200   85.0830 C.3       9 GLL5        0.0000 
     56 CA         53.4400    9.9390   89.2700 C.3       6 GLP5        0.0000 
     57 CA         53.1770   10.2520   85.5410 C.3       3 GLC5        0.0000 
     58 CA         51.5290   10.5840   85.9990 C.3       6 GLP5        0.0000 
     59 CA         54.8815   11.8535   84.3615 C.3       3 GLC5        0.0000 
     60 CA         54.9380   13.7870   83.6400 C.3       6 GLP5        0.0000 
     61 CA         53.2240   11.1405   86.4335 C.3       3 GLC5        0.0000 
     62 CA         54.9190   11.6970   86.8680 C.3       9 GLL5        0.0000 
     63 O          56.8720   15.4530   85.7505 O.2       1 ALC1        0.0000 
     64 O          57.2160   14.2350   86.4510 O.2       7 ALL1        0.0000 
     65 O          56.5280   16.6710   85.0500 O.2       4 ALP1        0.0000 
     66 CA         53.6112    2.0125   88.1382 C.3       3 GLC5        0.0000 
     67 CA         53.9230    2.5170   86.1430 C.3       9 GLL5        0.0000 
     68 CA         52.7968    3.1640   84.6088 C.3       3 GLC5        0.0000 
     69 CA         52.1700    4.3940   83.0870 C.3       6 GLP5        0.0000 
     70 CA         49.6797    0.7237   81.8717 C.3       3 GLC5        0.0000 
     71 CA         50.3080   -1.0160   82.9250 C.3       9 GLL5        0.0000 
     72 CA         49.0470    2.5540   81.4800 C.3       6 GLP5        0.0000 
     73 CA         52.3377    6.8370   85.3342 C.3       3 GLC5        0.0000 
     74 CA         54.6310    6.4600   85.4440 C.3       9 GLL5        0.0000 
     75 CA         50.3040    6.5820   85.5750 C.3       6 GLP5        0.0000 
     76 CA         53.2708    5.7430   84.0902 C.3       3 GLC5        0.0000 
     77 CA         54.1120    7.7240   84.7430 C.3       9 GLL5        0.0000 
     78 CA         52.9477    9.1635   84.3247 C.3       3 GLC5        0.0000 
     79 CA         51.3550   10.3610   84.5290 C.3       6 GLP5        0.0000 
     80 CA         55.3435    9.6165   81.8353 C.3       3 GLC5        0.0000 
     81 CA         54.9690    8.2080   83.4980 C.3       9 GLL5        0.0000 
     82 CA         55.2900   10.4460   79.8680 C.3       6 GLP5        0.0000 
     83 CA         54.4102   11.0385   88.3120 C.3       3 GLC5        0.0000 
     84 CA         55.1593   12.9625   85.4970 C.3       3 GLC5        0.0000 
     85 CA         55.6984    9.6227   88.4005 C.3       3 GLC5        0.0000 
     86 CA         56.6190    9.8120   86.7800 C.3       9 GLL5        0.0000 
     87 CA         54.4560    8.7420   89.4210 C.3       6 GLP5        0.0000 
@<TRIPOS>BOND
@<TRIPOS>SUBSTRUCTURE
     1 ALC1       19 GROUP        1 X    ALC  0     ROOT ALC X 1
     2 SEC2        1 GROUP        1 X    SEC  0     **** SEC X 2
     3 GLC5        9 GROUP        1 X    GLC  0     **** GLC X 6
     4 ALP1       21 GROUP        1 Y    ALP  0     ROOT ALP Y 8
     5 SEP2        3 GROUP        1 Y    SEP  0     **** SEP Y 9
     6 GLP5       11 GROUP        1 Y    GLP  0     **** GLP Y 13
     7 ALL1       20 GROUP        1 Z    ALL  0     ROOT ALL Z 15
     8 SEL2        2 GROUP        1 Z    SEL  0     **** SEL Z 16
     9 GLL5       10 GROUP        1 Z    GLL  0     **** GLL Z 20
@<TRIPOS>SET

