#    Name: 3m2t_NAD_2_ligand
#    Modification time : Mon Mar 24 22:41:40 2014

@<TRIPOS>MOLECULE
3m2t_NAD_2_ligand
   70    74     1     0     0
SMALL
NO_CHARGES


@<TRIPOS>ATOM
      1 PA         56.2690    2.7790   87.3790 P.3       1 NAD358      0.0000 
      2 O1A        57.3670    1.7770   88.0940 O.co2     1 NAD358      0.0000 
      3 O2A        55.3660    3.2030   88.4380 O.co2     1 NAD358      0.0000 
      4 O5B        55.2980    2.1120   86.2010 O.3       1 NAD358      0.0000 
      5 C5B        53.9230    2.5170   86.1430 C.3       1 NAD358      0.0000 
      6 C4B        52.9240    1.3510   86.1180 C.3       1 NAD358      0.0000 
      7 O4B        52.1070    1.1210   84.9270 O.3       1 NAD358      0.0000 
      8 C3B        53.4930   -0.1210   86.4420 C.3       1 NAD358      0.0000 
      9 O3B        53.1790   -0.7560   87.6510 O.3       1 NAD358      0.0000 
     10 C2B        53.2190   -0.9330   85.1620 C.3       1 NAD358      0.0000 
     11 O2B        53.2170   -2.3270   85.3470 O.3       1 NAD358      0.0000 
     12 C1B        51.9710   -0.2500   84.7120 C.3       1 NAD358      0.0000 
     13 N9A        51.6220   -0.5470   83.3340 N.pl3     1 NAD358      0.0000 
     14 C8A        52.3860   -0.4770   82.2680 C.2       1 NAD358      0.0000 
     15 N7A        51.5940   -0.8610   81.1450 N.2       1 NAD358      0.0000 
     16 C5A        50.3170   -1.1970   81.6020 C.ar      1 NAD358      0.0000 
     17 C6A        49.1690   -1.6430   80.9630 C.ar      1 NAD358      0.0000 
     18 N6A        49.2210   -1.8610   79.5340 N.pl3     1 NAD358      0.0000 
     19 N1A        48.0380   -1.8940   81.6460 N.ar      1 NAD358      0.0000 
     20 C2A        48.0450   -1.6940   82.9840 C.ar      1 NAD358      0.0000 
     21 N3A        49.1900   -1.2680   83.6210 N.ar      1 NAD358      0.0000 
     22 C4A        50.3080   -1.0160   82.9250 C.ar      1 NAD358      0.0000 
     23 O3         56.9650    4.2060   86.8040 O.3       1 NAD358      0.0000 
     24 PN         56.4700    5.7270   87.3290 P.3       1 NAD358      0.0000 
     25 O1N        55.3480    5.7460   88.5360 O.co2     1 NAD358      0.0000 
     26 O2N        57.8410    6.4800   87.8750 O.co2     1 NAD358      0.0000 
     27 O5D        55.8610    6.6890   86.1130 O.3       1 NAD358      0.0000 
     28 C5D        54.6310    6.4600   85.4440 C.3       1 NAD358      0.0000 
     29 C4D        54.1120    7.7240   84.7430 C.3       1 NAD358      0.0000 
     30 O4D        54.0590    8.8770   85.6000 O.3       1 NAD358      0.0000 
     31 C3D        54.9690    8.2080   83.4980 C.3       1 NAD358      0.0000 
     32 O3D        54.4040    8.3620   82.2160 O.3       1 NAD358      0.0000 
     33 C2D        55.8250    9.3660   84.1070 C.3       1 NAD358      0.0000 
     34 O2D        56.5430   10.2510   83.2700 O.3       1 NAD358      0.0000 
     35 C1D        54.8250    9.9200   85.0830 C.3       1 NAD358      0.0000 
     36 N1N        55.5360   10.6170   86.1520 N.pl3     1 NAD358      0.0000 
     37 C2N        54.9190   11.6970   86.8680 C.ar      1 NAD358      0.0000 
     38 C3N        55.8420   12.5790   87.8400 C.ar      1 NAD358      0.0000 
     39 C7N        56.0330   14.0030   87.2940 C.2       1 NAD358      0.0000 
     40 O7N        55.0970   14.7780   87.3520 O.2       1 NAD358      0.0000 
     41 N7N        57.2160   14.2350   86.4510 N.am      1 NAD358      0.0000 
     42 C4N        57.1080   11.8650   88.1840 C.ar      1 NAD358      0.0000 
     43 C5N        57.4170   10.5250   87.7760 C.ar      1 NAD358      0.0000 
     44 C6N        56.6190    9.8120   86.7800 C.ar      1 NAD358      0.0000 
     45 H          53.7247    3.1394   85.2413 H         1 NAD358      0.0000 
     46 H          53.6561    3.1602   87.0118 H         1 NAD358      0.0000 
     47 H          52.1832    1.5048   86.9785 H         1 NAD358      0.0000 
     48 H          54.6394    0.0585   86.3727 H         1 NAD358      0.0000 
     49 H          54.0182   -0.5908   84.4653 H         1 NAD358      0.0000 
     50 H          51.1516   -0.6358   85.3679 H         1 NAD358      0.0000 
     51 H          53.3024   -0.2254   82.1890 H         1 NAD358      0.0000 
     52 H          50.0884   -1.6428   79.0869 H         1 NAD358      0.0000 
     53 H          48.3852   -2.2119   79.1117 H         1 NAD358      0.0000 
     54 H          47.1855   -1.8599   83.5457 H         1 NAD358      0.0000 
     55 H          53.8398    6.1247   86.1407 H         1 NAD358      0.0000 
     56 H          54.7226    5.6728   84.6722 H         1 NAD358      0.0000 
     57 H          53.1087    7.5289   84.3426 H         1 NAD358      0.0000 
     58 H          55.7846    7.3456   83.4611 H         1 NAD358      0.0000 
     59 H          56.5456    8.7779   84.7947 H         1 NAD358      0.0000 
     60 H          54.2066   10.6347   84.5437 H         1 NAD358      0.0000 
     61 H          53.9808   11.9476   86.8184 H         1 NAD358      0.0000 
     62 H          57.2986   15.1474   86.0501 H         1 NAD358      0.0000 
     63 H          57.8411   13.4614   86.3475 H         1 NAD358      0.0000 
     64 H          57.7930   12.3921   88.7556 H         1 NAD358      0.0000 
     65 H          58.2207   10.0419   88.1893 H         1 NAD358      0.0000 
     66 H          56.7720    8.8924   86.5397 H         1 NAD358      0.0000 
     67 H          52.4079   -1.3551   87.4358 H         1 NAD358      0.0000 
     68 H          52.4262   -2.5093   85.9313 H         1 NAD358      0.0000 
     69 H          53.5190    7.8992   82.2661 H         1 NAD358      0.0000 
     70 H          55.8423   10.7610   82.7712 H         1 NAD358      0.0000 
@<TRIPOS>BOND
     1    2    1 ar   
     2    3    1 ar   
     3    4    1 1    
     4   23    1 1    
     5    5    4 1    
     6    6    5 1    
     7   45    5 1    
     8   46    5 1    
     9    7    6 1    
    10    8    6 1    
    11   47    6 1    
    12   12    7 1    
    13    9    8 1    
    14   10    8 1    
    15   48    8 1    
    16   67    9 1    
    17   11   10 1    
    18   12   10 1    
    19   49   10 1    
    20   68   11 1    
    21   13   12 1    
    22   50   12 1    
    23   14   13 1    
    24   22   13 1    
    25   15   14 2    
    26   51   14 1    
    27   16   15 1    
    28   17   16 ar   
    29   22   16 ar   
    30   18   17 1    
    31   19   17 ar   
    32   52   18 1    
    33   53   18 1    
    34   20   19 ar   
    35   21   20 ar   
    36   54   20 1    
    37   22   21 ar   
    38   24   23 1    
    39   25   24 ar   
    40   26   24 ar   
    41   27   24 1    
    42   28   27 1    
    43   29   28 1    
    44   55   28 1    
    45   56   28 1    
    46   30   29 1    
    47   31   29 1    
    48   57   29 1    
    49   35   30 1    
    50   32   31 1    
    51   33   31 1    
    52   58   31 1    
    53   69   32 1    
    54   34   33 1    
    55   35   33 1    
    56   59   33 1    
    57   70   34 1    
    58   36   35 1    
    59   60   35 1    
    60   37   36 ar   
    61   44   36 ar   
    62   38   37 ar   
    63   61   37 1    
    64   39   38 1    
    65   42   38 ar   
    66   40   39 2    
    67   41   39 am   
    68   62   41 1    
    69   63   41 1    
    70   43   42 ar   
    71   64   42 1    
    72   44   43 ar   
    73   65   43 1    
    74   66   44 1    
@<TRIPOS>SUBSTRUCTURE
     1 NAD358      1 GROUP   
@<TRIPOS>SET

