#    Name: 2nnl_ERD_1_INTS_M
#    Modification time : Tue Mar 25 21:23:45 2014

@<TRIPOS>MOLECULE
2nnl_ERD_1_INTS_M
   61     0     9     0     0
SMALL
NO_CHARGES


@<TRIPOS>ATOM
      1 N          76.6615   64.0180   39.0055 N.am      2 SEC2        0.0000 
      2 N          76.8870   65.2040   38.0380 N.am      8 SEL2        0.0000 
      3 N          76.4360   62.8320   39.9730 N.am      5 SEP2        0.0000 
      4 N          76.2390   64.3205   37.1590 N.am      2 SEC2        0.0000 
      5 N          75.5910   63.4370   36.2800 N.am      5 SEP2        0.0000 
      6 CA         78.5765   66.1060   38.6535 C.3       3 GLC5        0.0000 
      7 CA         77.4060   66.5440   39.9190 C.3       9 GLL5        0.0000 
      8 CA         79.7470   65.6680   37.3880 C.3       6 GLP5        0.0000 
      9 CA         74.5305   66.3865   40.9295 C.3       3 GLC5        0.0000 
     10 CA         76.3190   67.2880   40.6850 C.3       9 GLL5        0.0000 
     11 CA         72.7420   65.4850   41.1740 C.3       6 GLP5        0.0000 
     12 CA         79.7925   67.5165   42.1765 C.3       3 GLC5        0.0000 
     13 CA         77.8580   68.2740   42.4630 C.3       9 GLL5        0.0000 
     14 CA         81.7270   66.7590   41.8900 C.3       6 GLP5        0.0000 
     15 CA         79.0085   69.6645   41.3425 C.3       3 GLC5        0.0000 
     16 CA         80.1590   71.0550   40.2220 C.3       6 GLP5        0.0000 
     17 CA         80.2200   67.9630   43.4680 C.3       3 GLC5        0.0000 
     18 CA         78.1270   68.4210   43.8330 C.3       9 GLL5        0.0000 
     19 CA         82.3130   67.5050   43.1030 C.3       6 GLP5        0.0000 
     20 N          76.7690   66.5245   46.6590 N.am      2 SEC2        0.0000 
     21 N          77.5190   67.9470   46.1050 N.am      8 SEL2        0.0000 
     22 N          76.0190   65.1020   47.2130 N.am      5 SEP2        0.0000 
     23 O          78.6415   68.4130   46.3675 O.2       1 ALC1        0.0000 
     24 O          77.5190   67.9470   46.1050 O.2       7 ALL1        0.0000 
     25 O          79.7640   68.8790   46.6300 O.2       4 ALP1        0.0000 
     26 N          75.6755   65.7940   46.2355 N.am      2 SEC2        0.0000 
     27 N          75.3320   66.4860   45.2580 N.am      8 SEL2        0.0000 
     28 CA         75.3420   64.9295   43.2300 C.3       3 GLC5        0.0000 
     29 CA         75.9210   66.9560   43.0280 C.3       9 GLL5        0.0000 
     30 CA         74.7630   62.9030   43.4320 C.3       6 GLP5        0.0000 
     31 CA         75.3180   69.7365   40.3910 C.3       3 GLC5        0.0000 
     32 CA         75.6720   68.5050   38.6680 C.3       9 GLL5        0.0000 
     33 CA         74.9640   70.9680   42.1140 C.3       6 GLP5        0.0000 
     34 CA         73.6315   70.0940   39.3080 C.3       3 GLC5        0.0000 
     35 CA         75.0270   69.5860   38.0750 C.3       9 GLL5        0.0000 
     36 CA         72.2360   70.6020   40.5410 C.3       6 GLP5        0.0000 
     37 N          74.1255   71.7125   36.7380 N.am      2 SEC2        0.0000 
     38 N          74.2150   70.6430   36.1240 N.am      8 SEL2        0.0000 
     39 N          74.0360   72.7820   37.3520 N.am      5 SEP2        0.0000 
     40 O          74.5910   71.4205   34.7405 O.2       1 ALC1        0.0000 
     41 O          74.2150   70.6430   36.1240 O.2       7 ALL1        0.0000 
     42 O          74.9670   72.1980   33.3570 O.2       4 ALP1        0.0000 
     43 CA         78.2010   66.2572   42.9997 C.3       3 GLC5        0.0000 
     44 CA         76.7400   67.5290   42.0820 C.3       9 GLL5        0.0000 
     45 CA         79.1030   64.6130   43.7270 C.3       6 GLP5        0.0000 
     46 CA         76.4783   69.6578   42.6310 C.3       3 GLC5        0.0000 
     47 CA         78.4035   66.3667   44.0165 C.3       3 GLC5        0.0000 
     48 CA         77.5765   65.8197   43.7142 C.3       3 GLC5        0.0000 
     49 CA         76.1790   67.0970   44.3750 C.3       9 GLL5        0.0000 
     50 CA         75.5946   69.0751   42.1599 C.3       3 GLC5        0.0000 
     51 CA         77.0353   69.5147   38.4795 C.3       3 GLC5        0.0000 
     52 CA         78.1710   71.0540   38.6800 C.3       6 GLP5        0.0000 
     53 CA         76.5523   70.3190   38.0322 C.3       3 GLC5        0.0000 
     54 CA         75.0108   71.6125   37.5853 C.3       3 GLC5        0.0000 
     55 CA         75.0880   73.6410   37.7860 C.3       6 GLP5        0.0000 
     56 CA         76.2332   70.2100   35.3593 C.3       3 GLC5        0.0000 
     57 CA         74.8400   69.5820   36.6940 C.3       9 GLL5        0.0000 
     58 CA         77.4000   71.3730   34.4160 C.3       6 GLP5        0.0000 
     59 CA         74.5033   67.0853   34.6773 C.3       3 GLC5        0.0000 
     60 CA         75.2930   68.5120   35.9110 C.3       9 GLL5        0.0000 
     61 CA         73.3860   66.1940   33.1380 C.3       6 GLP5        0.0000 
@<TRIPOS>BOND
@<TRIPOS>SUBSTRUCTURE
     1 ALC1       23 GROUP        1 X    ALC  0     ROOT ALC X 1
     2 SEC2        1 GROUP        1 X    SEC  0     **** SEC X 2
     3 GLC5        6 GROUP        1 X    GLC  0     **** GLC X 6
     4 ALP1       25 GROUP        1 Y    ALP  0     ROOT ALP Y 8
     5 SEP2        3 GROUP        1 Y    SEP  0     **** SEP Y 9
     6 GLP5        8 GROUP        1 Y    GLP  0     **** GLP Y 13
     7 ALL1       24 GROUP        1 Z    ALL  0     ROOT ALL Z 15
     8 SEL2        2 GROUP        1 Z    SEL  0     **** SEL Z 16
     9 GLL5        7 GROUP        1 Z    GLL  0     **** GLL Z 20
@<TRIPOS>SET

