#    Name: 2nnl_ERD_1_ligand
#    Modification time : Tue Mar 25 21:23:45 2014

@<TRIPOS>MOLECULE
2nnl_ERD_1_ligand
   33    35     1     0     0
SMALL
NO_CHARGES


@<TRIPOS>ATOM
      1 O13        76.8870   65.2040   38.0380 O.2       1 ERD1331     0.0000 
      2 C9         76.8160   66.2990   38.5620 C.2       1 ERD1331     0.0000 
      3 C10        77.4060   66.5440   39.9190 C.3       1 ERD1331     0.0000 
      4 C11        76.3190   67.2880   40.6850 C.3       1 ERD1331     0.0000 
      5 C14        76.7400   67.5290   42.0820 C.ar      1 ERD1331     0.0000 
      6 C15        77.8580   68.2740   42.4630 C.ar      1 ERD1331     0.0000 
      7 C16        78.1270   68.4210   43.8330 C.ar      1 ERD1331     0.0000 
      8 C17        77.2810   67.8200   44.7790 C.ar      1 ERD1331     0.0000 
      9 O24        77.5190   67.9470   46.1050 O.3       1 ERD1331     0.0000 
     10 C18        76.1790   67.0970   44.3750 C.ar      1 ERD1331     0.0000 
     11 O23        75.3320   66.4860   45.2580 O.3       1 ERD1331     0.0000 
     12 C19        75.9210   66.9560   43.0280 C.ar      1 ERD1331     0.0000 
     13 O12        75.8850   68.4900   40.0240 O.3       1 ERD1331     0.0000 
     14 C4         75.6720   68.5050   38.6680 C.ar      1 ERD1331     0.0000 
     15 C3         76.1270   67.4460   37.8900 C.ar      1 ERD1331     0.0000 
     16 C5         75.0270   69.5860   38.0750 C.ar      1 ERD1331     0.0000 
     17 C6         74.8400   69.5820   36.6940 C.ar      1 ERD1331     0.0000 
     18 O29        74.2150   70.6430   36.1240 O.3       1 ERD1331     0.0000 
     19 C1         75.2930   68.5120   35.9110 C.ar      1 ERD1331     0.0000 
     20 C2         75.9480   67.4410   36.5220 C.ar      1 ERD1331     0.0000 
     21 O30        76.4030   66.3690   35.8110 O.3       1 ERD1331     0.0000 
     22 H          78.2727   67.1625   39.8419 H         1 ERD1331     0.0000 
     23 H          77.6138   65.6177   40.4073 H         1 ERD1331     0.0000 
     24 H          75.4466   66.5753   40.7324 H         1 ERD1331     0.0000 
     25 H          78.4629   68.6998   41.7697 H         1 ERD1331     0.0000 
     26 H          78.9366   68.9641   44.1413 H         1 ERD1331     0.0000 
     27 H          75.0918   66.4062   42.7223 H         1 ERD1331     0.0000 
     28 H          74.6967   70.3677   38.6400 H         1 ERD1331     0.0000 
     29 H          75.1439   68.5175   34.8997 H         1 ERD1331     0.0000 
     30 H          78.5112   67.8645   46.1988 H         1 ERD1331     0.0000 
     31 H          74.7736   67.2252   45.6345 H         1 ERD1331     0.0000 
     32 H          74.3639   70.5336   35.1413 H         1 ERD1331     0.0000 
     33 H          76.7071   65.7116   36.5004 H         1 ERD1331     0.0000 
@<TRIPOS>BOND
     1    2    1 2    
     2    3    2 1    
     3   15    2 1    
     4    4    3 1    
     5   22    3 1    
     6   23    3 1    
     7    5    4 1    
     8   13    4 1    
     9   24    4 1    
    10    6    5 ar   
    11   12    5 ar   
    12    7    6 ar   
    13   25    6 1    
    14    8    7 ar   
    15   26    7 1    
    16    9    8 1    
    17   10    8 ar   
    18   30    9 1    
    19   11   10 1    
    20   12   10 ar   
    21   31   11 1    
    22   27   12 1    
    23   14   13 1    
    24   15   14 ar   
    25   16   14 ar   
    26   20   15 ar   
    27   17   16 ar   
    28   28   16 1    
    29   18   17 1    
    30   19   17 ar   
    31   32   18 1    
    32   20   19 ar   
    33   29   19 1    
    34   21   20 1    
    35   33   21 1    
@<TRIPOS>SUBSTRUCTURE
     1 ERD1331     1 GROUP   
@<TRIPOS>SET

