#    Name: 3o0h_FAD_1_INTS_M
#    Modification time : Tue Mar 25 03:04:05 2014

@<TRIPOS>MOLECULE
3o0h_FAD_1_INTS_M
  125     0     9     0     0
SMALL
NO_CHARGES


@<TRIPOS>ATOM
      1 N          18.1460   30.5075   -5.4620 N.am      2 SEC2        0.0000 
      2 N          17.4650   31.4660   -5.8780 N.am      8 SEL2        0.0000 
      3 N          18.8270   29.5490   -5.0460 N.am      5 SEP2        0.0000 
      4 N          15.9410   29.5770   -4.4070 N.am      2 SEC2        0.0000 
      5 N          15.2860   30.9840   -4.6860 N.am      8 SEL2        0.0000 
      6 N          16.5960   28.1700   -4.1280 N.am      5 SEP2        0.0000 
      7 N          14.6630   30.1705   -3.6245 N.am      2 SEC2        0.0000 
      8 N          14.0400   29.3570   -2.5630 N.am      5 SEP2        0.0000 
      9 CA         14.1125   30.4010   -7.2115 C.3       3 GLC5        0.0000 
     10 CA         15.8380   31.0590   -8.4430 C.3       9 GLL5        0.0000 
     11 CA         12.3870   29.7430   -5.9800 C.3       6 GLP5        0.0000 
     12 CA         16.8485   32.7055   -8.2465 C.3       3 GLC5        0.0000 
     13 CA         17.8590   34.3520   -8.0500 C.3       6 GLP5        0.0000 
     14 CA         14.0830   30.1350  -10.5475 C.3       3 GLC5        0.0000 
     15 CA         15.4990   29.8330   -9.2700 C.3       9 GLL5        0.0000 
     16 CA         12.6670   30.4370  -11.8250 C.3       6 GLP5        0.0000 
     17 CA         15.5990   27.9010   -7.1510 C.3       3 GLC5        0.0000 
     18 CA         16.3870   28.6240   -8.9220 C.3       9 GLL5        0.0000 
     19 CA         14.8110   27.1780   -5.3800 C.3       6 GLP5        0.0000 
     20 O          14.6420   27.1275   -9.4505 O.2       1 ALC1        0.0000 
     21 O          15.6040   27.4730   -8.6120 O.2       7 ALL1        0.0000 
     22 O          13.6800   26.7820  -10.2890 O.2       4 ALP1        0.0000 
     23 O          16.4805   26.3640  -10.7550 O.2       1 ALC1        0.0000 
     24 O          17.5400   27.1000  -10.4670 O.2       7 ALL1        0.0000 
     25 O          15.4210   25.6280  -11.0430 O.2       4 ALP1        0.0000 
     26 CA         14.4520   29.6700  -11.5370 C.3       3 GLC5        0.0000 
     27 CA         16.2370   28.9030  -11.2490 C.3       9 GLL5        0.0000 
     28 CA         17.1460   27.5040  -12.7040 C.3       3 GLC5        0.0000 
     29 CA         18.0550   26.1050  -14.1590 C.3       6 GLP5        0.0000 
     30 CA         17.2230   29.0170  -17.5355 C.3       3 GLC5        0.0000 
     31 CA         16.4600   30.0140  -15.9860 C.3       9 GLL5        0.0000 
     32 CA         17.9860   28.0200  -19.0850 C.3       6 GLP5        0.0000 
     33 O          16.3895   30.8290  -18.3530 O.2       1 ALC1        0.0000 
     34 O          17.0170   30.7580  -16.9660 O.2       7 ALL1        0.0000 
     35 O          15.7620   30.9000  -19.7400 O.2       4 ALP1        0.0000 
     36 N          15.1175   28.7405  -17.7970 N.am      2 SEC2        0.0000 
     37 N          15.4350   29.1440  -16.3630 N.am      8 SEL2        0.0000 
     38 N          14.8000   28.3370  -19.2310 N.am      5 SEP2        0.0000 
     39 CA         14.1960   30.2400  -15.8275 C.3       3 GLC5        0.0000 
     40 CA         14.8190   28.3480  -15.4330 C.3       9 GLL5        0.0000 
     41 CA         13.5730   32.1320  -16.2220 C.3       6 GLP5        0.0000 
     42 CA         12.8860   28.1355  -16.2565 C.3       3 GLC5        0.0000 
     43 CA         10.9530   27.9230  -17.0800 C.3       6 GLP5        0.0000 
     44 CA         13.8160   26.9935  -14.4590 C.3       3 GLC5        0.0000 
     45 CA         12.8130   25.6390  -13.4850 C.3       6 GLP5        0.0000 
     46 CA         16.0730   26.8565  -15.3385 C.3       3 GLC5        0.0000 
     47 CA         17.3270   25.3650  -15.2440 C.3       6 GLP5        0.0000 
     48 CA         15.4485   27.3920  -16.9660 C.3       3 GLC5        0.0000 
     49 CA         16.0780   26.4360  -18.4990 C.3       6 GLP5        0.0000 
     50 N          15.1620   26.7960  -14.1145 N.am      2 SEC2        0.0000 
     51 N          15.2090   28.3940  -14.1150 N.am      8 SEL2        0.0000 
     52 N          15.1150   25.1980  -14.1140 N.am      5 SEP2        0.0000 
     53 CA         14.4155   29.8485  -12.7710 C.3       3 GLC5        0.0000 
     54 CA         16.1640   29.2600  -13.7170 C.3       9 GLL5        0.0000 
     55 N          15.3190   35.0585    2.9700 N.am      2 SEC2        0.0000 
     56 N          15.8600   34.7400    4.3050 N.am      8 SEL2        0.0000 
     57 N          14.7780   35.3770    1.6350 N.am      5 SEP2        0.0000 
     58 O          16.3765   33.1425    6.5265 O.2       1 ALC1        0.0000 
     59 O          17.1930   33.3040    5.4380 O.2       7 ALL1        0.0000 
     60 O          15.5600   32.9810    7.6150 O.2       4 ALP1        0.0000 
     61 N          18.2950   32.8685    7.6520 N.am      2 SEC2        0.0000 
     62 N          18.5300   31.8120    6.5220 N.am      8 SEL2        0.0000 
     63 N          18.0600   33.9250    8.7820 N.am      5 SEP2        0.0000 
     64 N          20.5615   31.1090    5.6595 N.am      2 SEC2        0.0000 
     65 N          20.0970   31.4060    4.2450 N.am      8 SEL2        0.0000 
     66 N          21.0260   30.8120    7.0740 N.am      5 SEP2        0.0000 
     67 CA         23.7425   31.4620    3.0810 C.3       3 GLC5        0.0000 
     68 CA         21.8280   30.3090    3.0150 C.3       9 GLL5        0.0000 
     69 CA         25.6570   32.6150    3.1470 C.3       6 GLP5        0.0000 
     70 CA         25.1325   28.4280    0.8715 C.3       3 GLC5        0.0000 
     71 CA         23.7310   29.1490    1.8240 C.3       9 GLL5        0.0000 
     72 CA         26.5340   27.7070   -0.0810 C.3       6 GLP5        0.0000 
     73 CA         25.0530   28.2805    3.2650 C.3       3 GLC5        0.0000 
     74 CA         26.3750   27.4120    4.7060 C.3       6 GLP5        0.0000 
     75 CA         23.6360   32.0155   -1.4075 C.3       3 GLC5        0.0000 
     76 CA         22.9160   30.5940   -0.5990 C.3       9 GLL5        0.0000 
     77 CA         24.3560   33.4370   -2.2160 C.3       6 GLP5        0.0000 
     78 CA         18.3860   31.2275    2.5010 C.3       3 GLC5        0.0000 
     79 CA         20.3440   31.8860    1.8890 C.3       9 GLL5        0.0000 
     80 CA         16.4280   30.5690    3.1130 C.3       6 GLP5        0.0000 
     81 CA         17.6045   35.3600    1.2765 C.3       3 GLC5        0.0000 
     82 CA         18.8010   33.5770    0.7520 C.3       9 GLL5        0.0000 
     83 CA         16.4080   37.1430    1.8010 C.3       6 GLP5        0.0000 
     84 CA         16.4465   31.1955    0.2630 C.3       3 GLC5        0.0000 
     85 CA         17.6470   32.9330    0.0160 C.3       9 GLL5        0.0000 
     86 CA         15.2460   29.4580    0.5100 C.3       6 GLP5        0.0000 
     87 CA         17.0375   31.7510    1.5645 C.3       3 GLC5        0.0000 
     88 O          17.4730   36.1015   -1.8995 O.2       1 ALC1        0.0000 
     89 O          17.3490   35.1450   -0.8750 O.2       7 ALL1        0.0000 
     90 O          17.5970   37.0580   -2.9240 O.2       4 ALP1        0.0000 
     91 O          18.1445   35.2915   -2.2275 O.2       1 ALC1        0.0000 
     92 O          18.9400   35.4380   -3.5800 O.2       4 ALP1        0.0000 
     93 CA         14.8385   34.0165   -0.3650 C.3       3 GLC5        0.0000 
     94 CA         16.0920   33.3210   -1.8760 C.3       9 GLL5        0.0000 
     95 CA         13.5850   34.7120    1.1460 C.3       6 GLP5        0.0000 
     96 CA         17.1720   35.5945   -4.1780 C.3       3 GLC5        0.0000 
     97 CA         15.9020   34.1090   -3.1500 C.3       9 GLL5        0.0000 
     98 CA         18.4420   37.0800   -5.2060 C.3       6 GLP5        0.0000 
     99 CA         14.1400   35.2460   -2.9560 C.3       3 GLC5        0.0000 
    100 CA         12.3780   36.3830   -2.7620 C.3       6 GLP5        0.0000 
    101 N          11.8370   33.7670   -5.1780 N.am      2 SEC2        0.0000 
    102 N          13.1840   33.8530   -5.7180 N.am      8 SEL2        0.0000 
    103 N          10.4900   33.6810   -4.6380 N.am      5 SEP2        0.0000 
    104 N          15.6365   36.7680   -5.5580 N.am      2 SEC2        0.0000 
    105 N          15.0620   35.4950   -5.6680 N.am      8 SEL2        0.0000 
    106 N          16.2110   38.0410   -5.4480 N.am      5 SEP2        0.0000 
    107 CA         15.9112   32.0265  -10.1107 C.3       3 GLC5        0.0000 
    108 CA         16.1540   33.6070  -11.3650 C.3       6 GLP5        0.0000 
    109 CA         15.1115   31.0847  -15.7680 C.3       3 GLC5        0.0000 
    110 CA         16.8400   30.0610  -14.6420 C.3       9 GLL5        0.0000 
    111 CA         17.2785   27.8828  -14.1693 C.3       3 GLC5        0.0000 
    112 CA         16.1760   31.6189  -14.2022 C.3       3 GLC5        0.0000 
    113 CA         15.9450   33.5890  -13.8890 C.3       6 GLP5        0.0000 
    114 CA         19.7110   29.6882    3.7098 C.3       3 GLC5        0.0000 
    115 CA         18.1310   28.6180    4.3920 C.3       6 GLP5        0.0000 
    116 CA         21.6175   28.6308    1.5610 C.3       3 GLC5        0.0000 
    117 CA         22.5390   30.1040    1.8400 C.3       9 GLL5        0.0000 
    118 CA         20.1000   27.6350    1.2900 C.3       6 GLP5        0.0000 
    119 CA         24.3210   31.1872    1.7135 C.3       3 GLC5        0.0000 
    120 CA         25.5070   32.7480    1.5950 C.3       6 GLP5        0.0000 
    121 CA         24.0200   31.7197    0.8205 C.3       3 GLC5        0.0000 
    122 CA         22.1500   30.7890    0.6910 C.3       9 GLL5        0.0000 
    123 CA         20.8505   30.3459   -1.2340 C.3       3 GLC5        0.0000 
    124 CA         19.9040   29.5110   -2.8440 C.3       6 GLP5        0.0000 
    125 CA         20.6558   29.4554    1.4342 C.3       3 GLC5        0.0000 
@<TRIPOS>BOND
@<TRIPOS>SUBSTRUCTURE
     1 ALC1       20 GROUP        1 X    ALC  0     ROOT ALC X 1
     2 SEC2        1 GROUP        1 X    SEC  0     **** SEC X 2
     3 GLC5        9 GROUP        1 X    GLC  0     **** GLC X 6
     4 ALP1       22 GROUP        1 Y    ALP  0     ROOT ALP Y 8
     5 SEP2        3 GROUP        1 Y    SEP  0     **** SEP Y 9
     6 GLP5       11 GROUP        1 Y    GLP  0     **** GLP Y 13
     7 ALL1       21 GROUP        1 Z    ALL  0     ROOT ALL Z 15
     8 SEL2        2 GROUP        1 Z    SEL  0     **** SEL Z 16
     9 GLL5       10 GROUP        1 Z    GLL  0     **** GLL Z 20
@<TRIPOS>SET

