#    Name: 3o0h_FAD_1_ligand
#    Modification time : Tue Mar 25 03:04:05 2014

@<TRIPOS>MOLECULE
3o0h_FAD_1_ligand
   84    89     1     0     0
SMALL
NO_CHARGES


@<TRIPOS>ATOM
      1 PA         15.9620   31.5770   -5.8700 P.3       1 FAD500      0.0000 
      2 O1A        17.4650   31.4660   -5.8780 O.co2     1 FAD500      0.0000 
      3 O2A        15.2860   30.9840   -4.6860 O.co2     1 FAD500      0.0000 
      4 O5B        15.3010   30.8620   -7.1460 O.3       1 FAD500      0.0000 
      5 C5B        15.8380   31.0590   -8.4430 C.3       1 FAD500      0.0000 
      6 C4B        15.4990   29.8330   -9.2700 C.3       1 FAD500      0.0000 
      7 O4B        15.6850   30.0760  -10.6670 O.3       1 FAD500      0.0000 
      8 C3B        16.3870   28.6240   -8.9220 C.3       1 FAD500      0.0000 
      9 O3B        15.6040   27.4730   -8.6120 O.3       1 FAD500      0.0000 
     10 C2B        17.1980   28.4260  -10.1930 C.3       1 FAD500      0.0000 
     11 O2B        17.5400   27.1000  -10.4670 O.3       1 FAD500      0.0000 
     12 C1B        16.2370   28.9030  -11.2490 C.3       1 FAD500      0.0000 
     13 N9A        16.7230   29.4910  -12.5020 N.pl3     1 FAD500      0.0000 
     14 C8A        17.6990   30.4590  -12.6310 C.2       1 FAD500      0.0000 
     15 N7A        17.7500   30.7740  -13.9310 N.2       1 FAD500      0.0000 
     16 C5A        16.8400   30.0610  -14.6420 C.ar      1 FAD500      0.0000 
     17 C6A        16.4600   30.0140  -15.9860 C.ar      1 FAD500      0.0000 
     18 N6A        17.0170   30.7580  -16.9660 N.pl3     1 FAD500      0.0000 
     19 N1A        15.4350   29.1440  -16.3630 N.ar      1 FAD500      0.0000 
     20 C2A        14.8190   28.3480  -15.4330 C.ar      1 FAD500      0.0000 
     21 N3A        15.2090   28.3940  -14.1150 N.ar      1 FAD500      0.0000 
     22 C4A        16.1640   29.2600  -13.7170 C.ar      1 FAD500      0.0000 
     23 N1         17.5510   33.8080    3.1560 N.2       1 FAD500      0.0000 
     24 C2         16.8220   33.9740    4.3050 C.2       1 FAD500      0.0000 
     25 O2         15.8600   34.7400    4.3050 O.2       1 FAD500      0.0000 
     26 N3         17.1930   33.3040    5.4380 N.am      1 FAD500      0.0000 
     27 C4         18.2710   32.4240    5.4600 C.2       1 FAD500      0.0000 
     28 O4         18.5300   31.8120    6.5220 O.2       1 FAD500      0.0000 
     29 C4X        19.0060   32.2430    4.2820 C.2       1 FAD500      0.0000 
     30 N5         20.0970   31.4060    4.2450 N.2       1 FAD500      0.0000 
     31 C5X        20.7540   31.2080    3.0400 C.ar      1 FAD500      0.0000 
     32 C6         21.8280   30.3090    3.0150 C.ar      1 FAD500      0.0000 
     33 C7         22.5390   30.1040    1.8400 C.ar      1 FAD500      0.0000 
     34 C7M        23.7310   29.1490    1.8240 C.3       1 FAD500      0.0000 
     35 C8         22.1500   30.7890    0.6910 C.ar      1 FAD500      0.0000 
     36 C8M        22.9160   30.5940   -0.5990 C.3       1 FAD500      0.0000 
     37 C9         21.0610   31.6700    0.7060 C.ar      1 FAD500      0.0000 
     38 C9A        20.3440   31.8860    1.8890 C.ar      1 FAD500      0.0000 
     39 N10        19.2670   32.7810    1.9400 N.pl3     1 FAD500      0.0000 
     40 C10        18.6270   32.9630    3.1310 C.2       1 FAD500      0.0000 
     41 C1'        18.8010   33.5770    0.7520 C.3       1 FAD500      0.0000 
     42 C2'        17.6470   32.9330    0.0160 C.3       1 FAD500      0.0000 
     43 O2'        18.0350   31.6110   -0.3530 O.3       1 FAD500      0.0000 
     44 C3'        17.3840   33.7660   -1.2170 C.3       1 FAD500      0.0000 
     45 O3'        17.3490   35.1450   -0.8750 O.3       1 FAD500      0.0000 
     46 C4'        16.0920   33.3210   -1.8760 C.3       1 FAD500      0.0000 
     47 O4'        16.1280   31.9360   -2.2550 O.3       1 FAD500      0.0000 
     48 C5'        15.9020   34.1090   -3.1500 C.3       1 FAD500      0.0000 
     49 O5'        14.7020   33.6960   -3.7610 O.3       1 FAD500      0.0000 
     50 P          14.6010   34.1040   -5.3030 P.3       1 FAD500      0.0000 
     51 O1P        13.1840   33.8530   -5.7180 O.co2     1 FAD500      0.0000 
     52 O2P        15.0620   35.4950   -5.6680 O.co2     1 FAD500      0.0000 
     53 O3P        15.5920   33.1510   -6.0570 O.3       1 FAD500      0.0000 
     54 H          16.9223   31.1656   -8.4261 H         1 FAD500      0.0000 
     55 H          15.4073   31.9294   -8.9373 H         1 FAD500      0.0000 
     56 H          14.4731   29.5425   -9.0732 H         1 FAD500      0.0000 
     57 H          17.0479   28.9219   -8.1474 H         1 FAD500      0.0000 
     58 H          18.0167   29.1046  -10.1784 H         1 FAD500      0.0000 
     59 H          15.4607   28.2120  -11.4130 H         1 FAD500      0.0000 
     60 H          18.2184   30.8149  -11.9207 H         1 FAD500      0.0000 
     61 H          17.7561   31.3711  -16.6869 H         1 FAD500      0.0000 
     62 H          16.6408   30.6297  -17.8836 H         1 FAD500      0.0000 
     63 H          14.0568   27.7087  -15.7215 H         1 FAD500      0.0000 
     64 H          16.6544   33.4510    6.3242 H         1 FAD500      0.0000 
     65 H          22.0862   29.8024    3.8715 H         1 FAD500      0.0000 
     66 H          20.7877   32.1593   -0.1545 H         1 FAD500      0.0000 
     67 H          19.6425   33.7128    0.0509 H         1 FAD500      0.0000 
     68 H          18.4969   34.5845    1.0843 H         1 FAD500      0.0000 
     69 H          16.7909   32.9480    0.6414 H         1 FAD500      0.0000 
     70 H          18.1984   33.5667   -1.9231 H         1 FAD500      0.0000 
     71 H          15.2695   33.5302   -1.2270 H         1 FAD500      0.0000 
     72 H          16.7733   33.9313   -3.7908 H         1 FAD500      0.0000 
     73 H          15.8871   35.1737   -2.8902 H         1 FAD500      0.0000 
     74 H          24.1532   29.0971    0.9190 H         1 FAD500      0.0000 
     75 H          24.4442   29.4345    2.4642 H         1 FAD500      0.0000 
     76 H          23.4651   28.2188    2.0772 H         1 FAD500      0.0000 
     77 H          23.8755   30.8594   -0.5049 H         1 FAD500      0.0000 
     78 H          22.9038   29.6397   -0.8976 H         1 FAD500      0.0000 
     79 H          22.5328   31.1393   -1.3445 H         1 FAD500      0.0000 
     80 H          14.9523   27.3927   -9.3662 H         1 FAD500      0.0000 
     81 H          16.6704   26.6407  -10.6482 H         1 FAD500      0.0000 
     82 H          17.4495   31.3767   -1.1291 H         1 FAD500      0.0000 
     83 H          17.4789   35.6295   -1.7401 H         1 FAD500      0.0000 
     84 H          15.7734   31.9143   -3.1898 H         1 FAD500      0.0000 
@<TRIPOS>BOND
     1    2    1 ar   
     2    3    1 ar   
     3    4    1 1    
     4   53    1 1    
     5    5    4 1    
     6    6    5 1    
     7   54    5 1    
     8   55    5 1    
     9    7    6 1    
    10    8    6 1    
    11   56    6 1    
    12   12    7 1    
    13    9    8 1    
    14   10    8 1    
    15   57    8 1    
    16   80    9 1    
    17   11   10 1    
    18   12   10 1    
    19   58   10 1    
    20   81   11 1    
    21   13   12 1    
    22   59   12 1    
    23   14   13 1    
    24   22   13 1    
    25   15   14 2    
    26   60   14 1    
    27   16   15 1    
    28   17   16 ar   
    29   22   16 ar   
    30   18   17 1    
    31   19   17 ar   
    32   61   18 1    
    33   62   18 1    
    34   20   19 ar   
    35   21   20 ar   
    36   63   20 1    
    37   22   21 ar   
    38   24   23 1    
    39   40   23 2    
    40   25   24 2    
    41   26   24 am   
    42   27   26 am   
    43   64   26 1    
    44   28   27 2    
    45   29   27 1    
    46   30   29 2    
    47   40   29 1    
    48   31   30 1    
    49   32   31 ar   
    50   38   31 ar   
    51   33   32 ar   
    52   65   32 1    
    53   34   33 1    
    54   35   33 ar   
    55   74   34 1    
    56   75   34 1    
    57   76   34 1    
    58   36   35 1    
    59   37   35 ar   
    60   77   36 1    
    61   78   36 1    
    62   79   36 1    
    63   38   37 ar   
    64   66   37 1    
    65   39   38 1    
    66   40   39 1    
    67   41   39 1    
    68   42   41 1    
    69   67   41 1    
    70   68   41 1    
    71   43   42 1    
    72   44   42 1    
    73   69   42 1    
    74   82   43 1    
    75   45   44 1    
    76   46   44 1    
    77   70   44 1    
    78   83   45 1    
    79   47   46 1    
    80   48   46 1    
    81   71   46 1    
    82   84   47 1    
    83   49   48 1    
    84   72   48 1    
    85   73   48 1    
    86   50   49 1    
    87   51   50 ar   
    88   52   50 ar   
    89   53   50 1    
@<TRIPOS>SUBSTRUCTURE
     1 FAD500      1 GROUP   
@<TRIPOS>SET

