#    Name: 3WC0_27_CAVITY_N1_6.mol2
#    Modification time : Tue Mar 11 13:20:48 2014

@<TRIPOS>MOLECULE
3WC0_27_CAVITY_N1_6.mol2
  129     0     6     0     0
SMALL
NO_CHARGES


@<TRIPOS>ATOM
      1 CZ         -8.4842    5.5059    2.6811 C.ar      4 PHE5        0.0000 
      2 CZ         -8.2263    6.0173    1.2948 C.ar      4 PHE5        0.0000 
      3 CA         -7.9684    6.5287   -0.0915 C.3       5 GLY6        0.0000 
      4 CZ         -9.7038    6.0858    1.0452 C.ar      4 PHE5        0.0000 
      5 CA         -9.4459    6.5972   -0.3411 C.3       5 GLY6        0.0000 
      6 CA        -11.1813    6.1543    0.7956 C.3       5 GLY6        0.0000 
      7 O          -2.5088    1.0066    2.1329 O.2       2 ALA2        0.0000 
      8 O          -2.2509    1.5180    0.7466 O.2       2 ALA2        0.0000 
      9 O          -4.2442    0.5636    3.2696 O.2       2 ALA2        0.0000 
     10 O          -3.9863    1.0751    1.8833 O.2       2 ALA2        0.0000 
     11 DU         -3.7284    1.5865    0.4970 H         6 CUB7        0.0000 
     12 N          -3.4705    2.0979   -0.8894 N.2       2 ALA2        0.0000 
     13 O          -3.2126    2.6094   -2.2757 O.2       2 ALA2        0.0000 
     14 O          -2.9547    3.1208   -3.6620 O.2       2 ALA2        0.0000 
     15 OG         -5.9795    0.1207    4.4064 O.2       1 SER1        0.0000 
     16 OG         -5.7217    0.6321    3.0201 O.2       1 SER1        0.0000 
     17 DU         -5.4638    1.1436    1.6337 H         6 CUB7        0.0000 
     18 DU         -5.2059    1.6550    0.2474 H         6 CUB7        0.0000 
     19 N          -4.9480    2.1664   -1.1390 N.2       2 ALA2        0.0000 
     20 O          -4.6901    2.6778   -2.5253 O.2       2 ALA2        0.0000 
     21 O          -4.4322    3.1893   -3.9116 O.2       2 ALA2        0.0000 
     22 OG         -7.4570    0.1892    4.1568 O.2       1 SER1        0.0000 
     23 OG         -7.1992    0.7006    2.7705 O.2       1 SER1        0.0000 
     24 N          -6.9413    1.2120    1.3841 N.2       2 ALA2        0.0000 
     25 N          -6.6834    1.7235   -0.0022 N.2       2 ALA2        0.0000 
     26 N          -6.4255    2.2349   -1.3885 N.2       2 ALA2        0.0000 
     27 O          -6.1676    2.7463   -2.7749 O.2       2 ALA2        0.0000 
     28 O          -5.9097    3.2578   -4.1612 O.2       2 ALA2        0.0000 
     29 N          -8.6767    0.7691    2.5209 N.2       2 ALA2        0.0000 
     30 N          -7.6451    2.8148   -3.0245 N.2       2 ALA2        0.0000 
     31 N          -7.3872    3.3262   -4.4108 N.2       2 ALA2        0.0000 
     32 N          -7.1293    3.8377   -5.7971 N.2       2 ALA2        0.0000 
     33 DU         -1.2455   -2.3902    2.7378 H         6 CUB7        0.0000 
     34 DU         -0.9876   -1.8788    1.3514 H         6 CUB7        0.0000 
     35 CZ         -2.9809   -2.8332    3.8745 C.ar      4 PHE5        0.0000 
     36 CZ         -2.7230   -2.3217    2.4882 C.ar      4 PHE5        0.0000 
     37 CZ         -2.4651   -1.8103    1.1018 C.ar      4 PHE5        0.0000 
     38 O          -3.9427   -1.7418    0.8522 O.2       2 ALA2        0.0000 
     39 O          -2.3163    5.7434    2.2931 O.2       2 ALA2        0.0000 
     40 OG         -2.0584    6.2548    0.9068 O.2       1 SER1        0.0000 
     41 O          -4.0517    5.3004    3.4299 O.2       2 ALA2        0.0000 
     42 CA         -3.7938    5.8119    2.0436 C.3       5 GLY6        0.0000 
     43 OG         -3.5359    6.3233    0.6572 O.2       1 SER1        0.0000 
     44 N          -5.5292    5.3689    3.1803 N.2       2 ALA2        0.0000 
     45 OG         -5.2713    5.8804    1.7940 O.2       1 SER1        0.0000 
     46 DU         -6.7488    5.9488    1.5444 H         6 CUB7        0.0000 
     47 OG         -6.4909    6.4603    0.1581 O.2       1 SER1        0.0000 
     48 CZ         -8.4406    2.6890    1.6501 C.ar      4 PHE5        0.0000 
     49 N          -8.1827    3.2004    0.2637 N.2       2 ALA2        0.0000 
     50 N          -7.9248    3.7118   -1.1226 N.2       2 ALA2        0.0000 
     51 N          -7.6669    4.2233   -2.5089 N.2       2 ALA2        0.0000 
     52 N          -7.4090    4.7347   -3.8953 N.2       2 ALA2        0.0000 
     53 NZ         -7.1511    5.2461   -5.2816 N.2       3 LYS4        0.0000 
     54 CZ         -9.9181    2.7575    1.4005 C.ar      4 PHE5        0.0000 
     55 N          -9.6602    3.2689    0.0142 N.2       2 ALA2        0.0000 
     56 N          -9.4023    3.7803   -1.3722 N.2       2 ALA2        0.0000 
     57 NZ         -8.6286    5.3146   -5.5312 N.2       3 LYS4        0.0000 
     58 N          -3.2606   -1.9361    5.7764 N.2       2 ALA2        0.0000 
     59 O          -2.4870   -0.4019    1.6174 O.2       2 ALA2        0.0000 
     60 N          -2.2291    0.1096    0.2310 N.2       2 ALA2        0.0000 
     61 CA         -4.7381   -1.8677    5.5268 C.3       5 GLY6        0.0000 
     62 CZ         -4.4802   -1.3562    4.1404 C.ar      4 PHE5        0.0000 
     63 CZ         -4.2223   -0.8448    2.7541 C.ar      4 PHE5        0.0000 
     64 O          -3.9645   -0.3334    1.3678 O.2       2 ALA2        0.0000 
     65 N          -3.7066    0.1780   -0.0186 N.2       2 ALA2        0.0000 
     66 CZ         -9.7474    8.9027    2.0763 C.ar      4 PHE5        0.0000 
     67 N          -9.4895    9.4141    0.6899 N.2       2 ALA2        0.0000 
     68 CA         -6.2156   -1.7992    5.2772 C.3       5 GLY6        0.0000 
     69 CA         -5.9577   -1.2878    3.8909 C.3       5 GLY6        0.0000 
     70 CZ         -5.6998   -0.7763    2.5045 C.ar      4 PHE5        0.0000 
     71 O          -5.4420   -0.2649    1.1182 O.2       2 ALA2        0.0000 
     72 N          -5.1841    0.2465   -0.2682 N.2       2 ALA2        0.0000 
     73 CA         -7.1774   -0.7078    2.2549 C.3       5 GLY6        0.0000 
     74 O          -6.9195   -0.1964    0.8686 O.2       2 ALA2        0.0000 
     75 N          -6.6616    0.3150   -0.5177 N.2       2 ALA2        0.0000 
     76 N          -6.4037    0.8264   -1.9041 N.2       2 ALA2        0.0000 
     77 O          -6.1458    1.3379   -3.2904 O.2       2 ALA2        0.0000 
     78 N          -7.6233    1.4063   -3.5400 N.2       2 ALA2        0.0000 
     79 N          -7.3654    1.9178   -4.9263 N.2       2 ALA2        0.0000 
     80 O          -2.2727    2.9265    1.2621 O.2       2 ALA2        0.0000 
     81 O          -4.2660    1.9721    3.7852 O.2       2 ALA2        0.0000 
     82 O          -4.0081    2.4835    2.3988 O.2       2 ALA2        0.0000 
     83 DU         -3.7502    2.9950    1.0125 H         6 CUB7        0.0000 
     84 DU         -3.4923    3.5064   -0.3738 H         6 CUB7        0.0000 
     85 OG         -3.2344    4.0178   -1.7602 O.2       1 SER1        0.0000 
     86 OG         -2.9765    4.5292   -3.1465 O.2       1 SER1        0.0000 
     87 CA         -2.7186    5.0407   -4.5329 C.3       5 GLY6        0.0000 
     88 OG         -5.4856    2.5520    2.1492 O.2       1 SER1        0.0000 
     89 DU         -5.2277    3.0634    0.7629 H         6 CUB7        0.0000 
     90 OG         -4.9698    3.5749   -0.6234 O.2       1 SER1        0.0000 
     91 OG         -4.7119    4.0863   -2.0098 O.2       1 SER1        0.0000 
     92 OG         -4.4540    4.5977   -3.3961 O.2       1 SER1        0.0000 
     93 OG         -6.9631    2.6205    1.8997 O.2       1 SER1        0.0000 
     94 DU         -6.7052    3.1319    0.5133 H         6 CUB7        0.0000 
     95 DU         -6.4473    3.6434   -0.8730 H         6 CUB7        0.0000 
     96 OG         -6.1894    4.1548   -2.2594 O.2       1 SER1        0.0000 
     97 CA         -5.9315    4.6662   -3.6457 C.3       5 GLY6        0.0000 
     98 NZ         -5.6736    5.1776   -5.0320 N.2       3 LYS4        0.0000 
     99 CA         -2.5524    3.8235    3.1640 C.3       5 GLY6        0.0000 
    100 DU         -2.2945    4.3349    1.7776 H         6 CUB7        0.0000 
    101 DU         -2.0366    4.8464    0.3913 H         6 CUB7        0.0000 
    102 CA         -4.0299    3.8920    2.9144 C.3       5 GLY6        0.0000 
    103 DU         -3.7720    4.4034    1.5280 H         6 CUB7        0.0000 
    104 OG         -3.5141    4.9148    0.1417 O.2       1 SER1        0.0000 
    105 CA         -3.8156    7.2203    2.5591 C.3       5 GLY6        0.0000 
    106 CA         -5.2931    7.2888    2.3095 C.3       5 GLY6        0.0000 
    107 CZ         -7.0285    6.8459    3.4463 C.ar      4 PHE5        0.0000 
    108 CZ         -6.7706    7.3573    2.0599 C.ar      4 PHE5        0.0000 
    109 CZ         -8.5060    6.9143    3.1967 C.ar      4 PHE5        0.0000 
    110 CZ         -8.2481    7.4258    1.8103 C.ar      4 PHE5        0.0000 
    111 N          -7.9902    7.9372    0.4240 N.2       2 ALA2        0.0000 
    112 CZ         -9.7256    7.4943    1.5607 C.ar      4 PHE5        0.0000 
    113 N          -9.4677    8.0057    0.1744 N.2       2 ALA2        0.0000 
    114 CA        -11.2031    7.5627    1.3112 C.3       5 GLY6        0.0000 
    115 OG         -5.5074    3.9605    2.6648 O.2       1 SER1        0.0000 
    116 DU         -5.2495    4.4719    1.2784 H         6 CUB7        0.0000 
    117 OG         -4.9916    4.9833   -0.1079 O.2       1 SER1        0.0000 
    118 CA         -6.9849    4.0290    2.4152 C.3       5 GLY6        0.0000 
    119 DU         -6.7270    4.5404    1.0289 H         6 CUB7        0.0000 
    120 OG         -6.4691    5.0518   -0.3575 O.2       1 SER1        0.0000 
    121 CZ         -8.4624    4.0974    2.1656 C.ar      4 PHE5        0.0000 
    122 DU         -8.2045    4.6089    0.7793 H         6 CUB7        0.0000 
    123 CA         -7.9466    5.1203   -0.6071 C.3       5 GLY6        0.0000 
    124 CA         -7.6887    5.6317   -1.9934 C.3       5 GLY6        0.0000 
    125 CZ         -9.6820    4.6773    0.5297 C.ar      4 PHE5        0.0000 
    126 CA         -9.4241    5.1888   -0.8567 C.3       5 GLY6        0.0000 
    127 CA         -9.1662    5.7002   -2.2430 C.3       5 GLY6        0.0000 
    128 O         -11.1595    4.7458    0.2801 O.2       2 ALA2        0.0000 
    129 CA        -10.9016    5.2573   -1.1062 C.3       5 GLY6        0.0000 
@<TRIPOS>BOND
@<TRIPOS>SUBSTRUCTURE
     1 SER1       15 GROUP   
     2 ALA2        7 GROUP   
     3 LYS4       53 GROUP   
     4 PHE5        1 GROUP   
     5 GLY6        3 GROUP   
     6 CUB7       11 GROUP   
@<TRIPOS>SET

