#    Name: 3wc0_GTP_27_INTS_M
#    Modification time : Tue Mar 25 02:29:09 2014

@<TRIPOS>MOLECULE
3wc0_GTP_27_INTS_M
   43     0    12     0     0
SMALL
NO_CHARGES


@<TRIPOS>ATOM
      1 Zn         -0.3085   10.6045    3.3260 Zn        3 ZIC7        0.0000 
      2 Zn          0.5010   10.9300    3.9860 Zn       11 ZIL7        0.0000 
      3 Zn         -1.1180   10.2790    2.6660 Zn        7 ZIP7        0.0000 
      4 N           0.3535   10.2430    6.7805 N.am      2 SEC2        0.0000 
      5 N           1.8130   10.4670    6.0040 N.am     10 SEL2        0.0000 
      6 N          -1.1060   10.0190    7.5570 N.am      6 SEP2        0.0000 
      7 N          -1.9100    5.9835    5.3285 N.am      2 SEC2        0.0000 
      8 N          -0.6500    6.4790    4.7970 N.am     10 SEL2        0.0000 
      9 N          -3.1700    5.4880    5.8600 N.am      6 SEP2        0.0000 
     10 Zn         -1.4115    9.4230    3.2860 Zn        3 ZIC7        0.0000 
     11 Zn         -1.7050    8.5670    3.9060 Zn       11 ZIL7        0.0000 
     12 N          -2.3640    8.3720    5.1995 N.am      2 SEC2        0.0000 
     13 N          -1.7050    8.5670    3.9060 N.am     10 SEL2        0.0000 
     14 N          -3.0230    8.1770    6.4930 N.am      6 SEP2        0.0000 
     15 Zn         -1.4075    9.5025   -0.0675 Zn        3 ZIC7        0.0000 
     16 Zn         -1.1070    8.9940    1.0330 Zn       11 ZIL7        0.0000 
     17 Zn         -1.7080   10.0110   -1.1680 Zn        7 ZIP7        0.0000 
     18 Zn         -1.1125    9.6365    1.8495 Zn        3 ZIC7        0.0000 
     19 CA         -4.1130    8.3365    1.3965 C.3       4 GLC5        0.0000 
     20 CA         -2.8940    6.6570    1.3270 C.3      12 GLL5        0.0000 
     21 CA         -5.3320   10.0160    1.4660 C.3       8 GLP5        0.0000 
     22 CA         -3.2160    4.7110    3.9730 C.3       4 GLC5        0.0000 
     23 CA         -3.3040    5.3840    2.0510 C.3      12 GLL5        0.0000 
     24 CA         -3.1280    4.0380    5.8950 C.3       8 GLP5        0.0000 
     25 N          -3.0035    1.8160    3.5085 N.am      2 SEC2        0.0000 
     26 N          -4.0560    2.3450    2.4440 N.am     10 SEL2        0.0000 
     27 N          -1.9510    1.2870    4.5730 N.am      6 SEP2        0.0000 
     28 CA         -4.2535    4.2070    4.1370 C.3       4 GLC5        0.0000 
     29 CA         -5.3790    4.3760    2.3790 C.3      12 GLL5        0.0000 
     30 CA         -6.6060    3.8545    3.8775 C.3       4 GLC5        0.0000 
     31 CA         -7.8330    3.3330    5.3760 C.3       8 GLP5        0.0000 
     32 N         -11.7870    3.3215   -0.7220 N.am      2 SEC2        0.0000 
     33 N         -10.3640    4.2700   -0.8300 N.am     10 SEL2        0.0000 
     34 N         -13.2100    2.3730   -0.6140 N.am      6 SEP2        0.0000 
     35 O         -10.8090    1.2120    0.8810 O.2       1 ALC1        0.0000 
     36 O          -9.8840    2.5330    0.5550 O.2       9 ALL1        0.0000 
     37 O         -11.7340   -0.1090    1.2070 O.2       5 ALP1        0.0000 
     38 O         -10.5120    0.3355    1.6140 O.2       1 ALC1        0.0000 
     39 O          -9.2900    0.7800    2.0210 O.2       9 ALL1        0.0000 
     40 CA         -7.7020    3.5750    3.3350 C.3       4 GLC5        0.0000 
     41 CA         -7.5710    3.8170    1.2940 C.3      12 GLL5        0.0000 
     42 CA         -3.9445    7.1703    3.2595 C.3       4 GLC5        0.0000 
     43 CA         -4.7900    8.3200    4.8300 C.3       8 GLP5        0.0000 
@<TRIPOS>BOND
@<TRIPOS>SUBSTRUCTURE
     1 ALC1       35 GROUP        1 X    ALC  0     ROOT ALC X 1
     2 SEC2        4 GROUP        1 X    SEC  0     **** SEC X 2
     3 ZIC7        1 GROUP        1 X    ZIC  0     **** ZIC X 5
     4 GLC5       19 GROUP        1 X    GLC  0     **** GLC X 6
     5 ALP1       37 GROUP        1 Y    ALP  0     ROOT ALP Y 8
     6 SEP2        6 GROUP        1 Y    SEP  0     **** SEP Y 9
     7 ZIP7        3 GROUP        1 Y    ZIP  0     **** ZIP Y 12
     8 GLP5       21 GROUP        1 Y    GLP  0     **** GLP Y 13
     9 ALL1       36 GROUP        1 Z    ALL  0     ROOT ALL Z 15
    10 SEL2        5 GROUP        1 Z    SEL  0     **** SEL Z 16
    11 ZIL7        2 GROUP        1 Z    ZIL  0     **** ZIL Z 19
    12 GLL5       20 GROUP        1 Z    GLL  0     **** GLL Z 20
@<TRIPOS>SET

