#    Name: 3wc0_GTP_27_ligand
#    Modification time : Tue Mar 25 02:29:09 2014

@<TRIPOS>MOLECULE
3wc0_GTP_27_ligand
   44    46     1     0     0
SMALL
NO_CHARGES


@<TRIPOS>ATOM
      1 PG          1.4130    9.9350    4.6500 P.3       1 GTP401      0.0000 
      2 O1G         0.5010   10.9300    3.9860 O.co2     1 GTP401      0.0000 
      3 O2G         1.8130   10.4670    6.0040 O.co2     1 GTP401      0.0000 
      4 O3G         2.6360    9.7820    3.7740 O.co2     1 GTP401      0.0000 
      5 O3B         0.6720    8.5240    4.9360 O.3       1 GTP401      0.0000 
      6 PB         -0.4350    7.7620    4.0370 P.3       1 GTP401      0.0000 
      7 O1B        -0.6500    6.4790    4.7970 O.co2     1 GTP401      0.0000 
      8 O2B        -1.7050    8.5670    3.9060 O.co2     1 GTP401      0.0000 
      9 O3A         0.2030    7.4130    2.5970 O.3       1 GTP401      0.0000 
     10 PA         -0.4530    7.6450    1.1350 P.3       1 GTP401      0.0000 
     11 O1A        -1.1070    8.9940    1.0330 O.co2     1 GTP401      0.0000 
     12 O2A         0.6040    7.5070    0.0660 O.co2     1 GTP401      0.0000 
     13 O5'        -1.5630    6.5100    0.9050 O.3       1 GTP401      0.0000 
     14 C5'        -2.8940    6.6570    1.3270 C.3       1 GTP401      0.0000 
     15 C4'        -3.3040    5.3840    2.0510 C.3       1 GTP401      0.0000 
     16 O4'        -4.6070    5.5430    2.5720 O.3       1 GTP401      0.0000 
     17 C3'        -3.3450    4.1940    1.1080 C.3       1 GTP401      0.0000 
     18 O3'        -2.1670    3.4260    1.1890 O.3       1 GTP401      0.0000 
     19 C2'        -4.5160    3.3840    1.6100 C.3       1 GTP401      0.0000 
     20 O2'        -4.0560    2.3450    2.4440 O.3       1 GTP401      0.0000 
     21 C1'        -5.3790    4.3760    2.3790 C.3       1 GTP401      0.0000 
     22 N9         -6.5110    4.6550    1.4830 N.pl3     1 GTP401      0.0000 
     23 C8         -6.6950    5.7510    0.6840 C.2       1 GTP401      0.0000 
     24 N7         -7.8560    5.5970    0.0110 N.2       1 GTP401      0.0000 
     25 C5         -8.4150    4.4150    0.3670 C.2       1 GTP401      0.0000 
     26 C6         -9.5920    3.7630   -0.0090 C.2       1 GTP401      0.0000 
     27 O6        -10.3640    4.2700   -0.8300 O.2       1 GTP401      0.0000 
     28 N1         -9.8840    2.5330    0.5550 N.am      1 GTP401      0.0000 
     29 C2         -9.0190    1.9610    1.4740 C.2       1 GTP401      0.0000 
     30 N2         -9.2900    0.7800    2.0210 N.pl3     1 GTP401      0.0000 
     31 N3         -7.8650    2.6140    1.8380 N.2       1 GTP401      0.0000 
     32 C4         -7.5710    3.8170    1.2940 C.2       1 GTP401      0.0000 
     33 H          -3.5835    6.8003    0.4907 H         1 GTP401      0.0000 
     34 H          -3.0215    7.4907    2.0228 H         1 GTP401      0.0000 
     35 H          -2.5945    5.1788    2.8285 H         1 GTP401      0.0000 
     36 H          -3.5718    4.5419    0.1341 H         1 GTP401      0.0000 
     37 H          -5.0709    3.0407    0.7676 H         1 GTP401      0.0000 
     38 H          -5.6999    3.9237    3.2650 H         1 GTP401      0.0000 
     39 H          -6.0937    6.4983    0.6201 H         1 GTP401      0.0000 
     40 H         -10.7509    2.0386    0.2898 H         1 GTP401      0.0000 
     41 H          -9.8085    0.1407    1.4532 H         1 GTP401      0.0000 
     42 H          -8.9509    0.6375    2.9509 H         1 GTP401      0.0000 
     43 H          -2.3218    2.7943    1.9486 H         1 GTP401      0.0000 
     44 H          -4.6626    2.3635    3.2388 H         1 GTP401      0.0000 
@<TRIPOS>BOND
     1    2    1 ar   
     2    3    1 ar   
     3    4    1 ar   
     4    5    1 1    
     5    6    5 1    
     6    7    6 ar   
     7    8    6 ar   
     8    9    6 1    
     9   10    9 1    
    10   11   10 ar   
    11   12   10 ar   
    12   13   10 1    
    13   14   13 1    
    14   15   14 1    
    15   33   14 1    
    16   34   14 1    
    17   16   15 1    
    18   17   15 1    
    19   35   15 1    
    20   21   16 1    
    21   18   17 1    
    22   19   17 1    
    23   36   17 1    
    24   43   18 1    
    25   20   19 1    
    26   21   19 1    
    27   37   19 1    
    28   44   20 1    
    29   22   21 1    
    30   38   21 1    
    31   23   22 1    
    32   32   22 1    
    33   24   23 2    
    34   39   23 1    
    35   25   24 1    
    36   26   25 1    
    37   32   25 2    
    38   27   26 2    
    39   28   26 am   
    40   29   28 1    
    41   40   28 1    
    42   30   29 1    
    43   31   29 2    
    44   41   30 1    
    45   42   30 1    
    46   32   31 1    
@<TRIPOS>SUBSTRUCTURE
     1 GTP401      1 GROUP   
@<TRIPOS>SET

