#    Name: 1n5d_NDP_1_INTS_M
#    Modification time : Tue Mar 25 12:25:04 2014

@<TRIPOS>MOLECULE
1n5d_NDP_1_INTS_M
  109     0    12     0     0
SMALL
NO_CHARGES


@<TRIPOS>ATOM
      1 O         101.1320   53.8290   12.5140 O.2       1 ALC1        0.0000 
      2 O         100.2900   53.1820   11.6360 O.2       9 ALL1        0.0000 
      3 O         101.9740   54.4760   13.3920 O.2       5 ALP1        0.0000 
      4 N         101.3680   49.8345   14.5280 N.am      2 SEC2        0.0000 
      5 N         101.1180   50.8560   13.1550 N.am     10 SEL2        0.0000 
      6 N         101.6180   48.8130   15.9010 N.am      6 SEP2        0.0000 
      7 CA         98.0355   52.6045   13.0920 C.3       4 GLC5        0.0000 
      8 CA         98.7590   50.9600   12.6890 C.3      12 GLL5        0.0000 
      9 CA         97.3120   54.2490   13.4950 C.3       8 GLP5        0.0000 
     10 CA         96.7650   51.1430   13.3035 C.3       4 GLC5        0.0000 
     11 CA         94.7710   51.3260   13.9180 C.3       8 GLP5        0.0000 
     12 CA         95.5340   48.6995   17.3055 C.3       4 GLC5        0.0000 
     13 CA         97.4300   48.6030   16.7720 C.3      12 GLL5        0.0000 
     14 CA         93.6380   48.7960   17.8390 C.3       8 GLP5        0.0000 
     15 O          97.5835   47.6455   18.8075 O.2       1 ALC1        0.0000 
     16 O          97.1850   47.4090   17.3360 O.2       9 ALL1        0.0000 
     17 O          97.9820   47.8820   20.2790 O.2       5 ALP1        0.0000 
     18 N          96.3800   49.9300   18.7525 N.am      2 SEC2        0.0000 
     19 N          97.3260   49.7440   17.5030 N.am     10 SEL2        0.0000 
     20 N          95.4340   50.1160   20.0020 N.am      6 SEP2        0.0000 
     21 CA         99.2470   50.9640   17.9075 C.3       4 GLC5        0.0000 
     22 CA         97.5780   50.9430   16.9330 C.3      12 GLL5        0.0000 
     23 CA        100.9160   50.9850   18.8820 C.3       8 GLP5        0.0000 
     24 CA         97.6320   50.7910   18.8605 C.3       4 GLC5        0.0000 
     25 CA         97.6860   50.6390   20.7880 C.3       8 GLP5        0.0000 
     26 CA         95.5555   51.1130   17.5750 C.3       4 GLC5        0.0000 
     27 CA         93.5330   51.2830   18.2170 C.3       8 GLP5        0.0000 
     28 CA         96.1745   51.1345   15.4255 C.3       4 GLC5        0.0000 
     29 N          98.3565   50.9555    3.2725 N.am      2 SEC2        0.0000 
     30 N          97.4830   50.9650    4.0930 N.am     10 SEL2        0.0000 
     31 N          99.2300   50.9460    2.4520 N.am      6 SEP2        0.0000 
     32 N          97.5375   54.5545    5.3080 N.am      2 SEC2        0.0000 
     33 N          97.3810   53.1560    5.4150 N.am     10 SEL2        0.0000 
     34 N          97.6940   55.9530    5.2010 N.am      6 SEP2        0.0000 
     35 N          90.9705   49.1140    8.0100 N.am      2 SEC2        0.0000 
     36 N          92.0310   50.2320    8.1610 N.am     10 SEL2        0.0000 
     37 N          89.9100   47.9960    7.8590 N.am      6 SEP2        0.0000 
     38 O          92.5460   51.0365    9.0855 O.2       1 ALC1        0.0000 
     39 O          92.0310   50.2320    8.1610 O.2       9 ALL1        0.0000 
     40 O          93.0610   51.8410   10.0100 O.2       5 ALP1        0.0000 
     41 N          91.1630   48.1375    7.0675 N.am      2 SEC2        0.0000 
     42 N          92.4160   48.2790    6.2760 N.am     10 SEL2        0.0000 
     43 O          92.3160   47.3580    5.2505 O.2       1 ALC1        0.0000 
     44 O          92.4160   48.2790    6.2760 O.2       9 ALL1        0.0000 
     45 O          92.2160   46.4370    4.2250 O.2       5 ALP1        0.0000 
     46 CA         91.1680   51.8115    5.7775 C.3       4 GLC5        0.0000 
     47 CA         92.2810   50.5590    5.2330 C.3      12 GLL5        0.0000 
     48 CA         90.0550   53.0640    6.3220 C.3       8 GLP5        0.0000 
     49 CA         91.6295   52.0415    3.7500 C.3       4 GLC5        0.0000 
     50 CA         90.9780   53.5240    2.2670 C.3       8 GLP5        0.0000 
     51 CA         94.6975   48.8545    4.1250 C.3       4 GLC5        0.0000 
     52 CA         93.6290   50.3960    3.1190 C.3      12 GLL5        0.0000 
     53 CA         95.7660   47.3130    5.1310 C.3       8 GLP5        0.0000 
     54 N          95.1775   51.0620   -1.2230 N.am      2 SEC2        0.0000 
     55 N          94.9660   50.0100   -0.3040 N.am     10 SEL2        0.0000 
     56 N          95.3890   52.1140   -2.1420 N.am      6 SEP2        0.0000 
     57 O          97.0495   51.0640    0.2065 O.2       1 ALC1        0.0000 
     58 O          96.0680   50.5800    1.5390 O.2       9 ALL1        0.0000 
     59 O          98.0310   51.5480   -1.1260 O.2       5 ALP1        0.0000 
     60 CA         89.5700   50.0990    0.8325 C.3       4 GLC5        0.0000 
     61 CA         91.2610   49.5780    1.7200 C.3      12 GLL5        0.0000 
     62 CA         87.8790   50.6200   -0.0550 C.3       8 GLP5        0.0000 
     63 NZ        102.3045   48.3440   13.2535 N.4       3 LYC4        0.0000 
     64 NZ        102.7530   49.3040   12.3970 N.4      11 LYL4        0.0000 
     65 NZ        101.5500   47.5900   15.3840 N.4       7 LYP4        0.0000 
     66 N         102.3045   48.3440   13.2535 N.am      2 SEC2        0.0000 
     67 N         102.7530   49.3040   12.3970 N.am     10 SEL2        0.0000 
     68 N         101.8560   47.3840   14.1100 N.am      6 SEP2        0.0000 
     69 NZ        102.4585   49.8130   15.0850 N.4       3 LYC4        0.0000 
     70 NZ        103.2990   50.8130   14.2690 N.4      11 LYL4        0.0000 
     71 NZ        104.4205   50.5175   14.7660 N.4       3 LYC4        0.0000 
     72 NZ        106.5490   50.9960   14.8830 N.4       7 LYP4        0.0000 
     73 N         102.4585   49.8130   15.0850 N.am      2 SEC2        0.0000 
     74 N         103.2990   50.8130   14.2690 N.am     10 SEL2        0.0000 
     75 N         104.8205   51.4065   14.1490 N.am      2 SEC2        0.0000 
     76 N         106.3420   52.0000   14.0290 N.am      6 SEP2        0.0000 
     77 N         104.4205   50.5175   14.7660 N.am      2 SEC2        0.0000 
     78 N         105.5420   50.2220   15.2630 N.am      6 SEP2        0.0000 
     79 NZ        103.5785   50.9600   10.2015 N.4       3 LYC4        0.0000 
     80 NZ        103.2060   51.6880   11.9570 N.4      11 LYL4        0.0000 
     81 NZ        103.9510   50.2320    8.4460 N.4       7 LYP4        0.0000 
     82 N         103.5240   53.0600   12.0555 N.am      2 SEC2        0.0000 
     83 N         103.2060   51.6880   11.9570 N.am     10 SEL2        0.0000 
     84 N         103.8420   54.4320   12.1540 N.am      6 SEP2        0.0000 
     85 CA         98.3243   53.0160   12.1697 C.3       4 GLC5        0.0000 
     86 CA        100.0170   51.8450   11.1370 C.3      12 GLL5        0.0000 
     87 CA        101.5837   51.3293   10.2592 C.3       4 GLC5        0.0000 
     88 CA        103.0870   51.3560    8.8900 C.3       8 GLP5        0.0000 
     89 CA         96.3452   50.3250   14.5427 C.3       4 GLC5        0.0000 
     90 CA         97.8020   48.6920   15.3990 C.3      12 GLL5        0.0000 
     91 CA         99.5577   49.2154   16.3989 C.3       4 GLC5        0.0000 
     92 CA         98.0370   49.9560   14.9360 C.3      12 GLL5        0.0000 
     93 CA        101.2890   49.1290   17.2870 C.3       8 GLP5        0.0000 
     94 CA         94.3882   52.9267    5.0365 C.3       4 GLC5        0.0000 
     95 CA         94.9470   52.1310    6.8770 C.3      12 GLL5        0.0000 
     96 CA         94.5830   53.9280    3.1840 C.3       8 GLP5        0.0000 
     97 CA         91.6908   52.0295    6.7220 C.3       4 GLC5        0.0000 
     98 CA         93.4400   51.7200    6.9010 C.3      12 GLL5        0.0000 
     99 CA         93.3510   48.8785    8.2927 C.3       4 GLC5        0.0000 
    100 CA         93.2130   50.2700    7.3430 C.3      12 GLL5        0.0000 
    101 CA         93.5520   47.8710    9.8840 C.3       8 GLP5        0.0000 
    102 CA         94.4580   48.5995    5.9162 C.3       4 GLC5        0.0000 
    103 CA         94.1115   52.0867    2.7975 C.3       4 GLC5        0.0000 
    104 CA         92.0130   51.7481    2.0060 C.3       4 GLC5        0.0000 
    105 CA         89.9550   48.4368    2.7637 C.3       4 GLC5        0.0000 
    106 CA         91.2110   49.8590    3.0590 C.3      12 GLL5        0.0000 
    107 CA         88.6740   47.1550    3.1380 C.3       8 GLP5        0.0000 
    108 CA         90.3940   51.3928    2.4373 C.3       4 GLC5        0.0000 
    109 CA         89.5520   53.0670    2.4850 C.3       8 GLP5        0.0000 
@<TRIPOS>BOND
@<TRIPOS>SUBSTRUCTURE
     1 ALC1        1 GROUP        1 X    ALC  0     ROOT ALC X 1
     2 SEC2        4 GROUP        1 X    SEC  0     **** SEC X 2
     3 LYC4       63 GROUP        1 X    LYC  0     **** LYC X 4
     4 GLC5        7 GROUP        1 X    GLC  0     **** GLC X 6
     5 ALP1        3 GROUP        1 Y    ALP  0     ROOT ALP Y 8
     6 SEP2        6 GROUP        1 Y    SEP  0     **** SEP Y 9
     7 LYP4       65 GROUP        1 Y    LYP  0     **** LYP Y 11
     8 GLP5        9 GROUP        1 Y    GLP  0     **** GLP Y 13
     9 ALL1        2 GROUP        1 Z    ALL  0     ROOT ALL Z 15
    10 SEL2        5 GROUP        1 Z    SEL  0     **** SEL Z 16
    11 LYL4       64 GROUP        1 Z    LYL  0     **** LYL Z 18
    12 GLL5        8 GROUP        1 Z    GLL  0     **** GLL Z 20
@<TRIPOS>SET

