#    Name: 1n5d_NDP_1_ligand
#    Modification time : Tue Mar 25 12:25:04 2014

@<TRIPOS>MOLECULE
1n5d_NDP_1_ligand
   74    78     1     0     0
SMALL
NO_CHARGES


@<TRIPOS>ATOM
      1 PA         99.4600   50.8010    6.8490 P.3       1 NDP300      0.0000 
      2 O1A       100.3620   51.6320    6.0960 O.co2     1 NDP300      0.0000 
      3 O2A        99.6720   49.3240    6.9840 O.co2     1 NDP300      0.0000 
      4 O5B        99.3530   51.4720    8.3490 O.3       1 NDP300      0.0000 
      5 C5B        98.5070   50.8340    9.3260 C.3       1 NDP300      0.0000 
      6 C4B        98.6560   51.7210   10.5520 C.3       1 NDP300      0.0000 
      7 O4B        97.8410   51.1160   11.6030 O.3       1 NDP300      0.0000 
      8 C3B       100.0170   51.8450   11.1370 C.3       1 NDP300      0.0000 
      9 O3B       100.2900   53.1820   11.6360 O.3       1 NDP300      0.0000 
     10 C2B       100.1440   50.7600   12.1200 C.3       1 NDP300      0.0000 
     11 O2B       101.1180   50.8560   13.1550 O.3       1 NDP300      0.0000 
     12 C1B        98.7590   50.9600   12.6890 C.3       1 NDP300      0.0000 
     13 N9A        98.3950   49.8430   13.6040 N.pl3     1 NDP300      0.0000 
     14 C8A        98.3420   48.4580   13.3280 C.2       1 NDP300      0.0000 
     15 N7A        97.9910   47.7760   14.3930 N.2       1 NDP300      0.0000 
     16 C5A        97.8020   48.6920   15.3990 C.ar      1 NDP300      0.0000 
     17 C6A        97.4300   48.6030   16.7720 C.ar      1 NDP300      0.0000 
     18 N6A        97.1850   47.4090   17.3360 N.pl3     1 NDP300      0.0000 
     19 N1A        97.3260   49.7440   17.5030 N.ar      1 NDP300      0.0000 
     20 C2A        97.5780   50.9430   16.9330 C.ar      1 NDP300      0.0000 
     21 N3A        97.9410   51.1320   15.6630 N.ar      1 NDP300      0.0000 
     22 C4A        98.0370   49.9560   14.9360 C.ar      1 NDP300      0.0000 
     23 O3         97.9380   51.0130    6.4500 O.3       1 NDP300      0.0000 
     24 PN         97.1010   51.6870    5.2870 P.3       1 NDP300      0.0000 
     25 O1N        97.4830   50.9650    4.0930 O.co2     1 NDP300      0.0000 
     26 O2N        97.3810   53.1560    5.4150 O.co2     1 NDP300      0.0000 
     27 O5D        95.5640   51.4760    5.7120 O.3       1 NDP300      0.0000 
     28 C5D        94.9470   52.1310    6.8770 C.3       1 NDP300      0.0000 
     29 C4D        93.4400   51.7200    6.9010 C.3       1 NDP300      0.0000 
     30 O4D        92.9530   51.7790    5.5620 O.3       1 NDP300      0.0000 
     31 C3D        93.2130   50.2700    7.3430 C.3       1 NDP300      0.0000 
     32 O3D        92.0310   50.2320    8.1610 O.3       1 NDP300      0.0000 
     33 C2D        93.0870   49.5020    6.0600 C.3       1 NDP300      0.0000 
     34 O2D        92.4160   48.2790    6.2760 O.3       1 NDP300      0.0000 
     35 C1D        92.2810   50.5590    5.2330 C.3       1 NDP300      0.0000 
     36 N1N        92.3640   50.2620    3.7640 N.pl3     1 NDP300      0.0000 
     37 C2N        93.6290   50.3960    3.1190 C.2       1 NDP300      0.0000 
     38 C3N        93.6510   50.0950    1.7030 C.2       1 NDP300      0.0000 
     39 C7N        94.9060   50.2150    0.9310 C.2       1 NDP300      0.0000 
     40 O7N        94.9660   50.0100   -0.3040 O.2       1 NDP300      0.0000 
     41 N7N        96.0680   50.5800    1.5390 N.am      1 NDP300      0.0000 
     42 C4N        92.4560   49.6990    1.0790 C.3       1 NDP300      0.0000 
     43 C5N        91.2610   49.5780    1.7200 C.2       1 NDP300      0.0000 
     44 C6N        91.2110   49.8590    3.0590 C.2       1 NDP300      0.0000 
     45 P2B       102.6540   50.6650   12.9500 P.3       1 NDP300      0.0000 
     46 O1X       102.7530   49.3040   12.3970 O.co2     1 NDP300      0.0000 
     47 O2X       103.2990   50.8130   14.2690 O.co2     1 NDP300      0.0000 
     48 O3X       103.2060   51.6880   11.9570 O.co2     1 NDP300      0.0000 
     49 H          98.8502   49.8507    9.5708 H         1 NDP300      0.0000 
     50 H          97.4800   50.8336    9.0262 H         1 NDP300      0.0000 
     51 H          98.2536   52.6981   10.3376 H         1 NDP300      0.0000 
     52 H         100.7270   51.6137   10.3031 H         1 NDP300      0.0000 
     53 H         100.1091   49.8249   11.6098 H         1 NDP300      0.0000 
     54 H          98.7939   51.8919   13.2774 H         1 NDP300      0.0000 
     55 H          98.5504   48.1068   12.4379 H         1 NDP300      0.0000 
     56 H          96.8662   46.6886   16.7201 H         1 NDP300      0.0000 
     57 H          97.3433   47.3471   18.3215 H         1 NDP300      0.0000 
     58 H          97.4754   51.8154   17.5623 H         1 NDP300      0.0000 
     59 H          94.9950   53.2047    6.7975 H         1 NDP300      0.0000 
     60 H          95.3944   51.7988    7.7994 H         1 NDP300      0.0000 
     61 H          92.9075   52.3734    7.5373 H         1 NDP300      0.0000 
     62 H          94.0879   49.9588    7.8630 H         1 NDP300      0.0000 
     63 H          94.0459   49.4351    5.6252 H         1 NDP300      0.0000 
     64 H          91.2906   50.5467    5.5854 H         1 NDP300      0.0000 
     65 H          94.4417   50.6748    3.5970 H         1 NDP300      0.0000 
     66 H          96.8690   50.6596    0.9456 H         1 NDP300      0.0000 
     67 H          96.0182   50.7363    2.5255 H         1 NDP300      0.0000 
     68 H          92.6809   48.6952    0.5003 H         1 NDP300      0.0000 
     69 H          92.3119   50.3888    0.1322 H         1 NDP300      0.0000 
     70 H          90.4180   49.2842    1.2160 H         1 NDP300      0.0000 
     71 H          90.3180   49.7794    3.5802 H         1 NDP300      0.0000 
     72 H         100.9747   53.0555   12.3538 H         1 NDP300      0.0000 
     73 H          92.2286   50.8406    8.9295 H         1 NDP300      0.0000 
     74 H          92.4619   47.8004    5.3992 H         1 NDP300      0.0000 
@<TRIPOS>BOND
     1    2    1 ar   
     2    3    1 ar   
     3    4    1 1    
     4   23    1 1    
     5    5    4 1    
     6    6    5 1    
     7   49    5 1    
     8   50    5 1    
     9    7    6 1    
    10    8    6 1    
    11   51    6 1    
    12   12    7 1    
    13    9    8 1    
    14   10    8 1    
    15   52    8 1    
    16   72    9 1    
    17   11   10 1    
    18   12   10 1    
    19   53   10 1    
    20   45   11 1    
    21   13   12 1    
    22   54   12 1    
    23   14   13 1    
    24   22   13 1    
    25   15   14 2    
    26   55   14 1    
    27   16   15 1    
    28   17   16 ar   
    29   22   16 ar   
    30   18   17 1    
    31   19   17 ar   
    32   56   18 1    
    33   57   18 1    
    34   20   19 ar   
    35   21   20 ar   
    36   58   20 1    
    37   22   21 ar   
    38   24   23 1    
    39   25   24 ar   
    40   26   24 ar   
    41   27   24 1    
    42   28   27 1    
    43   29   28 1    
    44   59   28 1    
    45   60   28 1    
    46   30   29 1    
    47   31   29 1    
    48   61   29 1    
    49   35   30 1    
    50   32   31 1    
    51   33   31 1    
    52   62   31 1    
    53   73   32 1    
    54   34   33 1    
    55   35   33 1    
    56   63   33 1    
    57   74   34 1    
    58   36   35 1    
    59   64   35 1    
    60   37   36 1    
    61   44   36 1    
    62   38   37 2    
    63   65   37 1    
    64   39   38 1    
    65   42   38 1    
    66   40   39 2    
    67   41   39 am   
    68   66   41 1    
    69   67   41 1    
    70   43   42 1    
    71   68   42 1    
    72   69   42 1    
    73   44   43 2    
    74   70   43 1    
    75   71   44 1    
    76   46   45 ar   
    77   47   45 ar   
    78   48   45 ar   
@<TRIPOS>SUBSTRUCTURE
     1 NDP300      1 GROUP   
@<TRIPOS>SET

