#    Name: 3ARA_1_CAVITY_N1_ALL.mol2
#    Modification time : Tue Mar 11 09:40:15 2014

@<TRIPOS>MOLECULE
3ARA_1_CAVITY_N1_ALL.mol2
   69     0     5     0     0
SMALL
NO_CHARGES


@<TRIPOS>ATOM
      1 N           9.1735   14.0613  -16.4601 N.2       2 ALA2        0.0000 
      2 CA          7.4943   14.4865  -17.6846 C.3       4 GLY6        0.0000 
      3 N           8.3142   13.2033  -15.5796 N.2       2 ALA2        0.0000 
      4 CA          7.2491   14.2595  -15.5898 C.3       4 GLY6        0.0000 
      5 OG          8.7649   11.5160  -16.7837 O.2       1 SER1        0.0000 
      6 N           7.6999   12.5722  -16.7939 N.2       2 ALA2        0.0000 
      7 CA          6.6349   13.6285  -16.8041 C.3       4 GLY6        0.0000 
      8 OG          8.1507   10.8850  -17.9980 O.2       1 SER1        0.0000 
      9 DU          7.0857   11.9412  -18.0082 H         5 CUB7        0.0000 
     10 CA          6.0207   12.9974  -18.0184 C.3       4 GLY6        0.0000 
     11 CA          4.9557   14.0537  -18.0286 C.3       4 GLY6        0.0000 
     12 DU          5.4065   12.3664  -19.2327 H         5 CUB7        0.0000 
     13 CA          4.3415   13.4227  -19.2429 C.3       4 GLY6        0.0000 
     14 N           8.5198   11.2890  -14.6888 N.2       2 ALA2        0.0000 
     15 O           7.4548   12.3453  -14.6990 O.2       2 ALA2        0.0000 
     16 OG          8.9706    9.6018  -15.8930 O.2       1 SER1        0.0000 
     17 OG          7.9056   10.6580  -15.9031 O.2       1 SER1        0.0000 
     18 DU          6.8406   11.7142  -15.9133 H         5 CUB7        0.0000 
     19 CA          5.7756   12.7705  -15.9235 C.3       4 GLY6        0.0000 
     20 CZ          8.3564    8.9707  -17.1073 C.ar      3 PHE5        0.0000 
     21 DU          7.2914   10.0270  -17.1174 H         5 CUB7        0.0000 
     22 DU          6.2264   11.0832  -17.1276 H         5 CUB7        0.0000 
     23 DU          5.1614   12.1395  -17.1378 H         5 CUB7        0.0000 
     24 CA          4.0963   13.1957  -17.1480 C.3       4 GLY6        0.0000 
     25 DU          6.6772    9.3959  -18.3318 H         5 CUB7        0.0000 
     26 DU          5.6121   10.4522  -18.3419 H         5 CUB7        0.0000 
     27 CA          4.5471   11.5084  -18.3521 C.3       4 GLY6        0.0000 
     28 DU          4.9979    9.8212  -19.5563 H         5 CUB7        0.0000 
     29 CA          3.9329   10.8774  -19.5664 C.3       4 GLY6        0.0000 
     30 O           8.2747   11.0621  -12.5940 O.2       2 ALA2        0.0000 
     31 CZ          8.7255    9.3748  -13.7981 C.ar      3 PHE5        0.0000 
     32 O           7.6605   10.4310  -13.8083 O.2       2 ALA2        0.0000 
     33 N           6.5954   11.4873  -13.8185 N.2       2 ALA2        0.0000 
     34 CZ          9.1763    7.6875  -15.0022 C.ar      3 PHE5        0.0000 
     35 CZ          8.1112    8.7438  -15.0124 C.ar      3 PHE5        0.0000 
     36 DU          7.0462    9.8000  -15.0226 H         5 CUB7        0.0000 
     37 N           5.9812   10.8562  -15.0328 N.2       2 ALA2        0.0000 
     38 N           4.9162   11.9125  -15.0430 N.2       2 ALA2        0.0000 
     39 CZ          8.5620    7.0565  -16.2165 C.ar      3 PHE5        0.0000 
     40 DU          7.4970    8.1127  -16.2267 H         5 CUB7        0.0000 
     41 CA          6.4320    9.1690  -16.2369 C.3       4 GLY6        0.0000 
     42 CA          5.3670   10.2252  -16.2471 C.3       4 GLY6        0.0000 
     43 CA          4.3020   11.2815  -16.2573 C.3       4 GLY6        0.0000 
     44 CA          3.2370   12.3377  -16.2675 C.3       4 GLY6        0.0000 
     45 CA          5.8178    8.5379  -17.4512 C.3       4 GLY6        0.0000 
     46 CA          4.7528    9.5942  -17.4614 C.3       4 GLY6        0.0000 
     47 N           3.6878   10.6504  -17.4716 N.2       2 ALA2        0.0000 
     48 CA          5.2036    7.9069  -18.6655 C.3       4 GLY6        0.0000 
     49 CA          4.1386    8.9632  -18.6757 C.3       4 GLY6        0.0000 
     50 CA          7.4153   10.2041  -11.7134 C.3       4 GLY6        0.0000 
     51 CA          7.8661    8.5168  -12.9176 C.3       4 GLY6        0.0000 
     52 CA          6.8011    9.5730  -12.9277 C.3       4 GLY6        0.0000 
     53 N           5.7361   10.6293  -12.9379 N.2       2 ALA2        0.0000 
     54 N           7.2519    7.8858  -14.1319 N.2       2 ALA2        0.0000 
     55 OG          6.1869    8.9420  -14.1421 O.2       1 SER1        0.0000 
     56 N           5.1219    9.9983  -14.1522 N.2       2 ALA2        0.0000 
     57 N           4.0569   11.0545  -14.1624 N.2       2 ALA2        0.0000 
     58 OG          6.6377    7.2547  -15.3462 O.2       1 SER1        0.0000 
     59 OG          5.5727    8.3110  -15.3564 O.2       1 SER1        0.0000 
     60 CA          4.5077    9.3672  -15.3666 C.3       4 GLY6        0.0000 
     61 CA          3.4426   10.4235  -15.3767 C.3       4 GLY6        0.0000 
     62 OG          6.0235    6.6237  -16.5605 O.2       1 SER1        0.0000 
     63 N           2.8284    9.7924  -16.5910 N.2       2 ALA2        0.0000 
     64 CA          5.9417    8.7150  -12.0472 C.3       4 GLY6        0.0000 
     65 N           4.8767    9.7713  -12.0574 N.2       2 ALA2        0.0000 
     66 N           3.8117   10.8275  -12.0676 N.2       2 ALA2        0.0000 
     67 N           5.3275    8.0840  -13.2615 N.2       2 ALA2        0.0000 
     68 O           4.2625    9.1403  -13.2717 O.2       2 ALA2        0.0000 
     69 CA          3.1975   10.1965  -13.2819 C.3       4 GLY6        0.0000 
@<TRIPOS>BOND
@<TRIPOS>SUBSTRUCTURE
     1 SER1        5 GROUP   
     2 ALA2        1 GROUP   
     3 PHE5       20 GROUP   
     4 GLY6        2 GROUP   
     5 CUB7        9 GROUP   
@<TRIPOS>SET

