#    Name: 3ara_MKH_1_INTS_M
#    Modification time : Mon Mar 24 18:08:16 2014

@<TRIPOS>MOLECULE
3ara_MKH_1_INTS_M
   58     0     9     0     0
SMALL
NO_CHARGES


@<TRIPOS>ATOM
      1 N           2.4965    9.1030  -11.7150 N.am      2 SEC2        0.0000 
      2 N           3.5850   10.0530  -11.9210 N.am      8 SEL2        0.0000 
      3 N           1.4080    8.1530  -11.5090 N.am      5 SEP2        0.0000 
      4 O           5.4690   11.8165  -12.1430 O.2       1 ALC1        0.0000 
      5 O           5.6140   10.4920  -12.3970 O.2       7 ALL1        0.0000 
      6 O           5.3240   13.1410  -11.8890 O.2       4 ALP1        0.0000 
      7 CA          2.6910    8.7240  -13.4705 C.3       3 GLC5        0.0000 
      8 CA          4.6430    8.3310  -12.8710 C.3       9 GLL5        0.0000 
      9 CA          0.7390    9.1170  -14.0700 C.3       6 GLP5        0.0000 
     10 CA          3.2400    8.1540  -11.4685 C.3       3 GLC5        0.0000 
     11 CA          1.8370    7.9770  -10.0660 C.3       6 GLP5        0.0000 
     12 CA          4.2430    6.5580  -11.6940 C.3       3 GLC5        0.0000 
     13 CA          3.8430    4.7850  -10.5170 C.3       6 GLP5        0.0000 
     14 N           7.7725   12.4015  -12.8515 N.am      2 SEC2        0.0000 
     15 N           7.7100   10.9680  -13.0730 N.am      8 SEL2        0.0000 
     16 N           7.8350   13.8350  -12.6300 N.am      5 SEP2        0.0000 
     17 CA          7.8405    8.2175  -11.9785 C.3       3 GLC5        0.0000 
     18 CA          8.2410    8.4370  -14.1440 C.3       9 GLL5        0.0000 
     19 CA          7.4400    7.9980   -9.8130 C.3       6 GLP5        0.0000 
     20 CA          9.8160    9.0405  -13.9040 C.3       3 GLC5        0.0000 
     21 CA         11.3910    9.6440  -13.6640 C.3       6 GLP5        0.0000 
     22 CA          9.9285    8.3645  -15.7285 C.3       3 GLC5        0.0000 
     23 CA          8.1860    8.2480  -15.6470 C.3       9 GLL5        0.0000 
     24 CA         11.6710    8.4810  -15.8100 C.3       6 GLP5        0.0000 
     25 CA          9.6885    9.6605  -15.6735 C.3       3 GLC5        0.0000 
     26 CA          8.0030    9.6690  -16.2840 C.3       9 GLL5        0.0000 
     27 CA         11.3740    9.6520  -15.0630 C.3       6 GLP5        0.0000 
     28 CA          6.3545    8.0723  -11.5100 C.3       3 GLC5        0.0000 
     29 CA          4.3020    7.5957  -14.9360 C.3       3 GLC5        0.0000 
     30 CA          5.8950    7.9620  -13.5430 C.3       9 GLL5        0.0000 
     31 CA          3.3350    7.0450  -16.6650 C.3       6 GLP5        0.0000 
     32 CA          3.1932   13.1258  -19.4357 C.3       3 GLC5        0.0000 
     33 CA          5.3270   13.1030  -20.0480 C.3       9 GLL5        0.0000 
     34 CA          1.2660   12.4850  -18.8680 C.3       6 GLP5        0.0000 
     35 CA          3.3400   15.2350  -18.9825 C.3       3 GLC5        0.0000 
     36 CA          4.9140   14.4300  -19.9590 C.3       9 GLL5        0.0000 
     37 CA          2.2450   15.7950  -17.5440 C.3       6 GLP5        0.0000 
     38 CA          2.4852   13.4945  -20.1290 C.3       3 GLC5        0.0000 
     39 CA          3.9560   14.9200  -20.8830 C.3       9 GLL5        0.0000 
     40 CA          2.3342   12.3450  -22.8297 C.3       3 GLC5        0.0000 
     41 CA          3.4530   14.0880  -21.8970 C.3       9 GLL5        0.0000 
     42 CA          0.9890   11.2590  -23.7200 C.3       6 GLP5        0.0000 
     43 CA          2.8143   12.4975  -20.1925 C.3       3 GLC5        0.0000 
     44 CA          3.9060   12.7740  -21.9820 C.3       9 GLL5        0.0000 
     45 CA          6.1087   13.5777  -14.5358 C.3       3 GLC5        0.0000 
     46 CA          5.8230   12.6250  -16.5940 C.3       9 GLL5        0.0000 
     47 CA          6.7440   14.7260  -13.0320 C.3       6 GLP5        0.0000 
     48 CA          4.9161   14.2001  -16.3567 C.3       3 GLC5        0.0000 
     49 CA          5.1240   12.2340  -15.4850 C.3       9 GLL5        0.0000 
     50 CA          4.4350   16.1050  -16.3650 C.3       6 GLP5        0.0000 
     51 CA          2.3453   10.0560  -15.1300 C.3       3 GLC5        0.0000 
     52 CA          4.1250   11.2760  -15.5600 C.3       9 GLL5        0.0000 
     53 CA          2.6556   12.0098  -15.5041 C.3       3 GLC5        0.0000 
     54 CA          3.7780   10.7140  -16.8200 C.3       9 GLL5        0.0000 
     55 CA          1.1100   12.7850  -14.8370 C.3       6 GLP5        0.0000 
     56 CA          2.8258   11.8280  -18.1101 C.3       3 GLC5        0.0000 
     57 CA          3.7724    9.0633  -16.8648 C.3       3 GLC5        0.0000 
     58 CA          4.4680   11.1680  -17.9390 C.3       9 GLL5        0.0000 
@<TRIPOS>BOND
@<TRIPOS>SUBSTRUCTURE
     1 ALC1        4 GROUP        1 X    ALC  0     ROOT ALC X 1
     2 SEC2        1 GROUP        1 X    SEC  0     **** SEC X 2
     3 GLC5        7 GROUP        1 X    GLC  0     **** GLC X 6
     4 ALP1        6 GROUP        1 Y    ALP  0     ROOT ALP Y 8
     5 SEP2        3 GROUP        1 Y    SEP  0     **** SEP Y 9
     6 GLP5        9 GROUP        1 Y    GLP  0     **** GLP Y 13
     7 ALL1        5 GROUP        1 Z    ALL  0     ROOT ALL Z 15
     8 SEL2        2 GROUP        1 Z    SEL  0     **** SEL Z 16
     9 GLL5        8 GROUP        1 Z    GLL  0     **** GLL Z 20
@<TRIPOS>SET

