#    Name: 3ara_MKH_1_ligand
#    Modification time : Mon Mar 24 18:08:16 2014

@<TRIPOS>MOLECULE
3ara_MKH_1_ligand
   60    63     1     0     0
SMALL
NO_CHARGES


@<TRIPOS>ATOM
      1 O1          3.5850   10.0530  -11.9210 O.2       1 MKH165      0.0000 
      2 C2          4.5700    9.6280  -12.4070 C.2       1 MKH165      0.0000 
      3 N3          5.6140   10.4920  -12.3970 N.am      1 MKH165      0.0000 
      4 C4          6.7760   10.1440  -12.9840 C.2       1 MKH165      0.0000 
      5 N5          6.9200    8.8780  -13.5430 N.am      1 MKH165      0.0000 
      6 C6          5.8950    7.9620  -13.5430 C.2       1 MKH165      0.0000 
      7 C7          4.6430    8.3310  -12.8710 C.2       1 MKH165      0.0000 
      8 O8          7.7100   10.9680  -13.0730 O.2       1 MKH165      0.0000 
      9 C9          8.2410    8.4370  -14.1440 C.3       1 MKH165      0.0000 
     10 C10         8.1860    8.2480  -15.6470 C.3       1 MKH165      0.0000 
     11 C11         8.0030    9.6690  -16.2840 C.3       1 MKH165      0.0000 
     12 S12         8.0830    9.5260  -17.9830 S.o2      1 MKH165      0.0000 
     13 N13         8.2100   10.8940  -18.6920 N.pl3     1 MKH165      0.0000 
     14 C14         9.4930   11.6190  -18.7470 C.3       1 MKH165      0.0000 
     15 C15         9.5440   11.8740  -20.2780 C.3       1 MKH165      0.0000 
     16 C16         8.0940   12.0190  -20.7640 C.3       1 MKH165      0.0000 
     17 C17         7.2070   11.5030  -19.6070 C.3       1 MKH165      0.0000 
     18 O18         9.2430    8.7140  -18.4110 O.2       1 MKH165      0.0000 
     19 O19         6.8740    8.7950  -18.3500 O.2       1 MKH165      0.0000 
     20 C20         6.3100   12.6010  -19.0140 C.3       1 MKH165      0.0000 
     21 O21         7.0580   13.7250  -18.5030 O.3       1 MKH165      0.0000 
     22 C22         5.3270   13.1030  -20.0480 C.ar      1 MKH165      0.0000 
     23 C23         4.9140   14.4300  -19.9590 C.ar      1 MKH165      0.0000 
     24 C24         3.9560   14.9200  -20.8830 C.ar      1 MKH165      0.0000 
     25 C25         3.4530   14.0880  -21.8970 C.ar      1 MKH165      0.0000 
     26 C26         3.9060   12.7740  -21.9820 C.ar      1 MKH165      0.0000 
     27 C27         4.8190   12.2460  -21.0520 C.ar      1 MKH165      0.0000 
     28 C28         5.5180   12.0880  -17.8300 C.ar      1 MKH165      0.0000 
     29 C29         5.8230   12.6250  -16.5940 C.ar      1 MKH165      0.0000 
     30 C30         5.1240   12.2340  -15.4850 C.ar      1 MKH165      0.0000 
     31 C31         4.1250   11.2760  -15.5600 C.ar      1 MKH165      0.0000 
     32 C32         3.7780   10.7140  -16.8200 C.ar      1 MKH165      0.0000 
     33 C33         4.4680   11.1680  -17.9390 C.ar      1 MKH165      0.0000 
     34 H           5.5153   11.4193  -11.9372 H         1 MKH165      0.0000 
     35 H           5.9576    7.0584  -13.9764 H         1 MKH165      0.0000 
     36 H           3.9227    7.6606  -12.7784 H         1 MKH165      0.0000 
     37 H           8.5524    7.4902  -13.6728 H         1 MKH165      0.0000 
     38 H           9.0137    9.1855  -13.9029 H         1 MKH165      0.0000 
     39 H           7.3445    7.6449  -15.9187 H         1 MKH165      0.0000 
     40 H           9.1044    7.8321  -16.0067 H         1 MKH165      0.0000 
     41 H           8.7959   10.3155  -16.0133 H         1 MKH165      0.0000 
     42 H           7.0431   10.0623  -16.0746 H         1 MKH165      0.0000 
     43 H          10.2966   11.0059  -18.4850 H         1 MKH165      0.0000 
     44 H           9.4394   12.5401  -18.2581 H         1 MKH165      0.0000 
     45 H          10.0042   11.0352  -20.7574 H         1 MKH165      0.0000 
     46 H          10.0805   12.7811  -20.4641 H         1 MKH165      0.0000 
     47 H           7.9401   11.4107  -21.6249 H         1 MKH165      0.0000 
     48 H           7.8757   13.0459  -20.9450 H         1 MKH165      0.0000 
     49 H           6.5963   10.7091  -20.0312 H         1 MKH165      0.0000 
     50 H           5.2881   15.0500  -19.2438 H         1 MKH165      0.0000 
     51 H           3.6321   15.8892  -20.8054 H         1 MKH165      0.0000 
     52 H           2.7658   14.4466  -22.5589 H         1 MKH165      0.0000 
     53 H           3.5647   12.1644  -22.7488 H         1 MKH165      0.0000 
     54 H           5.1074   11.2789  -21.0966 H         1 MKH165      0.0000 
     55 H           6.5818   13.3230  -16.5136 H         1 MKH165      0.0000 
     56 H           5.3417   12.6615  -14.5589 H         1 MKH165      0.0000 
     57 H           3.6296   10.9635  -14.7222 H         1 MKH165      0.0000 
     58 H           3.0579   10.0147  -16.8836 H         1 MKH165      0.0000 
     59 H           4.2013   10.8189  -18.8793 H         1 MKH165      0.0000 
     60 H           7.2264   14.3069  -19.2986 H         1 MKH165      0.0000 
@<TRIPOS>BOND
     1    2    1 2    
     2    3    2 1    
     3    7    2 1    
     4    4    3 1    
     5   34    3 1    
     6    5    4 1    
     7    8    4 2    
     8    6    5 1    
     9    9    5 1    
    10    7    6 2    
    11   35    6 1    
    12   36    7 1    
    13   10    9 1    
    14   37    9 1    
    15   38    9 1    
    16   11   10 1    
    17   39   10 1    
    18   40   10 1    
    19   12   11 1    
    20   41   11 1    
    21   42   11 1    
    22   13   12 1    
    23   18   12 2    
    24   19   12 2    
    25   14   13 1    
    26   17   13 1    
    27   15   14 1    
    28   43   14 1    
    29   44   14 1    
    30   16   15 1    
    31   45   15 1    
    32   46   15 1    
    33   17   16 1    
    34   47   16 1    
    35   48   16 1    
    36   20   17 1    
    37   49   17 1    
    38   21   20 1    
    39   22   20 1    
    40   28   20 1    
    41   60   21 1    
    42   23   22 ar   
    43   27   22 ar   
    44   24   23 ar   
    45   50   23 1    
    46   25   24 ar   
    47   51   24 1    
    48   26   25 ar   
    49   52   25 1    
    50   27   26 ar   
    51   53   26 1    
    52   54   27 1    
    53   29   28 ar   
    54   33   28 ar   
    55   30   29 ar   
    56   55   29 1    
    57   31   30 ar   
    58   56   30 1    
    59   32   31 ar   
    60   57   31 1    
    61   33   32 ar   
    62   58   32 1    
    63   59   33 1    
@<TRIPOS>SUBSTRUCTURE
     1 MKH165      1 GROUP   
@<TRIPOS>SET

