#    Name: 2vie_VG0_1_INTS_M
#    Modification time : Tue Mar 25 01:51:11 2014

@<TRIPOS>MOLECULE
2vie_VG0_1_INTS_M
   90     0    12     0     0
SMALL
NO_CHARGES


@<TRIPOS>ATOM
      1 O          27.9415    0.4560   34.1610 O.2       1 ALC1        0.0000 
      2 O          29.1200    1.2170   33.7580 O.2       9 ALL1        0.0000 
      3 O          26.7630   -0.3050   34.5640 O.2       5 ALP1        0.0000 
      4 CA         26.3015    1.9465   33.7365 C.3       4 GLC5        0.0000 
      5 CA         28.0190    3.3310   33.3620 C.3      12 GLL5        0.0000 
      6 CA         24.5840    0.5620   34.1110 C.3       8 GLP5        0.0000 
      7 CA         29.2440    2.9250   30.8580 C.3       4 GLC5        0.0000 
      8 CA         28.1940    1.4800   31.5300 C.3      12 GLL5        0.0000 
      9 CA         30.2940    4.3700   30.1860 C.3       8 GLP5        0.0000 
     10 N          32.3110    3.0230   34.1655 N.am      2 SEC2        0.0000 
     11 N          31.2190    1.8920   34.3140 N.am     10 SEL2        0.0000 
     12 N          33.4030    4.1540   34.0170 N.am      6 SEP2        0.0000 
     13 N          32.7140    1.7920   34.2685 N.am      2 SEC2        0.0000 
     14 N          34.2090    1.6920   34.2230 N.am      6 SEP2        0.0000 
     15 CA         32.0870    1.8205   36.5480 C.3       4 GLC5        0.0000 
     16 CA         30.9220    0.1570   36.7070 C.3      12 GLL5        0.0000 
     17 CA         33.2520    3.4840   36.3890 C.3       8 GLP5        0.0000 
     18 CA         31.8760   -0.9885   34.6840 C.3       4 GLC5        0.0000 
     19 CA         29.8440   -1.2630   35.0180 C.3      12 GLL5        0.0000 
     20 CA         33.9080   -0.7140   34.3500 C.3       8 GLP5        0.0000 
     21 CA         31.2980    1.7840   31.1830 C.3       4 GLC5        0.0000 
     22 CA         30.2530    0.0640   30.9870 C.3      12 GLL5        0.0000 
     23 CA         32.3430    3.5040   31.3790 C.3       8 GLP5        0.0000 
     24 CA         30.2240   -4.4795   31.0840 C.3       4 GLC5        0.0000 
     25 CA         30.0720   -2.3500   30.6330 C.3      12 GLL5        0.0000 
     26 CA         30.3760   -6.6090   31.5350 C.3       8 GLP5        0.0000 
     27 OD1        27.0895    4.8505   35.5505 O.co2     3 ASC3        0.0000 
     28 OD1        27.9880    5.3780   34.7240 O.co2    11 ASL3        0.0000 
     29 OD1        26.1910    4.3230   36.3770 O.co2     7 ASP3        0.0000 
     30 O          25.8680    3.6955   32.4410 O.2       1 ALC1        0.0000 
     31 O          27.4970    4.1580   32.3360 O.2       9 ALL1        0.0000 
     32 O          24.2390    3.2330   32.5460 O.2       5 ALP1        0.0000 
     33 O          26.4890    3.8915   31.5555 O.2       1 ALC1        0.0000 
     34 O          25.4810    3.6250   30.7750 O.2       5 ALP1        0.0000 
     35 CA         29.5850   -5.2770   32.8810 C.3       4 GLC5        0.0000 
     36 CA         28.7940   -3.9450   34.2270 C.3      12 GLL5        0.0000 
     37 CA         25.7255   -4.7720   33.6950 C.3       4 GLC5        0.0000 
     38 CA         27.2710   -3.9270   34.3460 C.3      12 GLL5        0.0000 
     39 CA         24.1800   -5.6170   33.0440 C.3       8 GLP5        0.0000 
     40 CA         33.4710    1.5775   38.3460 C.3       4 GLC5        0.0000 
     41 CA         32.8600   -0.0840   39.0580 C.3      12 GLL5        0.0000 
     42 CA         34.0820    3.2390   37.6340 C.3       8 GLP5        0.0000 
     43 CA         30.4175   -1.2310   42.3005 C.3       4 GLC5        0.0000 
     44 CA         31.9410   -0.7980   41.1910 C.3      12 GLL5        0.0000 
     45 CA         28.8940   -1.6640   43.4100 C.3       8 GLP5        0.0000 
     46 N          28.6895   -1.9060   40.8325 N.am      2 SEC2        0.0000 
     47 N          29.9470   -1.7550   40.1890 N.am     10 SEL2        0.0000 
     48 N          27.4320   -2.0570   41.4760 N.am      6 SEP2        0.0000 
     49 CA         25.8405    6.9405   34.7550 C.3       4 GLC5        0.0000 
     50 CA         27.6200    7.6390   35.7150 C.3      12 GLL5        0.0000 
     51 CA         24.0610    6.2420   33.7950 C.3       8 GLP5        0.0000 
     52 CA         27.3735    9.3330   35.1910 C.3       4 GLC5        0.0000 
     53 CA         27.1270   11.0270   34.6670 C.3       8 GLP5        0.0000 
     54 CA         26.5880    8.0015   37.0615 C.3       4 GLC5        0.0000 
     55 CA         25.5560    8.3640   38.4080 C.3       8 GLP5        0.0000 
     56 CA         28.1595    9.3275   33.8430 C.3       4 GLC5        0.0000 
     57 CA         29.1920    7.6280   33.0190 C.3      12 GLL5        0.0000 
     58 CA         31.1305    8.0690   28.4610 C.3       4 GLC5        0.0000 
     59 CA         30.9960    9.3440   30.0130 C.3      12 GLL5        0.0000 
     60 CA         31.2650    6.7940   26.9090 C.3       8 GLP5        0.0000 
     61 CA         32.9245    8.9895   28.9790 C.3       4 GLC5        0.0000 
     62 CA         34.8530    8.6350   27.9450 C.3       8 GLP5        0.0000 
     63 CA         26.8025   10.5635   31.2560 C.3       4 GLC5        0.0000 
     64 CA         28.7040    9.7680   30.9170 C.3      12 GLL5        0.0000 
     65 CA         24.9010   11.3590   31.5950 C.3       8 GLP5        0.0000 
     66 CA         27.9155   10.3975   32.7920 C.3       4 GLC5        0.0000 
     67 CA         29.4548    3.9360   31.9318 C.3       4 GLC5        0.0000 
     68 CA         29.3888    0.3860   38.2578 C.3       4 GLC5        0.0000 
     69 CA         27.8200    1.1600   39.3630 C.3       8 GLP5        0.0000 
     70 CA         32.3618   -0.5696   35.5906 C.3       4 GLC5        0.0000 
     71 CA         30.9930   -0.9330   37.5980 C.3      12 GLL5        0.0000 
     72 CA         28.9050   -3.1830   37.9280 C.3       4 GLC5        0.0000 
     73 CA         30.4800   -2.2020   37.1840 C.3      12 GLL5        0.0000 
     74 CA         27.6180   -4.0730   39.3120 C.3       8 GLP5        0.0000 
     75 CA         28.3377   -0.6054   36.4230 C.3       4 GLC5        0.0000 
     76 CA         29.9040   -2.3840   35.9040 C.3      12 GLL5        0.0000 
     77 CA         26.6740    0.2950   37.2840 C.3       8 GLP5        0.0000 
     78 CA         26.8893   -2.5525   30.5948 C.3       4 GLC5        0.0000 
     79 CA         28.0690   -1.0260   31.1440 C.3      12 GLL5        0.0000 
     80 CA         25.4050   -3.4550   30.1900 C.3       8 GLP5        0.0000 
     81 CA         27.4036    0.7083   29.7694 C.3       4 GLC5        0.0000 
     82 CA         26.5120    1.5210   28.2810 C.3       8 GLP5        0.0000 
     83 CA         27.5697   -5.9360   34.0147 C.3       4 GLC5        0.0000 
     84 CA         27.1070   -7.9360   33.7430 C.3       8 GLP5        0.0000 
     85 CA         31.5282    1.1118   41.0542 C.3       4 GLC5        0.0000 
     86 CA         30.5590    2.7480   41.6250 C.3       8 GLP5        0.0000 
     87 CA         27.6915    7.9205   30.2860 C.3       4 GLC5        0.0000 
     88 CA         29.8180    8.7140   30.7630 C.3      12 GLL5        0.0000 
     89 CA         26.1220    6.6000   29.7320 C.3       8 GLP5        0.0000 
     90 CA         30.0389    6.3391   30.9261 C.3       4 GLC5        0.0000 
@<TRIPOS>BOND
@<TRIPOS>SUBSTRUCTURE
     1 ALC1        1 GROUP        1 X    ALC  0     ROOT ALC X 1
     2 SEC2       10 GROUP        1 X    SEC  0     **** SEC X 2
     3 ASC3       27 GROUP        1 X    ASC  0     **** ASC X 3
     4 GLC5        4 GROUP        1 X    GLC  0     **** GLC X 6
     5 ALP1        3 GROUP        1 Y    ALP  0     ROOT ALP Y 8
     6 SEP2       12 GROUP        1 Y    SEP  0     **** SEP Y 9
     7 ASP3       29 GROUP        1 Y    ASP  0     **** ASP Y 10
     8 GLP5        6 GROUP        1 Y    GLP  0     **** GLP Y 13
     9 ALL1        2 GROUP        1 Z    ALL  0     ROOT ALL Z 15
    10 SEL2       11 GROUP        1 Z    SEL  0     **** SEL Z 16
    11 ASL3       28 GROUP        1 Z    ASL  0     **** ASL Z 17
    12 GLL5        5 GROUP        1 Z    GLL  0     **** GLL Z 20
@<TRIPOS>SET

