#    Name: 2vie_VG0_1_ligand
#    Modification time : Tue Mar 25 01:51:11 2014

@<TRIPOS>MOLECULE
2vie_VG0_1_ligand
   86    88     1     0     0
SMALL
NO_CHARGES


@<TRIPOS>ATOM
      1 C1         30.2790    1.1150   34.4740 C.2       1 VG01448     0.0000 
      2 N2         29.1200    1.2170   33.7580 N.am      1 VG01448     0.0000 
      3 C3         28.8550    2.2250   32.7220 C.3       1 VG01448     0.0000 
      4 C4         28.0190    3.3310   33.3620 C.3       1 VG01448     0.0000 
      5 C5         28.1940    1.4800   31.5300 C.3       1 VG01448     0.0000 
      6 C6         28.7940    4.2260   34.3130 C.3       1 VG01448     0.0000 
      7 O7         31.2190    1.8920   34.3140 O.2       1 VG01448     0.0000 
      8 C8         30.3540    0.0080   35.4220 C.ar      1 VG01448     0.0000 
      9 C9         30.9220    0.1570   36.7070 C.ar      1 VG01448     0.0000 
     10 C10        30.9930   -0.9330   37.5980 C.ar      1 VG01448     0.0000 
     11 C11        30.4800   -2.2020   37.1840 C.ar      1 VG01448     0.0000 
     12 C12        29.9040   -2.3840   35.9040 C.ar      1 VG01448     0.0000 
     13 C13        29.8440   -1.2630   35.0180 C.ar      1 VG01448     0.0000 
     14 C14        28.8490    0.1540   31.2130 C.ar      1 VG01448     0.0000 
     15 C15        30.2530    0.0640   30.9870 C.ar      1 VG01448     0.0000 
     16 C16        30.8600   -1.1780   30.7020 C.ar      1 VG01448     0.0000 
     17 C17        30.0720   -2.3500   30.6330 C.ar      1 VG01448     0.0000 
     18 C18        28.6780   -2.2740   30.8550 C.ar      1 VG01448     0.0000 
     19 C19        28.0690   -1.0260   31.1440 C.ar      1 VG01448     0.0000 
     20 N20        27.9880    5.3780   34.7240 N.4       1 VG01448     0.0000 
     21 O21        27.4970    4.1580   32.3360 O.3       1 VG01448     0.0000 
     22 N38        29.4120   -3.6240   35.5230 N.pl3     1 VG01448     0.0000 
     23 C39        28.7940   -3.9450   34.2270 C.3       1 VG01448     0.0000 
     24 C40        27.2710   -3.9270   34.3460 C.3       1 VG01448     0.0000 
     25 N46        31.5640   -0.7590   38.8520 N.am      1 VG01448     0.0000 
     26 C47        32.8600   -0.0840   39.0580 C.3       1 VG01448     0.0000 
     27 C48        33.2480   -0.4180   40.4940 C.3       1 VG01448     0.0000 
     28 C49        31.9410   -0.7980   41.1910 C.3       1 VG01448     0.0000 
     29 C50        31.0140   -1.1720   40.0330 C.2       1 VG01448     0.0000 
     30 O57        29.9470   -1.7550   40.1890 O.2       1 VG01448     0.0000 
     31 C59        28.6540    6.5500   35.3500 C.3       1 VG01448     0.0000 
     32 C61        29.3290    6.0510   36.6520 C.3       1 VG01448     0.0000 
     33 C65        27.6200    7.6390   35.7150 C.3       1 VG01448     0.0000 
     34 C69        29.7290    7.1100   34.3670 C.3       1 VG01448     0.0000 
     35 C70        29.1920    7.6280   33.0190 C.3       1 VG01448     0.0000 
     36 C73        30.3070    8.1770   32.1200 C.3       1 VG01448     0.0000 
     37 C76        29.8180    8.7140   30.7630 C.3       1 VG01448     0.0000 
     38 C79        30.9960    9.3440   30.0130 C.3       1 VG01448     0.0000 
     39 C83        28.7040    9.7680   30.9170 C.3       1 VG01448     0.0000 
     40 H          28.3294    0.5385   33.9323 H         1 VG01448     0.0000 
     41 H          29.7961    2.6336   32.3885 H         1 VG01448     0.0000 
     42 H          27.2062    2.8693   33.9152 H         1 VG01448     0.0000 
     43 H          28.2383    2.1360   30.6495 H         1 VG01448     0.0000 
     44 H          27.1335    1.3222   31.7708 H         1 VG01448     0.0000 
     45 H          29.7114    4.5566   33.8090 H         1 VG01448     0.0000 
     46 H          29.0905    3.6307   35.1863 H         1 VG01448     0.0000 
     47 H          31.2881    1.0733   36.9948 H         1 VG01448     0.0000 
     48 H          30.5337   -2.9959   37.8351 H         1 VG01448     0.0000 
     49 H          29.4340   -1.3732   34.0916 H         1 VG01448     0.0000 
     50 H          30.8233    0.9138   31.0332 H         1 VG01448     0.0000 
     51 H          31.8672   -1.2313   30.5456 H         1 VG01448     0.0000 
     52 H          30.5081   -3.2472   30.4237 H         1 VG01448     0.0000 
     53 H          28.1061   -3.1186   30.8077 H         1 VG01448     0.0000 
     54 H          27.0601   -0.9791   31.3034 H         1 VG01448     0.0000 
     55 H          29.4717   -4.4330   36.2035 H         1 VG01448     0.0000 
     56 H          29.1019   -4.9376   33.8879 H         1 VG01448     0.0000 
     57 H          29.0894   -3.2163   33.4675 H         1 VG01448     0.0000 
     58 H          32.7598    0.9774   38.9615 H         1 VG01448     0.0000 
     59 H          33.6054   -0.4733   38.3956 H         1 VG01448     0.0000 
     60 H          33.6681    0.4424   40.9646 H         1 VG01448     0.0000 
     61 H          33.9148   -1.2508   40.5041 H         1 VG01448     0.0000 
     62 H          31.5513    0.0413   41.7057 H         1 VG01448     0.0000 
     63 H          32.0972   -1.6412   41.8121 H         1 VG01448     0.0000 
     64 H          30.4697    6.3130   34.1758 H         1 VG01448     0.0000 
     65 H          30.2690    7.9281   34.8764 H         1 VG01448     0.0000 
     66 H          28.4620    8.4191   33.2091 H         1 VG01448     0.0000 
     67 H          28.6844    6.8095   32.5020 H         1 VG01448     0.0000 
     68 H          31.0456    7.3797   31.9394 H         1 VG01448     0.0000 
     69 H          30.8297    8.9871   32.6533 H         1 VG01448     0.0000 
     70 H          29.4428    7.8946   30.1755 H         1 VG01448     0.0000 
     71 H          26.9427   -4.5958   35.0130 H         1 VG01448     0.0000 
     72 H          26.9317   -3.0323   34.6366 H         1 VG01448     0.0000 
     73 H          26.8279   -4.1398   33.4751 H         1 VG01448     0.0000 
     74 H          30.0098    5.3417   36.4691 H         1 VG01448     0.0000 
     75 H          29.7986    6.7907   37.1339 H         1 VG01448     0.0000 
     76 H          28.6641    5.6617   37.2894 H         1 VG01448     0.0000 
     77 H          28.0526    8.4349   36.1385 H         1 VG01448     0.0000 
     78 H          27.1266    7.9675   34.9096 H         1 VG01448     0.0000 
     79 H          26.9353    7.2997   36.3600 H         1 VG01448     0.0000 
     80 H          31.3995   10.1023   30.5251 H         1 VG01448     0.0000 
     81 H          31.7264    8.6819   29.8455 H         1 VG01448     0.0000 
     82 H          30.7188    9.7060   29.1230 H         1 VG01448     0.0000 
     83 H          29.0103   10.5570   31.4495 H         1 VG01448     0.0000 
     84 H          28.3953   10.1143   30.0311 H         1 VG01448     0.0000 
     85 H          27.9011    9.3946   31.3817 H         1 VG01448     0.0000 
     86 H          26.7221    3.6484   31.9621 H         1 VG01448     0.0000 
@<TRIPOS>BOND
     1    2    1 am   
     2    7    1 2    
     3    8    1 1    
     4    3    2 1    
     5   40    2 1    
     6    4    3 1    
     7    5    3 1    
     8   41    3 1    
     9    6    4 1    
    10   21    4 1    
    11   42    4 1    
    12   14    5 1    
    13   43    5 1    
    14   44    5 1    
    15   20    6 1    
    16   45    6 1    
    17   46    6 1    
    18    9    8 ar   
    19   13    8 ar   
    20   10    9 ar   
    21   47    9 1    
    22   11   10 ar   
    23   25   10 1    
    24   12   11 ar   
    25   48   11 1    
    26   13   12 ar   
    27   22   12 1    
    28   49   13 1    
    29   15   14 ar   
    30   19   14 ar   
    31   16   15 ar   
    32   50   15 1    
    33   17   16 ar   
    34   51   16 1    
    35   18   17 ar   
    36   52   17 1    
    37   19   18 ar   
    38   53   18 1    
    39   54   19 1    
    40   31   20 1    
    41   86   21 1    
    42   23   22 1    
    43   55   22 1    
    44   24   23 1    
    45   56   23 1    
    46   57   23 1    
    47   71   24 1    
    48   72   24 1    
    49   73   24 1    
    50   26   25 1    
    51   29   25 am   
    52   27   26 1    
    53   58   26 1    
    54   59   26 1    
    55   28   27 1    
    56   60   27 1    
    57   61   27 1    
    58   29   28 1    
    59   62   28 1    
    60   63   28 1    
    61   30   29 2    
    62   32   31 1    
    63   33   31 1    
    64   34   31 1    
    65   74   32 1    
    66   75   32 1    
    67   76   32 1    
    68   77   33 1    
    69   78   33 1    
    70   79   33 1    
    71   35   34 1    
    72   64   34 1    
    73   65   34 1    
    74   36   35 1    
    75   66   35 1    
    76   67   35 1    
    77   37   36 1    
    78   68   36 1    
    79   69   36 1    
    80   38   37 1    
    81   39   37 1    
    82   70   37 1    
    83   80   38 1    
    84   81   38 1    
    85   82   38 1    
    86   83   39 1    
    87   84   39 1    
    88   85   39 1    
@<TRIPOS>SUBSTRUCTURE
     1 VG01448     1 GROUP   
@<TRIPOS>SET

