#    Name: 1b6l_PI4_1_INTS_M
#    Modification time : Mon Mar 24 19:25:38 2014

@<TRIPOS>MOLECULE
1b6l_PI4_1_INTS_M
   77     0     9     0     0
SMALL
NO_CHARGES


@<TRIPOS>ATOM
      1 O           3.6065    1.2475    9.5410 O.2       1 ALC1        0.0000 
      2 O           3.8770    1.9790   10.7050 O.2       7 ALL1        0.0000 
      3 O           3.3360    0.5160    8.3770 O.2       4 ALP1        0.0000 
      4 CA          2.8750    2.7400   13.5695 C.3       3 GLC5        0.0000 
      5 CA          3.3110    1.5880   12.0060 C.3       9 GLL5        0.0000 
      6 CA          2.4390    3.8920   15.1330 C.3       6 GLP5        0.0000 
      7 CA          1.5990    2.0995   13.6955 C.3       3 GLC5        0.0000 
      8 CA          1.8140    1.3240   11.8550 C.3       9 GLL5        0.0000 
      9 CA          1.3840    2.8750   15.5360 C.3       6 GLP5        0.0000 
     10 CA          0.7000    0.3905   13.5220 C.3       3 GLC5        0.0000 
     11 CA         -0.4140   -0.5430   15.1890 C.3       6 GLP5        0.0000 
     12 CA          1.1655   -0.4770   11.8050 C.3       3 GLC5        0.0000 
     13 CA          0.5170   -2.2780   11.7550 C.3       6 GLP5        0.0000 
     14 N          -0.1685    4.4320   12.4485 N.am      2 SEC2        0.0000 
     15 N           0.5120    3.3110   12.0060 N.am      8 SEL2        0.0000 
     16 N          -0.8490    5.5530   12.8910 N.am      5 SEP2        0.0000 
     17 O          -0.0760    3.8375    9.7835 O.2       1 ALC1        0.0000 
     18 O           1.0980    2.6210    9.9530 O.2       7 ALL1        0.0000 
     19 O          -1.2500    5.0540    9.6140 O.2       4 ALP1        0.0000 
     20 O           2.2170    1.5685    9.1650 O.2       1 ALC1        0.0000 
     21 O           4.8810    2.1110   14.3435 O.2       1 ALC1        0.0000 
     22 O           4.5560    0.5590   13.8100 O.2       7 ALL1        0.0000 
     23 O           5.2060    3.6630   14.8770 O.2       4 ALP1        0.0000 
     24 N           5.6815    1.0500   17.9150 N.am      2 SEC2        0.0000 
     25 N           5.0950    0.5410   16.7170 N.am      8 SEL2        0.0000 
     26 N           6.2680    1.5590   19.1130 N.am      5 SEP2        0.0000 
     27 O           6.3375    0.6950   17.1160 O.2       1 ALC1        0.0000 
     28 O           5.0950    0.5410   16.7170 O.2       7 ALL1        0.0000 
     29 O           7.5800    0.8490   17.5150 O.2       4 ALP1        0.0000 
     30 CA          4.8650   -1.3680   18.8350 C.3       3 GLC5        0.0000 
     31 CA          5.1720   -1.8710   16.6730 C.3       9 GLL5        0.0000 
     32 CA          4.5580   -0.8650   20.9970 C.3       6 GLP5        0.0000 
     33 CA          6.5230   -2.2110   18.3945 C.3       3 GLC5        0.0000 
     34 CA          7.8740   -2.5510   20.1160 C.3       6 GLP5        0.0000 
     35 CA          4.7270   -6.2300   14.4040 C.3       3 GLC5        0.0000 
     36 CA          4.4110   -5.5030   16.0160 C.3       9 GLL5        0.0000 
     37 CA          5.0430   -6.9570   12.7920 C.3       6 GLP5        0.0000 
     38 CA          9.7050   -3.8790   13.4130 C.3       3 GLC5        0.0000 
     39 CA          9.4410   -3.4850   15.6080 C.3       9 GLL5        0.0000 
     40 CA          9.9690   -4.2730   11.2180 C.3       6 GLP5        0.0000 
     41 CA         11.4310   -3.8020   15.6750 C.3       3 GLC5        0.0000 
     42 CA         13.4210   -4.1190   15.7420 C.3       6 GLP5        0.0000 
     43 CA         10.0270   -1.8290   14.9905 C.3       3 GLC5        0.0000 
     44 CA         10.6130   -0.1730   14.3730 C.3       6 GLP5        0.0000 
     45 CA         11.3900   -5.8635   18.6815 C.3       3 GLC5        0.0000 
     46 CA          9.8500   -5.3020   17.2420 C.3       9 GLL5        0.0000 
     47 CA         12.9300   -6.4250   20.1210 C.3       6 GLP5        0.0000 
     48 CA         11.6355   -4.7105   16.4920 C.3       3 GLC5        0.0000 
     49 CA          8.5385   -5.7920   13.2015 C.3       3 GLC5        0.0000 
     50 CA          9.0930   -5.8660   14.9560 C.3       9 GLL5        0.0000 
     51 CA          7.9840   -5.7180   11.4470 C.3       6 GLP5        0.0000 
     52 CA         10.8265   -6.5510   14.5635 C.3       3 GLC5        0.0000 
     53 CA         12.5600   -7.2360   14.1710 C.3       6 GLP5        0.0000 
     54 CA          8.1668    3.6208   14.0050 C.3       3 GLC5        0.0000 
     55 CA          7.3330    1.8230   13.3770 C.3       9 GLL5        0.0000 
     56 CA          8.8290    5.0570   15.1900 C.3       6 GLP5        0.0000 
     57 CA          9.3897    2.7132   12.3285 C.3       3 GLC5        0.0000 
     58 CA         11.2750    3.2420   11.8370 C.3       6 GLP5        0.0000 
     59 CA          8.8829    0.3844   14.0137 C.3       3 GLC5        0.0000 
     60 CA          6.2453   -0.7630   10.3215 C.3       3 GLC5        0.0000 
     61 CA          7.4640   -0.2060   12.1200 C.3       9 GLL5        0.0000 
     62 CA          4.8530   -1.6810    9.0880 C.3       6 GLP5        0.0000 
     63 CA          9.1013   -1.3635   11.3685 C.3       3 GLC5        0.0000 
     64 CA          7.8110    0.5160   10.9900 C.3       9 GLL5        0.0000 
     65 CA         10.5650   -2.8820   11.1820 C.3       6 GLP5        0.0000 
     66 CA          9.1252   -0.0090   12.9640 C.3       3 GLC5        0.0000 
     67 CA          9.2930    0.9437    9.4910 C.3       3 GLC5        0.0000 
     68 CA         10.7230    0.6820    7.9500 C.3       6 GLP5        0.0000 
     69 CA          9.5690    2.2237   11.4345 C.3       3 GLC5        0.0000 
     70 CA          1.1487   -5.4377   17.4087 C.3       3 GLC5        0.0000 
     71 CA          2.2510   -4.2800   16.2880 C.3       9 GLL5        0.0000 
     72 CA         -0.3240   -5.9460   18.3920 C.3       6 GLP5        0.0000 
     73 CA          1.0023   -2.8855   17.1158 C.3       3 GLC5        0.0000 
     74 CA         -0.6500   -2.0910   17.7070 C.3       6 GLP5        0.0000 
     75 CA          9.2474   -3.2685   17.9618 C.3       3 GLC5        0.0000 
     76 CA          8.9620   -4.8510   16.0860 C.3       9 GLL5        0.0000 
     77 CA          8.9690   -1.8020   19.3790 C.3       6 GLP5        0.0000 
@<TRIPOS>BOND
@<TRIPOS>SUBSTRUCTURE
     1 ALC1        1 GROUP        1 X    ALC  0     ROOT ALC X 1
     2 SEC2       14 GROUP        1 X    SEC  0     **** SEC X 2
     3 GLC5        4 GROUP        1 X    GLC  0     **** GLC X 6
     4 ALP1        3 GROUP        1 Y    ALP  0     ROOT ALP Y 8
     5 SEP2       16 GROUP        1 Y    SEP  0     **** SEP Y 9
     6 GLP5        6 GROUP        1 Y    GLP  0     **** GLP Y 13
     7 ALL1        2 GROUP        1 Z    ALL  0     ROOT ALL Z 15
     8 SEL2       15 GROUP        1 Z    SEL  0     **** SEL Z 16
     9 GLL5        5 GROUP        1 Z    GLL  0     **** GLL Z 20
@<TRIPOS>SET

