#    Name: 1b6l_PI4_1_ligand
#    Modification time : Mon Mar 24 19:25:38 2014

@<TRIPOS>MOLECULE
1b6l_PI4_1_ligand
   83    85     1     0     0
SMALL
NO_CHARGES


@<TRIPOS>ATOM
      1 C1          6.1160    2.8190    8.8070 C.3       1 PI4201      0.0000 
      2 C2          4.2430    3.2310   10.4450 C.2       1 PI4201      0.0000 
      3 O3          4.1710    4.1370   11.2750 O.2       1 PI4201      0.0000 
      4 C4          4.7890    3.4970    9.0560 C.3       1 PI4201      0.0000 
      5 N5          3.8770    1.9790   10.7050 N.am      1 PI4201      0.0000 
      6 C6          3.3110    1.5880   12.0060 C.3       1 PI4201      0.0000 
      7 C7          3.9670    0.3640   12.6350 C.2       1 PI4201      0.0000 
      8 O8          3.9310   -0.7320   12.0750 O.2       1 PI4201      0.0000 
      9 C9          1.8140    1.3240   11.8550 C.3       1 PI4201      0.0000 
     10 C10         1.0770    2.5020   11.2770 C.2       1 PI4201      0.0000 
     11 O11         0.5120    3.3110   12.0060 O.2       1 PI4201      0.0000 
     12 N12         1.0980    2.6210    9.9530 N.am      1 PI4201      0.0000 
     13 N13         4.5560    0.5590   13.8100 N.am      1 PI4201      0.0000 
     14 C14         5.2190   -0.5330   14.5340 C.3       1 PI4201      0.0000 
     15 C15         6.7350   -0.3200   14.5350 C.3       1 PI4201      0.0000 
     16 C16         7.2100    0.4410   13.3290 C.ar      1 PI4201      0.0000 
     17 C17         7.3330    1.8230   13.3770 C.ar      1 PI4201      0.0000 
     18 C18         7.6760    2.5460   12.2630 C.ar      1 PI4201      0.0000 
     19 C19         7.4640   -0.2060   12.1200 C.ar      1 PI4201      0.0000 
     20 C20         7.8110    0.5160   10.9900 C.ar      1 PI4201      0.0000 
     21 C21         7.9150    1.8950   11.0740 C.ar      1 PI4201      0.0000 
     22 O22         8.2220    2.6510    9.9710 O.3       1 PI4201      0.0000 
     23 C23         7.2420    3.5620    9.5120 C.3       1 PI4201      0.0000 
     24 C24         4.6850   -0.6120   15.9760 C.3       1 PI4201      0.0000 
     25 O25         5.0950    0.5410   16.7170 O.3       1 PI4201      0.0000 
     26 C26         5.1720   -1.8710   16.6730 C.3       1 PI4201      0.0000 
     27 N27         4.4230   -3.0340   16.1410 N.4       1 PI4201      0.0000 
     28 C28         5.1850   -4.2660   16.4870 C.3       1 PI4201      0.0000 
     29 C29         4.4110   -5.5030   16.0160 C.3       1 PI4201      0.0000 
     30 C30         2.9920   -5.5790   16.5630 C.3       1 PI4201      0.0000 
     31 C31         2.2510   -4.2800   16.2880 C.3       1 PI4201      0.0000 
     32 C32         3.0580   -3.0800   16.7610 C.3       1 PI4201      0.0000 
     33 C33         6.5680   -4.2310   15.8390 C.2       1 PI4201      0.0000 
     34 O34         6.7200   -3.7110   14.7320 O.2       1 PI4201      0.0000 
     35 C35         8.9620   -4.8510   16.0860 C.3       1 PI4201      0.0000 
     36 C36         9.4410   -3.4850   15.6080 C.3       1 PI4201      0.0000 
     37 C37         9.8500   -5.3020   17.2420 C.3       1 PI4201      0.0000 
     38 C38         9.0930   -5.8660   14.9560 C.3       1 PI4201      0.0000 
     39 N39         7.5630   -4.7800   16.5410 N.am      1 PI4201      0.0000 
     40 H           6.3192    2.7953    7.7354 H         1 PI4201      0.0000 
     41 H           6.0778    1.7934    9.1769 H         1 PI4201      0.0000 
     42 H           4.0581    3.1493    8.3101 H         1 PI4201      0.0000 
     43 H           4.9045    4.5828    8.9173 H         1 PI4201      0.0000 
     44 H           3.9691    1.2109   10.0094 H         1 PI4201      0.0000 
     45 H           3.4091    2.4215   12.7152 H         1 PI4201      0.0000 
     46 H           1.3983    1.0766   12.8412 H         1 PI4201      0.0000 
     47 H           1.6740    0.4476   11.2077 H         1 PI4201      0.0000 
     48 H           1.6423    1.9431    9.4589 H         1 PI4201      0.0000 
     49 H           0.5676    3.3777    9.5708 H         1 PI4201      0.0000 
     50 H           4.5806    1.4872   14.2790 H         1 PI4201      0.0000 
     51 H           5.0111   -1.4789   14.0499 H         1 PI4201      0.0000 
     52 H           7.2269   -1.3014   14.5713 H         1 PI4201      0.0000 
     53 H           7.0121    0.2230   15.4487 H         1 PI4201      0.0000 
     54 H           7.1602    2.3129   14.2786 H         1 PI4201      0.0000 
     55 H           7.7551    3.5735   12.3138 H         1 PI4201      0.0000 
     56 H           7.3914   -1.2360   12.0708 H         1 PI4201      0.0000 
     57 H           7.9887    0.0361   10.1024 H         1 PI4201      0.0000 
     58 H           6.7956    4.1368   10.3383 H         1 PI4201      0.0000 
     59 H           7.6589    4.2896    8.7984 H         1 PI4201      0.0000 
     60 H           3.5981   -0.6600   15.9183 H         1 PI4201      0.0000 
     61 H           5.0049   -1.7691   17.7420 H         1 PI4201      0.0000 
     62 H           6.2362   -1.9879   16.4866 H         1 PI4201      0.0000 
     63 H           4.3354   -2.9519   15.0787 H         1 PI4201      0.0000 
     64 H           5.3073   -4.3297   17.5564 H         1 PI4201      0.0000 
     65 H           4.9647   -6.4041   16.3210 H         1 PI4201      0.0000 
     66 H           4.3746   -5.4999   14.9159 H         1 PI4201      0.0000 
     67 H           3.0287   -5.7540   17.6360 H         1 PI4201      0.0000 
     68 H           2.4660   -6.4031   16.0861 H         1 PI4201      0.0000 
     69 H           1.2910   -4.2954   16.8064 H         1 PI4201      0.0000 
     70 H           2.0660   -4.1899   15.2164 H         1 PI4201      0.0000 
     71 H           2.5076   -2.1625   16.5120 H         1 PI4201      0.0000 
     72 H           3.1499   -3.1238   17.8548 H         1 PI4201      0.0000 
     73 H           7.3911   -5.2066   17.4926 H         1 PI4201      0.0000 
     74 H          10.3889   -3.5139   15.2908 H         1 PI4201      0.0000 
     75 H           8.8881   -3.1424   14.8484 H         1 PI4201      0.0000 
     76 H           9.3961   -2.8003   16.3354 H         1 PI4201      0.0000 
     77 H          10.8089   -5.3741   16.9675 H         1 PI4201      0.0000 
     78 H           9.8123   -4.6631   18.0104 H         1 PI4201      0.0000 
     79 H           9.5772   -6.1981   17.5922 H         1 PI4201      0.0000 
     80 H          10.0395   -5.9568   14.6462 H         1 PI4201      0.0000 
     81 H           8.7880   -6.7760   15.2369 H         1 PI4201      0.0000 
     82 H           8.5473   -5.6070   14.1590 H         1 PI4201      0.0000 
     83 H           6.0939    0.4980   16.7307 H         1 PI4201      0.0000 
@<TRIPOS>BOND
     1    4    1 1    
     2   23    1 1    
     3   40    1 1    
     4   41    1 1    
     5    3    2 2    
     6    4    2 1    
     7    5    2 am   
     8   42    4 1    
     9   43    4 1    
    10    6    5 1    
    11   44    5 1    
    12    7    6 1    
    13    9    6 1    
    14   45    6 1    
    15    8    7 2    
    16   13    7 am   
    17   10    9 1    
    18   46    9 1    
    19   47    9 1    
    20   11   10 2    
    21   12   10 am   
    22   48   12 1    
    23   49   12 1    
    24   14   13 1    
    25   50   13 1    
    26   15   14 1    
    27   24   14 1    
    28   51   14 1    
    29   16   15 1    
    30   52   15 1    
    31   53   15 1    
    32   17   16 ar   
    33   19   16 ar   
    34   18   17 ar   
    35   54   17 1    
    36   21   18 ar   
    37   55   18 1    
    38   20   19 ar   
    39   56   19 1    
    40   21   20 ar   
    41   57   20 1    
    42   22   21 1    
    43   23   22 1    
    44   58   23 1    
    45   59   23 1    
    46   25   24 1    
    47   26   24 1    
    48   60   24 1    
    49   83   25 1    
    50   27   26 1    
    51   61   26 1    
    52   62   26 1    
    53   28   27 1    
    54   32   27 1    
    55   63   27 1    
    56   29   28 1    
    57   33   28 1    
    58   64   28 1    
    59   30   29 1    
    60   65   29 1    
    61   66   29 1    
    62   31   30 1    
    63   67   30 1    
    64   68   30 1    
    65   32   31 1    
    66   69   31 1    
    67   70   31 1    
    68   71   32 1    
    69   72   32 1    
    70   34   33 2    
    71   39   33 am   
    72   36   35 1    
    73   37   35 1    
    74   38   35 1    
    75   39   35 1    
    76   74   36 1    
    77   75   36 1    
    78   76   36 1    
    79   77   37 1    
    80   78   37 1    
    81   79   37 1    
    82   80   38 1    
    83   81   38 1    
    84   82   38 1    
    85   73   39 1    
@<TRIPOS>SUBSTRUCTURE
     1 PI4201      1 GROUP   
@<TRIPOS>SET

