#    Name: 3nyo_AMP_1_INTS_M
#    Modification time : Tue Mar 25 02:59:00 2014

@<TRIPOS>MOLECULE
3nyo_AMP_1_INTS_M
   48     0    12     0     0
SMALL
NO_CHARGES


@<TRIPOS>ATOM
      1 NZ        -79.7755   18.4115   24.0200 N.4       3 LYC4        0.0000 
      2 NZ        -79.2800   16.7530   24.8680 N.4      11 LYL4        0.0000 
      3 NZ        -80.2710   20.0700   23.1720 N.4       7 LYP4        0.0000 
      4 NZ        -79.1275   19.2585   23.3380 N.4       3 LYC4        0.0000 
      5 NZ        -77.9840   18.4470   23.5040 N.4      11 LYL4        0.0000 
      6 N         -79.1275   19.2585   23.3380 N.am      2 SEC2        0.0000 
      7 N         -77.9840   18.4470   23.5040 N.am     10 SEL2        0.0000 
      8 N         -80.2710   20.0700   23.1720 N.am      6 SEP2        0.0000 
      9 CA        -79.3200   14.4870   23.7640 C.3       4 GLC5        0.0000 
     10 CA        -77.4300   14.7190   23.9250 C.3      12 GLL5        0.0000 
     11 CA        -81.2100   14.2550   23.6030 C.3       8 GLP5        0.0000 
     12 CA        -77.8725   15.0260   21.9315 C.3       4 GLC5        0.0000 
     13 CA        -78.3150   15.3330   19.9380 C.3       8 GLP5        0.0000 
     14 CA        -76.1355   12.2720   23.0365 C.3       4 GLC5        0.0000 
     15 CA        -76.0280   14.1240   23.8850 C.3      12 GLL5        0.0000 
     16 CA        -76.2430   10.4200   22.1880 C.3       8 GLP5        0.0000 
     17 CA        -72.3285   16.2280   24.3780 C.3       4 GLC5        0.0000 
     18 CA        -73.7110   14.6530   23.8690 C.3      12 GLL5        0.0000 
     19 CA        -70.9460   17.8030   24.8870 C.3       8 GLP5        0.0000 
     20 O         -72.1075   13.1780   25.1800 O.2       1 ALC1        0.0000 
     21 O         -73.0670   13.4610   24.3240 O.2       9 ALL1        0.0000 
     22 O         -71.1480   12.8950   26.0360 O.2       5 ALP1        0.0000 
     23 CA        -75.2145   12.4140   22.3205 C.3       4 GLC5        0.0000 
     24 CA        -74.1860   14.4080   22.4530 C.3      12 GLL5        0.0000 
     25 CA        -75.1860   14.7625   20.5640 C.3       4 GLC5        0.0000 
     26 CA        -76.1860   15.1170   18.6750 C.3       8 GLP5        0.0000 
     27 CA        -70.0550   18.4990   19.8345 C.3       4 GLC5        0.0000 
     28 CA        -72.1770   17.8900   19.5160 C.3      12 GLL5        0.0000 
     29 CA        -67.9330   19.1080   20.1530 C.3       8 GLP5        0.0000 
     30 O         -71.5055   20.0895   18.1520 O.2       1 ALC1        0.0000 
     31 O         -72.3020   19.1330   19.0010 O.2       9 ALL1        0.0000 
     32 O         -70.7090   21.0460   17.3030 O.2       5 ALP1        0.0000 
     33 N         -69.8000   17.9665   18.5160 N.am      2 SEC2        0.0000 
     34 N         -71.1040   17.1230   19.2110 N.am     10 SEL2        0.0000 
     35 N         -68.4960   18.8100   17.8210 N.am      6 SEP2        0.0000 
     36 CA        -70.9115   13.8360   19.0980 C.3       4 GLC5        0.0000 
     37 CA        -70.9690   15.8810   19.7130 C.3      12 GLL5        0.0000 
     38 CA        -70.8540   11.7910   18.4830 C.3       8 GLP5        0.0000 
     39 CA        -70.3780   16.0255   17.7900 C.3       4 GLC5        0.0000 
     40 CA        -69.7870   16.1700   15.8670 C.3       8 GLP5        0.0000 
     41 CA        -69.4510   17.4945   19.9330 C.3       4 GLC5        0.0000 
     42 CA        -71.1355   17.4400   21.2210 C.3       4 GLC5        0.0000 
     43 CA        -71.3020   18.9990   22.7290 C.3       8 GLP5        0.0000 
     44 CA        -74.6405   15.8865   19.6785 C.3       4 GLC5        0.0000 
     45 CA        -73.2090   17.3360   20.4280 C.3      12 GLL5        0.0000 
     46 CA        -73.1470   17.7670   18.0240 C.3       4 GLC5        0.0000 
     47 CA        -73.6010   17.9210   16.0760 C.3       8 GLP5        0.0000 
     48 CA        -72.0695   17.8967   21.5915 C.3       4 GLC5        0.0000 
@<TRIPOS>BOND
@<TRIPOS>SUBSTRUCTURE
     1 ALC1       20 GROUP        1 X    ALC  0     ROOT ALC X 1
     2 SEC2        6 GROUP        1 X    SEC  0     **** SEC X 2
     3 LYC4        1 GROUP        1 X    LYC  0     **** LYC X 4
     4 GLC5        9 GROUP        1 X    GLC  0     **** GLC X 6
     5 ALP1       22 GROUP        1 Y    ALP  0     ROOT ALP Y 8
     6 SEP2        8 GROUP        1 Y    SEP  0     **** SEP Y 9
     7 LYP4        3 GROUP        1 Y    LYP  0     **** LYP Y 11
     8 GLP5       11 GROUP        1 Y    GLP  0     **** GLP Y 13
     9 ALL1       21 GROUP        1 Z    ALL  0     ROOT ALL Z 15
    10 SEL2        7 GROUP        1 Z    SEL  0     **** SEL Z 16
    11 LYL4        2 GROUP        1 Z    LYL  0     **** LYL Z 18
    12 GLL5       10 GROUP        1 Z    GLL  0     **** GLL Z 20
@<TRIPOS>SET

