#    Name: 3nyo_AMP_1_ligand
#    Modification time : Tue Mar 25 02:59:00 2014

@<TRIPOS>MOLECULE
3nyo_AMP_1_ligand
   35    37     1     0     0
SMALL
NO_CHARGES


@<TRIPOS>ATOM
      1 P         -77.9250   17.2410   24.4110 P.3       1 AMP577      0.0000 
      2 O1P       -79.2800   16.7530   24.8680 O.co2     1 AMP577      0.0000 
      3 O2P       -77.9840   18.4470   23.5040 O.co2     1 AMP577      0.0000 
      4 O3P       -76.8710   17.3280   25.4960 O.co2     1 AMP577      0.0000 
      5 O5'       -77.4250   16.0570   23.4470 O.3       1 AMP577      0.0000 
      6 C5'       -77.4300   14.7190   23.9250 C.3       1 AMP577      0.0000 
      7 C4'       -76.0280   14.1240   23.8850 C.3       1 AMP577      0.0000 
      8 O4'       -75.5610   14.0400   22.5390 O.3       1 AMP577      0.0000 
      9 C3'       -74.9840   14.9310   24.6400 C.3       1 AMP577      0.0000 
     10 O3'       -74.8900   14.5270   26.0070 O.3       1 AMP577      0.0000 
     11 C2'       -73.7110   14.6530   23.8690 C.3       1 AMP577      0.0000 
     12 O2'       -73.0670   13.4610   24.3240 O.3       1 AMP577      0.0000 
     13 C1'       -74.1860   14.4080   22.4530 C.3       1 AMP577      0.0000 
     14 N9        -74.0170   15.6870   21.7180 N.pl3     1 AMP577      0.0000 
     15 C8        -74.8430   16.7540   21.7350 C.2       1 AMP577      0.0000 
     16 N7        -74.3680   17.7590   20.9600 N.2       1 AMP577      0.0000 
     17 C5        -73.2090   17.3360   20.4280 C.ar      1 AMP577      0.0000 
     18 C6        -72.1770   17.8900   19.5160 C.ar      1 AMP577      0.0000 
     19 N6        -72.3020   19.1330   19.0010 N.pl3     1 AMP577      0.0000 
     20 N1        -71.1040   17.1230   19.2110 N.ar      1 AMP577      0.0000 
     21 C2        -70.9690   15.8810   19.7130 C.ar      1 AMP577      0.0000 
     22 N3        -71.8630   15.3120   20.5490 N.ar      1 AMP577      0.0000 
     23 C4        -72.9810   15.9760   20.9360 C.ar      1 AMP577      0.0000 
     24 H         -78.0847   14.0715   23.3196 H         1 AMP577      0.0000 
     25 H         -77.7887   14.6583   24.9652 H         1 AMP577      0.0000 
     26 H         -76.0572   13.1279   24.3230 H         1 AMP577      0.0000 
     27 H         -75.2244   15.9667   24.5187 H         1 AMP577      0.0000 
     28 H         -73.0958   15.5010   23.8781 H         1 AMP577      0.0000 
     29 H         -73.5868   13.6501   22.0246 H         1 AMP577      0.0000 
     30 H         -75.6835   16.7995   22.2441 H         1 AMP577      0.0000 
     31 H         -71.5747   19.4277   18.3812 H         1 AMP577      0.0000 
     32 H         -73.1107   19.6479   19.2854 H         1 AMP577      0.0000 
     33 H         -70.1085   15.3142   19.4356 H         1 AMP577      0.0000 
     34 H         -74.3243   13.7025   25.9948 H         1 AMP577      0.0000 
     35 H         -72.3680   13.7739   24.9670 H         1 AMP577      0.0000 
@<TRIPOS>BOND
     1    2    1 ar   
     2    3    1 ar   
     3    4    1 ar   
     4    5    1 1    
     5    6    5 1    
     6    7    6 1    
     7   24    6 1    
     8   25    6 1    
     9    8    7 1    
    10    9    7 1    
    11   26    7 1    
    12   13    8 1    
    13   10    9 1    
    14   11    9 1    
    15   27    9 1    
    16   34   10 1    
    17   12   11 1    
    18   13   11 1    
    19   28   11 1    
    20   35   12 1    
    21   14   13 1    
    22   29   13 1    
    23   15   14 1    
    24   23   14 1    
    25   16   15 2    
    26   30   15 1    
    27   17   16 1    
    28   18   17 ar   
    29   23   17 ar   
    30   19   18 1    
    31   20   18 ar   
    32   31   19 1    
    33   32   19 1    
    34   21   20 ar   
    35   22   21 ar   
    36   33   21 1    
    37   23   22 ar   
@<TRIPOS>SUBSTRUCTURE
     1 AMP577      1 GROUP   
@<TRIPOS>SET

