#    Name: 4b0g_VEK_1_INTS_M
#    Modification time : Tue Mar 25 06:26:27 2014

@<TRIPOS>MOLECULE
4b0g_VEK_1_INTS_M
   72     0     3     0     0
SMALL
NO_CHARGES


@<TRIPOS>ATOM
      1 CA        -22.9200   -4.6045  -14.5335 C.3       1 GLC5        0.0000 
      2 CA        -22.1310   -6.2510  -15.1940 C.3       3 GLL5        0.0000 
      3 CA        -23.7090   -2.9580  -13.8730 C.3       2 GLP5        0.0000 
      4 CA        -22.1980   -6.7815  -16.9010 C.3       1 GLC5        0.0000 
      5 CA        -22.2650   -7.3120  -18.6080 C.3       2 GLP5        0.0000 
      6 CA        -21.3450   -7.2100  -13.0535 C.3       1 GLC5        0.0000 
      7 CA        -21.4680   -8.7010  -14.3080 C.3       3 GLL5        0.0000 
      8 CA        -21.2220   -5.7190  -11.7990 C.3       2 GLP5        0.0000 
      9 CA        -19.7660   -8.7620  -14.2865 C.3       1 GLC5        0.0000 
     10 CA        -18.0640   -8.8230  -14.2650 C.3       2 GLP5        0.0000 
     11 CA        -23.0815   -9.2205  -15.0990 C.3       1 GLC5        0.0000 
     12 CA        -24.6950   -9.7400  -15.8900 C.3       2 GLP5        0.0000 
     13 CA        -19.8220   -9.9575  -13.6345 C.3       1 GLC5        0.0000 
     14 CA        -21.5800  -11.0920  -13.0040 C.3       3 GLL5        0.0000 
     15 CA        -23.1375  -10.4160  -14.4470 C.3       1 GLC5        0.0000 
     16 CA        -24.3775  -11.9090  -11.8670 C.3       1 GLC5        0.0000 
     17 CA        -23.1520  -12.9770  -13.1960 C.3       3 GLL5        0.0000 
     18 CA        -25.6030  -10.8410  -10.5380 C.3       2 GLP5        0.0000 
     19 CA        -23.9235  -11.3585  -14.5430 C.3       1 GLC5        0.0000 
     20 CA        -26.1210  -13.6315  -13.7805 C.3       1 GLC5        0.0000 
     21 CA        -24.2660  -13.5150  -14.0870 C.3       3 GLL5        0.0000 
     22 CA        -27.9760  -13.7480  -13.4740 C.3       2 GLP5        0.0000 
     23 CA        -25.1720  -11.8900  -14.8150 C.3       1 GLC5        0.0000 
     24 CA        -26.0780  -10.2650  -15.5430 C.3       2 GLP5        0.0000 
     25 CA        -25.1620  -12.1430  -17.5850 C.3       1 GLC5        0.0000 
     26 CA        -23.7670  -12.9990  -18.5960 C.3       3 GLL5        0.0000 
     27 CA        -26.5570  -11.2870  -16.5740 C.3       2 GLP5        0.0000 
     28 CA        -23.6500  -11.9475  -19.9905 C.3       1 GLC5        0.0000 
     29 CA        -23.5330  -10.8960  -21.3850 C.3       2 GLP5        0.0000 
     30 CA        -26.4445  -14.5490  -19.2285 C.3       1 GLC5        0.0000 
     31 CA        -25.1170  -15.5640  -18.6350 C.3       3 GLL5        0.0000 
     32 CA        -27.7720  -13.5340  -19.8220 C.3       2 GLP5        0.0000 
     33 CA        -23.5720  -15.3540  -19.8880 C.3       1 GLC5        0.0000 
     34 CA        -22.0270  -15.1440  -21.1410 C.3       2 GLP5        0.0000 
     35 CA        -26.4735  -16.5930  -19.8710 C.3       1 GLC5        0.0000 
     36 CA        -27.8300  -17.6220  -21.1070 C.3       2 GLP5        0.0000 
     37 CA        -25.2465  -18.4635  -17.6040 C.3       1 GLC5        0.0000 
     38 CA        -25.8310  -16.8480  -16.6820 C.3       3 GLL5        0.0000 
     39 CA        -24.6620  -20.0790  -18.5260 C.3       2 GLP5        0.0000 
     40 CA        -25.0785  -19.2240  -12.2915 C.3       1 GLC5        0.0000 
     41 CA        -25.4390  -17.1760  -11.5340 C.3       3 GLL5        0.0000 
     42 CA        -24.7180  -21.2720  -13.0490 C.3       2 GLP5        0.0000 
     43 CA        -23.3640  -17.7610  -11.5650 C.3       1 GLC5        0.0000 
     44 CA        -21.2890  -18.3460  -11.5960 C.3       2 GLP5        0.0000 
     45 CA        -22.1675  -15.4470  -16.6445 C.3       1 GLC5        0.0000 
     46 CA        -22.3830  -13.6950  -15.7170 C.3       3 GLL5        0.0000 
     47 CA        -21.9520  -17.1990  -17.5720 C.3       2 GLP5        0.0000 
     48 CA        -23.1765  -11.0955  -15.4925 C.3       1 GLC5        0.0000 
     49 CA        -21.6580  -12.4510  -15.0950 C.3       3 GLL5        0.0000 
     50 CA        -21.7225   -6.3045  -13.2812 C.3       1 GLC5        0.0000 
     51 CA        -22.3150   -7.5290  -14.3330 C.3       3 GLL5        0.0000 
     52 CA        -20.4970   -6.6490  -14.3742 C.3       1 GLC5        0.0000 
     53 CA        -18.7710   -6.4080  -13.9850 C.3       2 GLP5        0.0000 
     54 CA        -24.1725   -6.3700  -14.2378 C.3       1 GLC5        0.0000 
     55 CA        -26.1220   -5.8500  -13.7120 C.3       2 GLP5        0.0000 
     56 CA        -23.4590   -8.3150  -15.3268 C.3       1 GLC5        0.0000 
     57 CA        -21.9387   -8.4210  -16.2002 C.3       1 GLC5        0.0000 
     58 CA        -21.9860   -8.7270  -18.0800 C.3       2 GLP5        0.0000 
     59 CA        -25.5527  -12.9580  -16.8143 C.3       1 GLC5        0.0000 
     60 CA        -24.5800  -14.6880  -16.3660 C.3       3 GLL5        0.0000 
     61 CA        -25.9570  -13.6593  -18.9958 C.3       1 GLC5        0.0000 
     62 CA        -24.5170  -14.5700  -17.7430 C.3       3 GLL5        0.0000 
     63 CA        -23.0845  -14.4642  -19.6552 C.3       1 GLC5        0.0000 
     64 CA        -23.3924  -16.1478  -17.7084 C.3       1 GLC5        0.0000 
     65 CA        -27.1687  -15.2589  -16.0455 C.3       1 GLC5        0.0000 
     66 CA        -28.9630  -14.4520  -15.7060 C.3       2 GLP5        0.0000 
     67 CA        -23.7477  -16.7812  -16.9090 C.3       1 GLC5        0.0000 
     68 CA        -25.2560  -15.8790  -15.8100 C.3       3 GLL5        0.0000 
     69 CA        -28.3947  -17.2447  -13.5738 C.3       1 GLC5        0.0000 
     70 CA        -26.6720  -18.2620  -13.4760 C.3       3 GLL5        0.0000 
     71 CA        -29.6220  -15.7150  -13.5980 C.3       2 GLP5        0.0000 
     72 CA        -25.9428  -20.0232  -13.2992 C.3       1 GLC5        0.0000 
@<TRIPOS>BOND
@<TRIPOS>SUBSTRUCTURE
     1 GLC5        1 GROUP        1 X    GLC  0     ROOT GLC X 6
     2 GLP5        3 GROUP        1 Y    GLP  0     ROOT GLP Y 13
     3 GLL5        2 GROUP        1 Z    GLL  0     ROOT GLL Z 20
@<TRIPOS>SET

