#    Name: 4b0g_VEK_1_ligand
#    Modification time : Tue Mar 25 06:26:27 2014

@<TRIPOS>MOLECULE
4b0g_VEK_1_ligand
   52    56     1     0     0
SMALL
NO_CHARGES


@<TRIPOS>ATOM
      1 C01       -22.1310   -6.2510  -15.1940 C.3       1 VEK1392     0.0000 
      2 C02       -22.3150   -7.5290  -14.3330 C.2       1 VEK1392     0.0000 
      3 C03       -21.4680   -8.7010  -14.3080 C.2       1 VEK1392     0.0000 
      4 C04       -22.0780   -9.6650  -13.3310 C.2       1 VEK1392     0.0000 
      5 C05       -21.5800  -11.0920  -13.0040 C.3       1 VEK1392     0.0000 
      6 N06       -22.3330  -11.9630  -13.8890 N.4       1 VEK1392     0.0000 
      7 C07       -23.1520  -12.9770  -13.1960 C.3       1 VEK1392     0.0000 
      8 C08       -24.2660  -13.5150  -14.0870 C.3       1 VEK1392     0.0000 
      9 N09       -23.8690  -13.7010  -15.4840 N.3       1 VEK1392     0.0000 
     10 C10       -24.5800  -14.6880  -16.3660 C.ar      1 VEK1392     0.0000 
     11 C11       -24.5170  -14.5700  -17.7430 C.ar      1 VEK1392     0.0000 
     12 BR        -23.7670  -12.9990  -18.5960 Br        1 VEK1392     0.0000 
     13 C13       -25.1170  -15.5640  -18.6350 C.ar      1 VEK1392     0.0000 
     14 N14       -25.7680  -16.6910  -18.0900 N.pl3     1 VEK1392     0.0000 
     15 C15       -25.8310  -16.8480  -16.6820 C.ar      1 VEK1392     0.0000 
     16 N16       -26.3900  -17.8420  -15.9210 N.2       1 VEK1392     0.0000 
     17 C17       -26.1730  -17.5140  -14.5550 C.2       1 VEK1392     0.0000 
     18 C18       -26.6720  -18.2620  -13.4760 C.2       1 VEK1392     0.0000 
     19 C19       -27.6630  -19.2870  -13.6230 C.2       1 VEK1392     0.0000 
     20 N20       -27.9560  -19.7440  -12.3710 N.2       1 VEK1392     0.0000 
     21 C21       -27.1900  -19.0370  -11.4460 C.2       1 VEK1392     0.0000 
     22 N22       -26.3930  -18.1130  -12.1490 N.pl3     1 VEK1392     0.0000 
     23 C23       -25.4390  -17.1760  -11.5340 C.3       1 VEK1392     0.0000 
     24 N24       -25.4870  -16.3130  -14.5020 N.pl3     1 VEK1392     0.0000 
     25 C25       -25.2560  -15.8790  -15.8100 C.ar      1 VEK1392     0.0000 
     26 C26       -22.3830  -13.6950  -15.7170 C.3       1 VEK1392     0.0000 
     27 C27       -21.6580  -12.4510  -15.0950 C.3       1 VEK1392     0.0000 
     28 N28       -23.2560   -9.0870  -12.7990 N.2       1 VEK1392     0.0000 
     29 O29       -23.4160   -7.7420  -13.4070 O.3       1 VEK1392     0.0000 
     30 H         -20.7075   -8.8554  -14.7797 H         1 VEK1392     0.0000 
     31 H         -21.7915  -11.2900  -11.9720 H         1 VEK1392     0.0000 
     32 H         -20.5276  -11.1312  -13.2037 H         1 VEK1392     0.0000 
     33 H         -23.1805  -11.2273  -14.3386 H         1 VEK1392     0.0000 
     34 H         -23.6077  -12.5472  -12.2922 H         1 VEK1392     0.0000 
     35 H         -22.5244  -13.8218  -12.8770 H         1 VEK1392     0.0000 
     36 H         -25.1255  -12.8167  -14.0197 H         1 VEK1392     0.0000 
     37 H         -24.6170  -14.4745  -13.6545 H         1 VEK1392     0.0000 
     38 H         -25.0525  -15.4221  -19.6339 H         1 VEK1392     0.0000 
     39 H         -26.1897  -17.3870  -18.6994 H         1 VEK1392     0.0000 
     40 H         -28.0189  -19.5635  -14.4459 H         1 VEK1392     0.0000 
     41 H         -27.1979  -19.1514  -10.5087 H         1 VEK1392     0.0000 
     42 H         -25.2162  -15.8559  -13.7151 H         1 VEK1392     0.0000 
     43 H         -22.1682  -13.7013  -16.7945 H         1 VEK1392     0.0000 
     44 H         -21.9278  -14.5965  -15.2843 H         1 VEK1392     0.0000 
     45 H         -20.6252  -12.7532  -14.8780 H         1 VEK1392     0.0000 
     46 H         -21.6214  -11.6759  -15.8715 H         1 VEK1392     0.0000 
     47 H         -21.2612   -5.7963  -15.0026 H         1 VEK1392     0.0000 
     48 H         -22.1448   -6.4572  -16.1724 H         1 VEK1392     0.0000 
     49 H         -22.8549   -5.5820  -15.0252 H         1 VEK1392     0.0000 
     50 H         -24.5052  -17.3319  -11.8561 H         1 VEK1392     0.0000 
     51 H         -25.6660  -16.2247  -11.7425 H         1 VEK1392     0.0000 
     52 H         -25.4236  -17.2621  -10.5378 H         1 VEK1392     0.0000 
@<TRIPOS>BOND
     1    2    1 1    
     2   47    1 1    
     3   48    1 1    
     4   49    1 1    
     5    3    2 2    
     6   29    2 1    
     7    4    3 1    
     8   30    3 1    
     9    5    4 1    
    10   28    4 2    
    11    6    5 1    
    12   31    5 1    
    13   32    5 1    
    14    7    6 1    
    15   27    6 1    
    16   33    6 1    
    17    8    7 1    
    18   34    7 1    
    19   35    7 1    
    20    9    8 1    
    21   36    8 1    
    22   37    8 1    
    23   10    9 1    
    24   26    9 1    
    25   11   10 ar   
    26   25   10 ar   
    27   12   11 1    
    28   13   11 ar   
    29   14   13 ar   
    30   38   13 1    
    31   15   14 ar   
    32   39   14 1    
    33   16   15 1    
    34   25   15 ar   
    35   17   16 2    
    36   18   17 1    
    37   24   17 1    
    38   19   18 2    
    39   22   18 1    
    40   20   19 1    
    41   40   19 1    
    42   21   20 2    
    43   22   21 1    
    44   41   21 1    
    45   23   22 1    
    46   50   23 1    
    47   51   23 1    
    48   52   23 1    
    49   25   24 1    
    50   42   24 1    
    51   27   26 1    
    52   43   26 1    
    53   44   26 1    
    54   45   27 1    
    55   46   27 1    
    56   29   28 1    
@<TRIPOS>SUBSTRUCTURE
     1 VEK1392     1 GROUP   
@<TRIPOS>SET

