#    Name: 1eby_BEB_1_INTS_M
#    Modification time : Mon Mar 24 23:24:32 2014

@<TRIPOS>MOLECULE
1eby_BEB_1_INTS_M
  121     0     9     0     0
SMALL
NO_CHARGES


@<TRIPOS>ATOM
      1 CA          7.6820   21.5225    2.3605 C.3       3 GLC5        0.0000 
      2 CA          9.0430   23.1720    2.8100 C.3       9 GLL5        0.0000 
      3 CA          6.3210   19.8730    1.9110 C.3       6 GLP5        0.0000 
      4 CA         14.0000   22.1525   10.2025 C.3       3 GLC5        0.0000 
      5 CA         15.8970   21.1820    9.5900 C.3       9 GLL5        0.0000 
      6 CA         12.1030   23.1230   10.8150 C.3       6 GLP5        0.0000 
      7 CA         16.1550   19.6600   11.9855 C.3       3 GLC5        0.0000 
      8 CA         16.5680   20.0300   10.0940 C.3       9 GLL5        0.0000 
      9 CA         15.7420   19.2900   13.8770 C.3       6 GLP5        0.0000 
     10 CA         18.9295   23.6365    8.5210 C.3       3 GLC5        0.0000 
     11 CA         18.0100   21.9900    8.6100 C.3       9 GLL5        0.0000 
     12 CA         19.8490   25.2830    8.4320 C.3       6 GLP5        0.0000 
     13 CA         17.8695   24.3425    8.3600 C.3       3 GLC5        0.0000 
     14 CA         15.8900   23.4020    8.2880 C.3       9 GLL5        0.0000 
     15 CA         12.9900   26.5440    3.4035 C.3       3 GLC5        0.0000 
     16 CA         12.2210   24.7320    4.3560 C.3       9 GLL5        0.0000 
     17 CA         13.7590   28.3560    2.4510 C.3       6 GLP5        0.0000 
     18 O          10.9420   26.8220    4.3875 O.2       1 ALC1        0.0000 
     19 O          10.2610   25.8030    5.3600 O.2       7 ALL1        0.0000 
     20 O          11.6230   27.8410    3.4150 O.2       4 ALP1        0.0000 
     21 N          15.1930   25.9005    5.6565 N.am      2 SEC2        0.0000 
     22 N          14.6400   25.2940    4.4910 N.am      8 SEL2        0.0000 
     23 N          15.7460   26.5070    6.8220 N.am      5 SEP2        0.0000 
     24 O          14.7275   25.0665    3.1880 O.2       1 ALC1        0.0000 
     25 O          14.6400   25.2940    4.4910 O.2       7 ALL1        0.0000 
     26 O          14.8150   24.8390    1.8850 O.2       4 ALP1        0.0000 
     27 O          17.5385   21.9150    5.3955 O.2       1 ALC1        0.0000 
     28 O          16.5050   20.7010    5.5790 O.2       7 ALL1        0.0000 
     29 O          18.5720   23.1290    5.2120 O.2       4 ALP1        0.0000 
     30 CA         15.5950   20.6170    0.1170 C.3       3 GLC5        0.0000 
     31 CA         15.9380   18.9450    1.5610 C.3       9 GLL5        0.0000 
     32 CA         15.2520   22.2890   -1.3270 C.3       6 GLP5        0.0000 
     33 N          19.8240   20.2450    4.0305 N.am      2 SEC2        0.0000 
     34 N          19.2290   19.7990    5.3760 N.am      8 SEL2        0.0000 
     35 N          20.4190   20.6910    2.6850 N.am      5 SEP2        0.0000 
     36 O          20.5320   19.2190    5.4695 O.2       1 ALC1        0.0000 
     37 O          19.2290   19.7990    5.3760 O.2       7 ALL1        0.0000 
     38 O          21.8350   18.6390    5.5630 O.2       4 ALP1        0.0000 
     39 CA         17.3460   15.4760    2.3365 C.3       3 GLC5        0.0000 
     40 CA         17.7580   17.3950    2.2120 C.3       9 GLL5        0.0000 
     41 CA         16.9340   13.5570    2.4610 C.3       6 GLP5        0.0000 
     42 CA         20.3175   18.2620    3.9945 C.3       3 GLC5        0.0000 
     43 CA         18.4980   17.5180    4.7450 C.3       9 GLL5        0.0000 
     44 CA         22.1370   19.0060    3.2440 C.3       6 GLP5        0.0000 
     45 CA          8.5690   23.8695    6.1585 C.3       3 GLC5        0.0000 
     46 CA          9.0290   26.0670    6.1350 C.3       9 GLL5        0.0000 
     47 CA          8.1090   21.6720    6.1820 C.3       6 GLP5        0.0000 
     48 CA          6.7825   26.8110    9.3935 C.3       3 GLC5        0.0000 
     49 CA          8.1960   27.5630    7.8780 C.3       9 GLL5        0.0000 
     50 CA          5.3690   26.0590   10.9090 C.3       6 GLP5        0.0000 
     51 CA         10.8575   24.7300    8.9640 C.3       3 GLC5        0.0000 
     52 CA         10.4560   26.7020    8.3060 C.3       9 GLL5        0.0000 
     53 CA         11.2590   22.7580    9.6220 C.3       6 GLP5        0.0000 
     54 N           9.3100   29.3490    5.3215 N.am      2 SEC2        0.0000 
     55 N           8.5420   28.1100    4.9260 N.am      8 SEL2        0.0000 
     56 N          10.0780   30.5880    5.7170 N.am      5 SEP2        0.0000 
     57 O           7.5110   29.1805    4.4975 O.2       1 ALC1        0.0000 
     58 O           8.5420   28.1100    4.9260 O.2       7 ALL1        0.0000 
     59 O           6.4800   30.2510    4.0690 O.2       4 ALP1        0.0000 
     60 CA          6.5965   27.8880   10.2270 C.3       3 GLC5        0.0000 
     61 CA          8.2070   28.3130    9.0900 C.3       9 GLL5        0.0000 
     62 CA          4.9860   27.4630   11.3640 C.3       6 GLP5        0.0000 
     63 CA          7.4560   29.5340    6.1610 C.3       3 GLC5        0.0000 
     64 CA          7.0940   27.4690    6.8390 C.3       9 GLL5        0.0000 
     65 CA          7.8180   31.5990    5.4830 C.3       6 GLP5        0.0000 
     66 CA         11.5565   22.8260    1.0942 C.3       3 GLC5        0.0000 
     67 CA          9.8440   24.2070    2.2410 C.3       9 GLL5        0.0000 
     68 CA         12.5100   21.5320    0.0050 C.3       6 GLP5        0.0000 
     69 CA          8.1457   24.3663    0.4425 C.3       3 GLC5        0.0000 
     70 CA          7.8250   25.5750    1.9120 C.3       9 GLL5        0.0000 
     71 CA          8.8660   23.6740   -1.3110 C.3       6 GLP5        0.0000 
     72 CA          6.5610   22.4017    1.8028 C.3       3 GLC5        0.0000 
     73 CA          7.0260   24.5420    2.4800 C.3       9 GLL5        0.0000 
     74 CA          5.7900   20.8630    0.9010 C.3       6 GLP5        0.0000 
     75 CA          8.2248   22.4637    4.5258 C.3       3 GLC5        0.0000 
     76 CA          7.6380   23.3390    2.9290 C.3       9 GLL5        0.0000 
     77 CA          8.6032   23.4648    0.7792 C.3       3 GLC5        0.0000 
     78 CA         15.4537   24.1173    9.5935 C.3       3 GLC5        0.0000 
     79 CA         16.6170   22.1670    8.8460 C.3       9 GLL5        0.0000 
     80 CA         14.6540   25.4500   10.6200 C.3       6 GLP5        0.0000 
     81 CA         14.7562   19.4300    8.9365 C.3       3 GLC5        0.0000 
     82 CA         13.2800   18.2540    8.0310 C.3       6 GLP5        0.0000 
     83 CA         17.5810   21.4793   11.0640 C.3       3 GLC5        0.0000 
     84 CA         17.8980   23.0140   12.1540 C.3       6 GLP5        0.0000 
     85 CA         18.1217   22.2142   10.5080 C.3       3 GLC5        0.0000 
     86 CA         18.6810   20.8390    9.1140 C.3       9 GLL5        0.0000 
     87 CA         16.9857   22.7761   10.4535 C.3       3 GLC5        0.0000 
     88 CA         10.7719   21.9766    2.5634 C.3       3 GLC5        0.0000 
     89 CA         11.3620   24.0330    2.1260 C.3       9 GLL5        0.0000 
     90 CA         11.1410   20.0920    2.8010 C.3       6 GLP5        0.0000 
     91 CA         11.0504   25.7743    0.7465 C.3       3 GLC5        0.0000 
     92 CA         11.6510   27.1290   -0.5790 C.3       6 GLP5        0.0000 
     93 CA          9.6579   24.0468    0.3805 C.3       3 GLC5        0.0000 
     94 CA          9.2310   25.4050    1.7950 C.3       9 GLL5        0.0000 
     95 CA         17.7097   20.7085    3.5890 C.3       3 GLC5        0.0000 
     96 CA         16.7550   18.9200    3.8830 C.3       9 GLL5        0.0000 
     97 CA         18.6070   22.3070    2.5570 C.3       6 GLP5        0.0000 
     98 CA         17.0183   15.8705    3.8265 C.3       3 GLC5        0.0000 
     99 CA         17.6770   17.9100    3.5290 C.3       9 GLL5        0.0000 
    100 CA         15.9490   14.0270    3.5160 C.3       6 GLP5        0.0000 
    101 CA         15.3938   16.7127    1.5765 C.3       3 GLC5        0.0000 
    102 CA         16.8750   17.9240    1.2270 C.3       9 GLL5        0.0000 
    103 CA         14.3810   14.9910    1.7590 C.3       6 GLP5        0.0000 
    104 CA         17.0094   20.3889    1.5560 C.3       3 GLC5        0.0000 
    105 CA         17.6280   22.2180    1.3850 C.3       6 GLP5        0.0000 
    106 CA         18.7033   17.2627    0.5478 C.3       3 GLC5        0.0000 
    107 CA         20.0900   16.8660   -0.6240 C.3       6 GLP5        0.0000 
    108 CA         16.0981   17.3049    0.2510 C.3       3 GLC5        0.0000 
    109 CA         15.1140   16.6950   -1.3010 C.3       6 GLP5        0.0000 
    110 CA         10.6355   27.8242    6.2940 C.3       3 GLC5        0.0000 
    111 CA         12.1070   29.2340    5.7820 C.3       6 GLP5        0.0000 
    112 CA         11.6713   28.0775    8.0115 C.3       3 GLC5        0.0000 
    113 CA         12.8680   29.0810    7.1070 C.3       6 GLP5        0.0000 
    114 CA         10.8580   27.5258   11.4135 C.3       3 GLC5        0.0000 
    115 CA         10.4930   27.4460    9.5260 C.3       9 GLL5        0.0000 
    116 CA         11.7800   27.2060   13.1050 C.3       6 GLP5        0.0000 
    117 CA          8.7105   26.9203   11.0270 C.3       3 GLC5        0.0000 
    118 CA          7.4850   25.9950   12.3320 C.3       6 GLP5        0.0000 
    119 CA          8.5600   30.1580    9.9025 C.3       3 GLC5        0.0000 
    120 CA          9.3790   28.2450    9.9180 C.3       9 GLL5        0.0000 
    121 CA          8.3270   32.0370   10.3010 C.3       6 GLP5        0.0000 
@<TRIPOS>BOND
@<TRIPOS>SUBSTRUCTURE
     1 ALC1       18 GROUP        1 X    ALC  0     ROOT ALC X 1
     2 SEC2       21 GROUP        1 X    SEC  0     **** SEC X 2
     3 GLC5        1 GROUP        1 X    GLC  0     **** GLC X 6
     4 ALP1       20 GROUP        1 Y    ALP  0     ROOT ALP Y 8
     5 SEP2       23 GROUP        1 Y    SEP  0     **** SEP Y 9
     6 GLP5        3 GROUP        1 Y    GLP  0     **** GLP Y 13
     7 ALL1       19 GROUP        1 Z    ALL  0     ROOT ALL Z 15
     8 SEL2       22 GROUP        1 Z    SEL  0     **** SEL Z 16
     9 GLL5        2 GROUP        1 Z    GLL  0     **** GLL Z 20
@<TRIPOS>SET

