#    Name: 1eby_BEB_1_ligand
#    Modification time : Mon Mar 24 23:24:33 2014

@<TRIPOS>MOLECULE
1eby_BEB_1_ligand
   88    93     1     0     0
SMALL
NO_CHARGES


@<TRIPOS>ATOM
      1 C23         9.8440   24.2070    2.2410 C.ar      1 BEB501      0.0000 
      2 C24         9.2310   25.4050    1.7950 C.ar      1 BEB501      0.0000 
      3 C25         7.8250   25.5750    1.9120 C.ar      1 BEB501      0.0000 
      4 C26         7.0260   24.5420    2.4800 C.ar      1 BEB501      0.0000 
      5 C27         7.6380   23.3390    2.9290 C.ar      1 BEB501      0.0000 
      6 C28         9.0430   23.1720    2.8100 C.ar      1 BEB501      0.0000 
      7 C33        16.6170   22.1670    8.8460 C.ar      1 BEB501      0.0000 
      8 C34        15.8970   21.1820    9.5900 C.ar      1 BEB501      0.0000 
      9 C35        16.5680   20.0300   10.0940 C.ar      1 BEB501      0.0000 
     10 C36        17.9600   19.8590    9.8540 C.ar      1 BEB501      0.0000 
     11 C37        18.6810   20.8390    9.1140 C.ar      1 BEB501      0.0000 
     12 C38        18.0100   21.9900    8.6100 C.ar      1 BEB501      0.0000 
     13 C32        15.8900   23.4020    8.2880 C.3       1 BEB501      0.0000 
     14 O31        14.7960   23.1160    7.3670 O.3       1 BEB501      0.0000 
     15 C9         15.1800   22.6850    6.0280 C.3       1 BEB501      0.0000 
     16 C7         14.0630   23.0590    5.0310 C.3       1 BEB501      0.0000 
     17 C5         13.5940   24.5130    5.1080 C.3       1 BEB501      0.0000 
     18 C4         12.2210   24.7320    4.3560 C.3       1 BEB501      0.0000 
     19 C2         11.0340   24.7260    5.3120 C.2       1 BEB501      0.0000 
     20 O3         10.8180   23.7130    5.9610 O.2       1 BEB501      0.0000 
     21 N1         10.2610   25.8030    5.3600 N.am      1 BEB501      0.0000 
     22 O21        12.0380   23.6650    3.3570 O.3       1 BEB501      0.0000 
     23 C22        11.3620   24.0330    2.1260 C.3       1 BEB501      0.0000 
     24 O6         14.6400   25.2940    4.4910 O.3       1 BEB501      0.0000 
     25 O8         14.5800   22.8360    3.6910 O.3       1 BEB501      0.0000 
     26 C10        15.3410   21.1990    5.9620 C.2       1 BEB501      0.0000 
     27 O11        14.3540   20.5160    6.2110 O.2       1 BEB501      0.0000 
     28 N12        16.5050   20.7010    5.5790 N.am      1 BEB501      0.0000 
     29 C51        16.8700   19.3000    5.3590 C.3       1 BEB501      0.0000 
     30 C52        16.7550   18.9200    3.8830 C.ar      1 BEB501      0.0000 
     31 C57        17.6770   17.9100    3.5290 C.ar      1 BEB501      0.0000 
     32 C53        15.8750   19.4460    2.8930 C.ar      1 BEB501      0.0000 
     33 C54        15.9380   18.9450    1.5610 C.ar      1 BEB501      0.0000 
     34 C55        16.8750   17.9240    1.2270 C.ar      1 BEB501      0.0000 
     35 C59        18.2830   18.7480    5.6730 C.3       1 BEB501      0.0000 
     36 O60        19.2290   19.7990    5.3760 O.3       1 BEB501      0.0000 
     37 C56        17.7580   17.3950    2.2120 C.ar      1 BEB501      0.0000 
     38 C58        18.4980   17.5180    4.7450 C.3       1 BEB501      0.0000 
     39 C41         9.0290   26.0670    6.1350 C.3       1 BEB501      0.0000 
     40 C42         9.2990   26.7620    7.4770 C.ar      1 BEB501      0.0000 
     41 C47         8.1960   27.5630    7.8780 C.ar      1 BEB501      0.0000 
     42 C43        10.4560   26.7020    8.3060 C.ar      1 BEB501      0.0000 
     43 C44        10.4930   27.4460    9.5260 C.ar      1 BEB501      0.0000 
     44 C45         9.3790   28.2450    9.9180 C.ar      1 BEB501      0.0000 
     45 C49         7.9050   26.9920    5.5960 C.3       1 BEB501      0.0000 
     46 O50         8.5420   28.1100    4.9260 O.3       1 BEB501      0.0000 
     47 C46         8.2070   28.3130    9.0900 C.ar      1 BEB501      0.0000 
     48 C48         7.0940   27.4690    6.8390 C.3       1 BEB501      0.0000 
     49 H           9.7996   26.1481    1.3887 H         1 BEB501      0.0000 
     50 H           7.3871   26.4358    1.5898 H         1 BEB501      0.0000 
     51 H           6.0205   24.6648    2.5641 H         1 BEB501      0.0000 
     52 H           7.0687   22.5997    3.3348 H         1 BEB501      0.0000 
     53 H           9.4839   22.3113    3.1311 H         1 BEB501      0.0000 
     54 H          14.9008   21.3051    9.7598 H         1 BEB501      0.0000 
     55 H          16.0523   19.3327   10.6236 H         1 BEB501      0.0000 
     56 H          18.4409   19.0365   10.2110 H         1 BEB501      0.0000 
     57 H          19.6772   20.7171    8.9449 H         1 BEB501      0.0000 
     58 H          18.5281   22.6879    8.0795 H         1 BEB501      0.0000 
     59 H          16.6561   24.0461    7.7967 H         1 BEB501      0.0000 
     60 H          15.5233   23.9944    9.1584 H         1 BEB501      0.0000 
     61 H          16.0782   23.1595    5.7025 H         1 BEB501      0.0000 
     62 H          13.2192   22.4086    5.2013 H         1 BEB501      0.0000 
     63 H          13.4661   24.7801    6.1323 H         1 BEB501      0.0000 
     64 H          12.2724   25.6900    3.8636 H         1 BEB501      0.0000 
     65 H          10.5378   26.6709    4.7400 H         1 BEB501      0.0000 
     66 H          11.7777   24.9861    1.7200 H         1 BEB501      0.0000 
     67 H          11.5518   23.2720    1.3316 H         1 BEB501      0.0000 
     68 H          17.3349   21.3819    5.3891 H         1 BEB501      0.0000 
     69 H          16.1590   18.6088    5.8630 H         1 BEB501      0.0000 
     70 H          15.2097   20.1709    3.1351 H         1 BEB501      0.0000 
     71 H          15.3147   19.3154    0.8481 H         1 BEB501      0.0000 
     72 H          16.9136   17.5675    0.2697 H         1 BEB501      0.0000 
     73 H          18.3050   18.4374    6.6745 H         1 BEB501      0.0000 
     74 H          18.4193   16.6758    1.9749 H         1 BEB501      0.0000 
     75 H          19.5154   17.4496    4.4968 H         1 BEB501      0.0000 
     76 H          18.0924   16.6664    5.2052 H         1 BEB501      0.0000 
     77 H           8.5186   25.1230    6.4250 H         1 BEB501      0.0000 
     78 H          11.2511   26.1345    8.0337 H         1 BEB501      0.0000 
     79 H          11.3211   27.4041   10.1180 H         1 BEB501      0.0000 
     80 H           9.4097   28.7716   10.7879 H         1 BEB501      0.0000 
     81 H           7.2816   26.4299    4.9693 H         1 BEB501      0.0000 
     82 H           7.4225   28.8731    9.3613 H         1 BEB501      0.0000 
     83 H           6.4025   26.7276    7.0994 H         1 BEB501      0.0000 
     84 H           6.6913   28.4146    6.6405 H         1 BEB501      0.0000 
     85 H          14.9369   24.7530    3.7041 H         1 BEB501      0.0000 
     86 H          13.8554   23.1515    3.0783 H         1 BEB501      0.0000 
     87 H          20.1282   19.3712    5.4676 H         1 BEB501      0.0000 
     88 H           7.7911   28.7152    4.6618 H         1 BEB501      0.0000 
@<TRIPOS>BOND
     1    2    1 ar   
     2    6    1 ar   
     3   23    1 1    
     4    3    2 ar   
     5   49    2 1    
     6    4    3 ar   
     7   50    3 1    
     8    5    4 ar   
     9   51    4 1    
    10    6    5 ar   
    11   52    5 1    
    12   53    6 1    
    13    8    7 ar   
    14   12    7 ar   
    15   13    7 1    
    16    9    8 ar   
    17   54    8 1    
    18   10    9 ar   
    19   55    9 1    
    20   11   10 ar   
    21   56   10 1    
    22   12   11 ar   
    23   57   11 1    
    24   58   12 1    
    25   14   13 1    
    26   59   13 1    
    27   60   13 1    
    28   15   14 1    
    29   16   15 1    
    30   26   15 1    
    31   61   15 1    
    32   17   16 1    
    33   25   16 1    
    34   62   16 1    
    35   18   17 1    
    36   24   17 1    
    37   63   17 1    
    38   19   18 1    
    39   22   18 1    
    40   64   18 1    
    41   20   19 2    
    42   21   19 am   
    43   39   21 1    
    44   65   21 1    
    45   23   22 1    
    46   66   23 1    
    47   67   23 1    
    48   85   24 1    
    49   86   25 1    
    50   27   26 2    
    51   28   26 am   
    52   29   28 1    
    53   68   28 1    
    54   30   29 1    
    55   35   29 1    
    56   69   29 1    
    57   31   30 ar   
    58   32   30 ar   
    59   37   31 ar   
    60   38   31 1    
    61   33   32 ar   
    62   70   32 1    
    63   34   33 ar   
    64   71   33 1    
    65   37   34 ar   
    66   72   34 1    
    67   36   35 1    
    68   38   35 1    
    69   73   35 1    
    70   87   36 1    
    71   74   37 1    
    72   75   38 1    
    73   76   38 1    
    74   40   39 1    
    75   45   39 1    
    76   77   39 1    
    77   41   40 ar   
    78   42   40 ar   
    79   47   41 ar   
    80   48   41 1    
    81   43   42 ar   
    82   78   42 1    
    83   44   43 ar   
    84   79   43 1    
    85   47   44 ar   
    86   80   44 1    
    87   46   45 1    
    88   48   45 1    
    89   81   45 1    
    90   88   46 1    
    91   82   47 1    
    92   83   48 1    
    93   84   48 1    
@<TRIPOS>SUBSTRUCTURE
     1 BEB501      1 GROUP   
@<TRIPOS>SET

