#    Name: 3k90_A8S_2_INTS_M
#    Modification time : Mon Mar 24 18:57:55 2014

@<TRIPOS>MOLECULE
3k90_A8S_2_INTS_M
   58     0     9     0     0
SMALL
NO_CHARGES


@<TRIPOS>ATOM
      1 CA          0.1910  -18.4410  -21.1095 C.3       3 GLC5        0.0000 
      2 CA          1.1980  -19.0640  -19.2440 C.3       9 GLL5        0.0000 
      3 CA         -0.8160  -17.8180  -22.9750 C.3       6 GLP5        0.0000 
      4 CA         -1.2415  -19.0585  -15.5005 C.3       3 GLC5        0.0000 
      5 CA          0.5510  -18.0000  -15.7050 C.3       9 GLL5        0.0000 
      6 CA         -3.0340  -20.1170  -15.2960 C.3       6 GLP5        0.0000 
      7 CA         -1.9990  -19.2050  -16.7830 C.3       3 GLC5        0.0000 
      8 CA         -0.9640  -18.2930  -18.2700 C.3       9 GLL5        0.0000 
      9 CA         -2.7395  -17.2940  -18.9955 C.3       3 GLC5        0.0000 
     10 CA         -4.5150  -16.2950  -19.7210 C.3       6 GLP5        0.0000 
     11 CA          0.0370  -14.3150  -11.8225 C.3       3 GLC5        0.0000 
     12 CA          0.1760  -15.9680  -13.1550 C.3       9 GLL5        0.0000 
     13 CA         -0.1020  -12.6620  -10.4900 C.3       6 GLP5        0.0000 
     14 CA         -1.4460  -14.8645  -12.0685 C.3       3 GLC5        0.0000 
     15 CA         -3.0680  -13.7610  -10.9820 C.3       6 GLP5        0.0000 
     16 CA         -0.7510  -18.3575  -11.0435 C.3       3 GLC5        0.0000 
     17 CA         -0.7000  -18.3720  -13.0280 C.3       9 GLL5        0.0000 
     18 CA         -0.8020  -18.3430   -9.0590 C.3       6 GLP5        0.0000 
     19 CA         -1.5220  -19.3640  -11.2445 C.3       3 GLC5        0.0000 
     20 CA         -2.3440  -20.3560   -9.4610 C.3       6 GLP5        0.0000 
     21 CA         -2.0775  -16.9755  -14.0465 C.3       3 GLC5        0.0000 
     22 CA         -3.4550  -15.5790  -15.0650 C.3       6 GLP5        0.0000 
     23 NZ          4.5200  -19.9360  -19.1015 N.4       2 LYC4        0.0000 
     24 NZ          3.3170  -19.3390  -18.4090 N.4       8 LYL4        0.0000 
     25 NZ          5.7230  -20.5330  -19.7940 N.4       5 LYP4        0.0000 
     26 N           4.5200  -19.9360  -19.1015 N.am      1 SEC2        0.0000 
     27 N           3.3170  -19.3390  -18.4090 N.am      7 SEL2        0.0000 
     28 N           5.7230  -20.5330  -19.7940 N.am      4 SEP2        0.0000 
     29 NZ          4.3150  -20.1765  -20.1600 N.4       2 LYC4        0.0000 
     30 NZ          2.9070  -19.8200  -20.5260 N.4       8 LYL4        0.0000 
     31 CA          3.4345  -13.9180  -14.5815 C.3       3 GLC5        0.0000 
     32 CA          2.1680  -15.3830  -14.6120 C.3       9 GLL5        0.0000 
     33 CA          4.7010  -12.4530  -14.5510 C.3       6 GLP5        0.0000 
     34 CA          1.9425  -13.7345  -13.3630 C.3       3 GLC5        0.0000 
     35 CA          1.7170  -12.0860  -12.1140 C.3       6 GLP5        0.0000 
     36 CA          1.5605  -15.1815  -16.6895 C.3       3 GLC5        0.0000 
     37 CA          0.9530  -14.9800  -18.7670 C.3       6 GLP5        0.0000 
     38 CA          3.1095  -17.6910  -11.8355 C.3       3 GLC5        0.0000 
     39 CA          1.6250  -18.7330  -12.1390 C.3       9 GLL5        0.0000 
     40 CA          4.5940  -16.6490  -11.5320 C.3       6 GLP5        0.0000 
     41 CA          0.4115  -18.5380  -10.5990 C.3       3 GLC5        0.0000 
     42 CA          2.4055  -20.5265  -11.9615 C.3       3 GLC5        0.0000 
     43 CA          3.1860  -22.3200  -11.7840 C.3       6 GLP5        0.0000 
     44 CA          1.9765  -21.2840  -12.8400 C.3       3 GLC5        0.0000 
     45 CA          0.7670  -20.2480  -13.8960 C.3       9 GLL5        0.0000 
     46 CA          0.2155  -21.7690  -14.6600 C.3       3 GLC5        0.0000 
     47 CA         -0.3360  -23.2900  -15.4240 C.3       6 GLP5        0.0000 
     48 CA          0.9075  -16.6005  -17.5292 C.3       3 GLC5        0.0000 
     49 CA          1.1730  -18.4420  -16.8780 C.3       9 GLL5        0.0000 
     50 CA         -0.8384  -20.1715  -19.4096 C.3       3 GLC5        0.0000 
     51 CA          0.5350  -18.6060  -18.1090 C.3       9 GLL5        0.0000 
     52 CA         -1.6280  -21.7790  -20.3460 C.3       6 GLP5        0.0000 
     53 CA          0.4521  -16.7720  -18.6201 C.3       3 GLC5        0.0000 
     54 CA          3.1307  -16.2655  -12.9305 C.3       3 GLC5        0.0000 
     55 CA         -1.0348  -15.3247  -14.0947 C.3       3 GLC5        0.0000 
     56 CA          1.1670  -16.3810  -14.0460 C.3       9 GLL5        0.0000 
     57 CA         -2.7410  -14.4750  -14.5890 C.3       6 GLP5        0.0000 
     58 CA         -1.3221  -19.7665  -14.4232 C.3       3 GLC5        0.0000 
@<TRIPOS>BOND
@<TRIPOS>SUBSTRUCTURE
     1 SEC2       26 GROUP        1 X    SEC  0     ROOT SEC X 2
     2 LYC4       23 GROUP        1 X    LYC  0     **** LYC X 4
     3 GLC5        1 GROUP        1 X    GLC  0     **** GLC X 6
     4 SEP2       28 GROUP        1 Y    SEP  0     ROOT SEP Y 9
     5 LYP4       25 GROUP        1 Y    LYP  0     **** LYP Y 11
     6 GLP5        3 GROUP        1 Y    GLP  0     **** GLP Y 13
     7 SEL2       27 GROUP        1 Z    SEL  0     ROOT SEL Z 16
     8 LYL4       24 GROUP        1 Z    LYL  0     **** LYL Z 18
     9 GLL5        2 GROUP        1 Z    GLL  0     **** GLL Z 20
@<TRIPOS>SET

