#    Name: 3k90_A8S_2_ligand
#    Modification time : Mon Mar 24 18:57:55 2014

@<TRIPOS>MOLECULE
3k90_A8S_2_ligand
   38    38     1     0     0
SMALL
NO_CHARGES


@<TRIPOS>ATOM
      1 C1          2.5450  -19.4180  -19.3880 C.2       1 A8S192      0.0000 
      2 C2          1.1980  -19.0640  -19.2440 C.2       1 A8S192      0.0000 
      3 C3          0.5350  -18.6060  -18.1090 C.2       1 A8S192      0.0000 
      4 C4          1.1730  -18.4420  -16.8780 C.2       1 A8S192      0.0000 
      5 C5          0.5510  -18.0000  -15.7050 C.2       1 A8S192      0.0000 
      6 C6         -0.9640  -18.2930  -18.2700 C.3       1 A8S192      0.0000 
      7 C7          1.2590  -17.8530  -14.4780 C.3       1 A8S192      0.0000 
      8 O7          2.6330  -18.1350  -14.6080 O.3       1 A8S192      0.0000 
      9 C8          1.1670  -16.3810  -14.0460 C.2       1 A8S192      0.0000 
     10 C9          0.1760  -15.9680  -13.1550 C.2       1 A8S192      0.0000 
     11 C10        -0.7460  -16.8910  -12.6390 C.2       1 A8S192      0.0000 
     12 O10        -1.6030  -16.5200  -11.8450 O.2       1 A8S192      0.0000 
     13 C11        -0.7000  -18.3720  -13.0280 C.3       1 A8S192      0.0000 
     14 O11         3.3170  -19.3390  -18.4090 O.co2     1 A8S192      0.0000 
     15 C12         0.7250  -18.7960  -13.3820 C.3       1 A8S192      0.0000 
     16 O12         2.9070  -19.8200  -20.5260 O.co2     1 A8S192      0.0000 
     17 C13         2.1680  -15.3830  -14.6120 C.3       1 A8S192      0.0000 
     18 C14         1.6250  -18.7330  -12.1390 C.3       1 A8S192      0.0000 
     19 C15         0.7670  -20.2480  -13.8960 C.3       1 A8S192      0.0000 
     20 H           0.5899  -19.1610  -20.1421 H         1 A8S192      0.0000 
     21 H           2.2083  -18.6695  -16.8267 H         1 A8S192      0.0000 
     22 H          -0.4603  -17.7688  -15.7188 H         1 A8S192      0.0000 
     23 H           0.1181  -14.9806  -12.8723 H         1 A8S192      0.0000 
     24 H          -1.3482  -18.5364  -13.8863 H         1 A8S192      0.0000 
     25 H          -1.0573  -18.9720  -12.1935 H         1 A8S192      0.0000 
     26 H          -1.1234  -17.5811  -18.9539 H         1 A8S192      0.0000 
     27 H          -1.4826  -19.0979  -18.5585 H         1 A8S192      0.0000 
     28 H          -1.3707  -17.9735  -17.4141 H         1 A8S192      0.0000 
     29 H           3.1089  -15.6268  -14.3769 H         1 A8S192      0.0000 
     30 H           2.1187  -15.3327  -15.6095 H         1 A8S192      0.0000 
     31 H           2.0088  -14.4592  -14.2637 H         1 A8S192      0.0000 
     32 H           2.5655  -19.0012  -12.3475 H         1 A8S192      0.0000 
     33 H           1.6617  -17.8111  -11.7534 H         1 A8S192      0.0000 
     34 H           1.3006  -19.3410  -11.4144 H         1 A8S192      0.0000 
     35 H           1.6961  -20.5309  -14.1344 H         1 A8S192      0.0000 
     36 H           0.4304  -20.8943  -13.2111 H         1 A8S192      0.0000 
     37 H           0.2049  -20.3688  -14.7142 H         1 A8S192      0.0000 
     38 H           2.6732  -19.0038  -15.1016 H         1 A8S192      0.0000 
@<TRIPOS>BOND
     1    2    1 1    
     2   14    1 ar   
     3   16    1 ar   
     4    3    2 2    
     5   20    2 1    
     6    4    3 1    
     7    6    3 1    
     8    5    4 2    
     9   21    4 1    
    10    7    5 1    
    11   22    5 1    
    12   26    6 1    
    13   27    6 1    
    14   28    6 1    
    15    8    7 1    
    16    9    7 1    
    17   15    7 1    
    18   38    8 1    
    19   10    9 2    
    20   17    9 1    
    21   11   10 1    
    22   23   10 1    
    23   12   11 2    
    24   13   11 1    
    25   15   13 1    
    26   24   13 1    
    27   25   13 1    
    28   18   15 1    
    29   19   15 1    
    30   29   17 1    
    31   30   17 1    
    32   31   17 1    
    33   32   18 1    
    34   33   18 1    
    35   34   18 1    
    36   35   19 1    
    37   36   19 1    
    38   37   19 1    
@<TRIPOS>SUBSTRUCTURE
     1 A8S192      1 GROUP   
@<TRIPOS>SET

