#    Name: 3fli_33Y_1_INTS_M
#    Modification time : Tue Mar 25 05:43:21 2014

@<TRIPOS>MOLECULE
3fli_33Y_1_INTS_M
   91     0     6     0     0
SMALL
NO_CHARGES


@<TRIPOS>ATOM
      1 CA         45.6050   -5.1775  -14.9670 C.3       2 GLC5        0.0000 
      2 CA         44.6560   -3.5110  -13.8940 C.3       6 GLL5        0.0000 
      3 CA         46.5540   -6.8440  -16.0400 C.3       4 GLP5        0.0000 
      4 CA         43.1065    1.0495  -14.7420 C.3       2 GLC5        0.0000 
      5 CA         42.9810   -0.5110  -13.3480 C.3       6 GLL5        0.0000 
      6 CA         43.2320    2.6100  -16.1360 C.3       4 GLP5        0.0000 
      7 N          41.9815    0.8595   -9.2500 N.am      1 SEC2        0.0000 
      8 N          42.8700    1.1850  -10.3690 N.am      5 SEL2        0.0000 
      9 N          41.0930    0.5340   -8.1310 N.am      3 SEP2        0.0000 
     10 CA         39.8370    3.1755   -9.6940 C.3       2 GLC5        0.0000 
     11 CA         41.0470    2.7880  -11.3690 C.3       6 GLL5        0.0000 
     12 CA         38.6270    3.5630   -8.0190 C.3       4 GLP5        0.0000 
     13 CA         41.7630    3.2130   -9.5820 C.3       2 GLC5        0.0000 
     14 CA         42.4790    3.6380   -7.7950 C.3       4 GLP5        0.0000 
     15 CA         39.5350    4.3890   -9.5730 C.3       2 GLC5        0.0000 
     16 CA         40.4430    5.2150  -11.1270 C.3       6 GLL5        0.0000 
     17 CA         41.1475    5.2540   -9.3900 C.3       2 GLC5        0.0000 
     18 CA         41.8520    5.2930   -7.6530 C.3       4 GLP5        0.0000 
     19 CA         40.0430    7.4050  -11.2150 C.3       2 GLC5        0.0000 
     20 CA         39.6430    9.5950  -11.3030 C.3       4 GLP5        0.0000 
     21 CA         43.3515    4.6760  -13.9600 C.3       2 GLC5        0.0000 
     22 CA         42.6090    4.3730  -12.1280 C.3       6 GLL5        0.0000 
     23 CA         44.0940    4.9790  -15.7920 C.3       4 GLP5        0.0000 
     24 CA         44.5440    3.9905  -11.5790 C.3       2 GLC5        0.0000 
     25 CA         46.4790    3.6080  -11.0300 C.3       4 GLP5        0.0000 
     26 CA         42.5440    4.0055   -9.9615 C.3       2 GLC5        0.0000 
     27 CA         38.2370    3.8070  -12.6015 C.3       2 GLC5        0.0000 
     28 CA         40.2920    4.0460  -13.3290 C.3       6 GLL5        0.0000 
     29 CA         36.1820    3.5680  -11.8740 C.3       4 GLP5        0.0000 
     30 CA         42.2995    5.7895  -14.9325 C.3       2 GLC5        0.0000 
     31 CA         40.5050    6.6000  -14.0730 C.3       6 GLL5        0.0000 
     32 CA         40.1995   -0.4250  -11.5355 C.3       2 GLC5        0.0000 
     33 CA         40.5890    1.0670  -13.0670 C.3       6 GLL5        0.0000 
     34 CA         39.8100   -1.9170  -10.0040 C.3       4 GLP5        0.0000 
     35 CA         36.1000   -1.4025  -15.8690 C.3       2 GLC5        0.0000 
     36 CA         38.1100   -1.4820  -15.1270 C.3       6 GLL5        0.0000 
     37 CA         34.0900   -1.3230  -16.6110 C.3       4 GLP5        0.0000 
     38 CA         40.9685   -3.1380  -16.2290 C.3       2 GLC5        0.0000 
     39 CA         39.2490   -2.3130  -15.7130 C.3       6 GLL5        0.0000 
     40 CA         42.6880   -3.9630  -16.7450 C.3       4 GLP5        0.0000 
     41 CA         39.4635   -1.1745  -17.4100 C.3       2 GLC5        0.0000 
     42 CA         39.6780   -0.0360  -19.1070 C.3       4 GLP5        0.0000 
     43 CA         39.7035   -4.0220  -14.8765 C.3       2 GLC5        0.0000 
     44 CA         40.1580   -5.7310  -14.0400 C.3       4 GLP5        0.0000 
     45 CA         35.5645   -2.7275  -14.4740 C.3       2 GLC5        0.0000 
     46 CA         37.2850   -2.3720  -14.2060 C.3       6 GLL5        0.0000 
     47 CA         33.8440   -3.0830  -14.7420 C.3       4 GLP5        0.0000 
     48 CA         36.7985   -4.1390  -13.4970 C.3       2 GLC5        0.0000 
     49 CA         36.3120   -5.9060  -12.7880 C.3       4 GLP5        0.0000 
     50 CA         38.7215   -4.0515  -14.1230 C.3       2 GLC5        0.0000 
     51 CA         37.5910    3.7400  -14.2945 C.3       2 GLC5        0.0000 
     52 CA         39.3140    4.8360  -15.2270 C.3       6 GLL5        0.0000 
     53 CA         35.8680    2.6440  -13.3620 C.3       4 GLP5        0.0000 
     54 CA         43.5735   -4.7130  -12.3255 C.3       2 GLC5        0.0000 
     55 CA         43.9680   -2.4890  -11.8270 C.3       6 GLL5        0.0000 
     56 CA         42.9360   -6.4460  -13.1630 C.3       4 GLP5        0.0000 
     57 CA         44.3885   -4.0275   -9.8740 C.3       2 GLC5        0.0000 
     58 CA         44.4540   -3.4710  -11.1490 C.3       6 GLL5        0.0000 
     59 CA         44.5660   -5.0750   -8.2600 C.3       4 GLP5        0.0000 
     60 CA         46.0825   -3.5490  -11.7675 C.3       2 GLC5        0.0000 
     61 CA         47.9540   -4.1180  -12.0470 C.3       4 GLP5        0.0000 
     62 CA         45.1418   -0.8767  -12.4283 C.3       2 GLC5        0.0000 
     63 CA         46.2530    0.7610  -12.3310 C.3       4 GLP5        0.0000 
     64 CA         45.1483   -1.9167  -14.9935 C.3       2 GLC5        0.0000 
     65 CA         45.9220   -0.8080  -16.4280 C.3       4 GLP5        0.0000 
     66 CA         43.6552   -4.7358  -13.3610 C.3       2 GLC5        0.0000 
     67 CA         46.1642   -3.5718  -12.8030 C.3       2 GLC5        0.0000 
     68 CA         43.3416   -3.1196  -15.2598 C.3       2 GLC5        0.0000 
     69 CA         44.0930   -2.5400  -13.2240 C.3       6 GLL5        0.0000 
     70 CA         44.6102   -0.9135  -15.0485 C.3       2 GLC5        0.0000 
     71 CA         43.6160   -1.5270  -13.9900 C.3       6 GLL5        0.0000 
     72 CA         44.7758   -0.1290  -13.0000 C.3       2 GLC5        0.0000 
     73 CA         41.4423   -1.4287  -10.7767 C.3       2 GLC5        0.0000 
     74 CA         42.8020   -0.4510  -11.9490 C.3       6 GLL5        0.0000 
     75 CA         44.6638   -0.0897  -11.9403 C.3       2 GLC5        0.0000 
     76 CA         43.3470   -1.4300  -11.1500 C.3       6 GLL5        0.0000 
     77 CA         41.5487    3.0600  -14.8468 C.3       2 GLC5        0.0000 
     78 CA         39.7733    8.6945  -13.7325 C.3       2 GLC5        0.0000 
     79 CA         39.2250   10.3300  -12.9020 C.3       4 GLP5        0.0000 
     80 CA         41.6552    1.9817  -14.7763 C.3       2 GLC5        0.0000 
     81 CA         39.5680    1.6400  -13.7660 C.3       6 GLL5        0.0000 
     82 CA         37.6857    2.4755  -13.5690 C.3       2 GLC5        0.0000 
     83 CA         36.6593   -0.4910  -13.7182 C.3       2 GLC5        0.0000 
     84 CA         35.6210    0.9450  -12.7700 C.3       4 GLP5        0.0000 
     85 CA         37.6735    4.4855  -16.5478 C.3       2 GLC5        0.0000 
     86 CA         36.2190    3.6730  -17.3510 C.3       4 GLP5        0.0000 
     87 CA         39.0657    6.0947  -18.1940 C.3       2 GLC5        0.0000 
     88 CA         38.9420    5.7600  -16.2620 C.3       6 GLL5        0.0000 
     89 CA         38.9790    5.7650  -20.1700 C.3       4 GLP5        0.0000 
     90 CA         40.9566    5.4514  -16.5247 C.3       2 GLC5        0.0000 
     91 CA         42.3760    4.5550  -17.5060 C.3       4 GLP5        0.0000 
@<TRIPOS>BOND
@<TRIPOS>SUBSTRUCTURE
     1 SEC2        7 GROUP        1 X    SEC  0     ROOT SEC X 2
     2 GLC5        1 GROUP        1 X    GLC  0     **** GLC X 6
     3 SEP2        9 GROUP        1 Y    SEP  0     ROOT SEP Y 9
     4 GLP5        3 GROUP        1 Y    GLP  0     **** GLP Y 13
     5 SEL2        8 GROUP        1 Z    SEL  0     ROOT SEL Z 16
     6 GLL5        2 GROUP        1 Z    GLL  0     **** GLL Z 20
@<TRIPOS>SET

