#    Name: 3fli_33Y_1_ligand
#    Modification time : Tue Mar 25 05:43:21 2014

@<TRIPOS>MOLECULE
3fli_33Y_1_ligand
   56    59     1     0     0
SMALL
NO_CHARGES


@<TRIPOS>ATOM
      1 F32        44.4540   -3.4710  -11.1490 F         1 33Y1        0.0000 
      2 C24        43.9680   -2.4890  -11.8270 C.ar      1 33Y1        0.0000 
      3 C23        44.0930   -2.5400  -13.2240 C.ar      1 33Y1        0.0000 
      4 F26        44.6560   -3.5110  -13.8940 F         1 33Y1        0.0000 
      5 C22        43.6160   -1.5270  -13.9900 C.ar      1 33Y1        0.0000 
      6 C21        42.9810   -0.5110  -13.3480 C.ar      1 33Y1        0.0000 
      7 C25        43.3470   -1.4300  -11.1500 C.ar      1 33Y1        0.0000 
      8 C20        42.8020   -0.4510  -11.9490 C.ar      1 33Y1        0.0000 
      9 C18        42.2770    0.7670  -11.3360 C.2       1 33Y1        0.0000 
     10 O19        42.8700    1.1850  -10.3690 O.2       1 33Y1        0.0000 
     11 N12        41.3210    1.4910  -11.9840 N.am      1 33Y1        0.0000 
     12 C13        41.0470    2.7880  -11.3690 C.3       1 33Y1        0.0000 
     13 C14        41.0820    4.1320  -12.0450 C.3       1 33Y1        0.0000 
     14 C27        40.4430    5.2150  -11.1270 C.3       1 33Y1        0.0000 
     15 C28        42.6090    4.3730  -12.1280 C.3       1 33Y1        0.0000 
     16 C9         40.2920    4.0460  -13.3290 C.2       1 33Y1        0.0000 
     17 C5         40.0980    5.2130  -14.1420 C.ar      1 33Y1        0.0000 
     18 C6         40.5050    6.6000  -14.0730 C.ar      1 33Y1        0.0000 
     19 C1         40.1380    7.5180  -15.0530 C.ar      1 33Y1        0.0000 
     20 C11        40.5890    1.0670  -13.0670 C.2       1 33Y1        0.0000 
     21 C10        39.5680    1.6400  -13.7660 C.2       1 33Y1        0.0000 
     22 C15        38.9240    0.8640  -14.8740 C.2       1 33Y1        0.0000 
     23 O17        38.5910   -0.3750  -14.3330 O.3       1 33Y1        0.0000 
     24 C29        38.1100   -1.4820  -15.1270 C.3       1 33Y1        0.0000 
     25 C31        39.2490   -2.3130  -15.7130 C.3       1 33Y1        0.0000 
     26 C30        37.2850   -2.3720  -14.2060 C.3       1 33Y1        0.0000 
     27 O16        38.3830    1.1880  -15.9310 O.2       1 33Y1        0.0000 
     28 C8         39.4390    2.9740  -13.7860 C.2       1 33Y1        0.0000 
     29 N7         39.0850    3.5020  -15.0650 N.pl3     1 33Y1        0.0000 
     30 C4         39.3140    4.8360  -15.2270 C.ar      1 33Y1        0.0000 
     31 C3         38.9420    5.7600  -16.2620 C.ar      1 33Y1        0.0000 
     32 C2         39.3630    7.0890  -16.1740 C.ar      1 33Y1        0.0000 
     33 H          43.7283   -1.5266  -15.0033 H         1 33Y1        0.0000 
     34 H          42.5894    0.2941  -13.9125 H         1 33Y1        0.0000 
     35 H          43.3093   -1.3997  -10.1526 H         1 33Y1        0.0000 
     36 H          41.7218    2.8830  -10.4144 H         1 33Y1        0.0000 
     37 H          40.0073    2.7182  -10.8307 H         1 33Y1        0.0000 
     38 H          41.0803    6.8921  -13.2694 H         1 33Y1        0.0000 
     39 H          40.4137    8.4983  -14.9859 H         1 33Y1        0.0000 
     40 H          40.8923    0.0546  -13.4463 H         1 33Y1        0.0000 
     41 H          37.4733   -1.1489  -15.9205 H         1 33Y1        0.0000 
     42 H          38.7007    2.9116  -15.7663 H         1 33Y1        0.0000 
     43 H          38.3796    5.4337  -17.0406 H         1 33Y1        0.0000 
     44 H          39.1248    7.7632  -16.9018 H         1 33Y1        0.0000 
     45 H          40.9267    5.2955  -10.2555 H         1 33Y1        0.0000 
     46 H          40.4565    6.1190  -11.5543 H         1 33Y1        0.0000 
     47 H          39.4886    5.0055  -10.9143 H         1 33Y1        0.0000 
     48 H          43.0117    4.5187  -11.2243 H         1 33Y1        0.0000 
     49 H          43.0857    3.5963  -12.5396 H         1 33Y1        0.0000 
     50 H          42.8286    5.1775  -12.6799 H         1 33Y1        0.0000 
     51 H          39.8386   -1.7673  -16.3084 H         1 33Y1        0.0000 
     52 H          39.8318   -2.7003  -14.9986 H         1 33Y1        0.0000 
     53 H          38.9077   -3.0777  -16.2595 H         1 33Y1        0.0000 
     54 H          37.8274   -2.7186  -13.4407 H         1 33Y1        0.0000 
     55 H          36.5064   -1.8813  -13.8149 H         1 33Y1        0.0000 
     56 H          36.9178   -3.1670  -14.6888 H         1 33Y1        0.0000 
@<TRIPOS>BOND
     1    2    1 1    
     2    3    2 ar   
     3    7    2 ar   
     4    4    3 1    
     5    5    3 ar   
     6    6    5 ar   
     7   33    5 1    
     8    8    6 ar   
     9   34    6 1    
    10    8    7 ar   
    11   35    7 1    
    12    9    8 1    
    13   10    9 2    
    14   11    9 am   
    15   12   11 1    
    16   20   11 1    
    17   13   12 1    
    18   36   12 1    
    19   37   12 1    
    20   14   13 1    
    21   15   13 1    
    22   16   13 1    
    23   45   14 1    
    24   46   14 1    
    25   47   14 1    
    26   48   15 1    
    27   49   15 1    
    28   50   15 1    
    29   17   16 1    
    30   28   16 2    
    31   18   17 ar   
    32   30   17 ar   
    33   19   18 ar   
    34   38   18 1    
    35   32   19 ar   
    36   39   19 1    
    37   21   20 2    
    38   40   20 1    
    39   22   21 1    
    40   28   21 1    
    41   23   22 1    
    42   27   22 2    
    43   24   23 1    
    44   25   24 1    
    45   26   24 1    
    46   41   24 1    
    47   51   25 1    
    48   52   25 1    
    49   53   25 1    
    50   54   26 1    
    51   55   26 1    
    52   56   26 1    
    53   29   28 1    
    54   30   29 1    
    55   42   29 1    
    56   31   30 ar   
    57   32   31 ar   
    58   43   31 1    
    59   44   32 1    
@<TRIPOS>SUBSTRUCTURE
     1 33Y1        1 GROUP   
@<TRIPOS>SET

