#    Name: 3w5t_LHP_1_INTS_M
#    Modification time : Tue Mar 25 02:20:13 2014

@<TRIPOS>MOLECULE
3w5t_LHP_1_INTS_M
   99     0     6     0     0
SMALL
NO_CHARGES


@<TRIPOS>ATOM
      1 CA         66.4100   16.4225   -6.6415 C.3       2 GLC5        0.0000 
      2 CA         65.3250   14.7040   -7.3940 C.3       6 GLL5        0.0000 
      3 CA         67.4950   18.1410   -5.8890 C.3       4 GLP5        0.0000 
      4 CA         62.4145   11.9620   -4.8465 C.3       2 GLC5        0.0000 
      5 CA         63.6070   12.9260   -6.3410 C.3       6 GLL5        0.0000 
      6 CA         61.2220   10.9980   -3.3520 C.3       4 GLP5        0.0000 
      7 CA         58.8460   13.6520   -4.6810 C.3       2 GLC5        0.0000 
      8 CA         60.7810   14.0730   -5.5290 C.3       6 GLL5        0.0000 
      9 CA         56.9110   13.2310   -3.8330 C.3       4 GLP5        0.0000 
     10 CA         59.2945   15.9410   -6.8745 C.3       2 GLC5        0.0000 
     11 CA         61.0330   15.6600   -5.8150 C.3       6 GLL5        0.0000 
     12 CA         57.5560   16.2220   -7.9340 C.3       4 GLP5        0.0000 
     13 CA         60.6570   16.6520   -1.7105 C.3       2 GLC5        0.0000 
     14 CA         60.8830   18.4080   -3.0940 C.3       6 GLL5        0.0000 
     15 CA         60.4310   14.8960   -0.3270 C.3       4 GLP5        0.0000 
     16 CA         58.6385   19.4275   -6.5940 C.3       2 GLC5        0.0000 
     17 CA         60.0150   18.8290   -5.6730 C.3       6 GLL5        0.0000 
     18 CA         57.2620   20.0260   -7.5150 C.3       4 GLP5        0.0000 
     19 CA         61.0405   19.7490   -7.1465 C.3       2 GLC5        0.0000 
     20 CA         62.0660   20.6690   -8.6200 C.3       4 GLP5        0.0000 
     21 CA         58.7855   17.5255   -6.8035 C.3       2 GLC5        0.0000 
     22 CA         62.0065   17.6075   -9.3400 C.3       2 GLC5        0.0000 
     23 CA         61.8030   15.5480   -8.9270 C.3       6 GLL5        0.0000 
     24 CA         62.2100   19.6670   -9.7530 C.3       4 GLP5        0.0000 
     25 CA         61.0425   13.6000   -9.6635 C.3       2 GLC5        0.0000 
     26 CA         60.2820   11.6520  -10.4000 C.3       4 GLP5        0.0000 
     27 CA         61.0155   15.8025  -10.3415 C.3       2 GLC5        0.0000 
     28 CA         60.2280   16.0570  -11.7560 C.3       4 GLP5        0.0000 
     29 CA         59.6795   15.8850   -8.4305 C.3       2 GLC5        0.0000 
     30 CA         59.1490   21.2885   -3.4955 C.3       2 GLC5        0.0000 
     31 CA         60.4350   19.9390   -2.7100 C.3       6 GLL5        0.0000 
     32 CA         57.8630   22.6380   -4.2810 C.3       4 GLP5        0.0000 
     33 CA         63.4005   20.9395   -2.4815 C.3       2 GLC5        0.0000 
     34 CA         61.6180   20.9820   -3.1090 C.3       6 GLL5        0.0000 
     35 CA         65.1830   20.8970   -1.8540 C.3       4 GLP5        0.0000 
     36 CA         60.1550   22.4215   -3.5545 C.3       2 GLC5        0.0000 
     37 CA         58.6920   23.8610   -4.0000 C.3       4 GLP5        0.0000 
     38 CA         62.3075   22.7210   -3.6840 C.3       2 GLC5        0.0000 
     39 CA         62.9970   24.4600   -4.2590 C.3       4 GLP5        0.0000 
     40 CA         58.4615   22.9760   -0.1335 C.3       2 GLC5        0.0000 
     41 CA         59.7430   21.2150   -0.5330 C.3       6 GLL5        0.0000 
     42 CA         57.1800   24.7370    0.2660 C.3       4 GLP5        0.0000 
     43 CA         60.4635   23.0415   -0.4115 C.3       2 GLC5        0.0000 
     44 CA         61.1840   24.8680   -0.2900 C.3       4 GLP5        0.0000 
     45 CA         66.6925   12.1420   -3.1020 C.3       2 GLC5        0.0000 
     46 CA         67.8030   11.6340   -4.7800 C.3       6 GLL5        0.0000 
     47 CA         65.5820   12.6500   -1.4240 C.3       4 GLP5        0.0000 
     48 CA         66.4645   10.4100   -3.7685 C.3       2 GLC5        0.0000 
     49 CA         65.1260    9.1860   -2.7570 C.3       4 GLP5        0.0000 
     50 CA         67.5220   13.0945   -2.7575 C.3       2 GLC5        0.0000 
     51 CA         68.9550   12.1030   -3.8090 C.3       6 GLL5        0.0000 
     52 CA         66.0890   14.0860   -1.7060 C.3       4 GLP5        0.0000 
     53 N          58.0380   22.2735    2.3510 N.am      1 SEC2        0.0000 
     54 N          58.5220   21.6690    1.3440 N.am      5 SEL2        0.0000 
     55 N          57.5540   22.8780    3.3580 N.am      3 SEP2        0.0000 
     56 N          58.0320   22.7180    0.3180 N.am      1 SEC2        0.0000 
     57 N          57.5420   23.7670   -0.7080 N.am      3 SEP2        0.0000 
     58 N          64.8915   10.0900   -6.3385 N.am      1 SEC2        0.0000 
     59 N          66.4540   10.5820   -6.0900 N.am      5 SEL2        0.0000 
     60 N          63.3290    9.5980   -6.5870 N.am      3 SEP2        0.0000 
     61 CA         66.2912   15.6705   -9.0693 C.3       2 GLC5        0.0000 
     62 CA         67.8010   16.3840  -10.2280 C.3       4 GLP5        0.0000 
     63 CA         65.0257   13.6430   -9.1678 C.3       2 GLC5        0.0000 
     64 CA         65.2700   12.3290  -10.4250 C.3       4 GLP5        0.0000 
     65 CA         64.8140   13.8912   -4.7345 C.3       2 GLC5        0.0000 
     66 CA         65.0850   13.1670   -6.9550 C.3       6 GLL5        0.0000 
     67 CA         65.2820   14.7360   -2.8210 C.3       4 GLP5        0.0000 
     68 CA         64.8080   12.6878   -8.5365 C.3       2 GLC5        0.0000 
     69 CA         63.2450   11.4243   -6.9490 C.3       2 GLC5        0.0000 
     70 CA         62.1440    9.8020   -7.2500 C.3       4 GLP5        0.0000 
     71 CA         63.9502   13.2668   -9.0358 C.3       2 GLC5        0.0000 
     72 CA         62.4920   13.3930   -7.4610 C.3       6 GLL5        0.0000 
     73 CA         61.0063   12.4708   -8.7815 C.3       2 GLC5        0.0000 
     74 CA         61.9372   11.5457   -7.2065 C.3       2 GLC5        0.0000 
     75 CA         60.9690   13.1860   -6.8650 C.3       6 GLL5        0.0000 
     76 CA         61.0485   12.3137   -4.7745 C.3       2 GLC5        0.0000 
     77 CA         64.3107   18.9917   -5.8392 C.3       2 GLC5        0.0000 
     78 CA         62.7840   17.4480   -6.6420 C.3       6 GLL5        0.0000 
     79 CA         65.9350   20.0910   -5.6780 C.3       4 GLP5        0.0000 
     80 CA         62.3762   19.2808   -7.3102 C.3       2 GLC5        0.0000 
     81 CA         62.5890   18.3370   -5.3590 C.3       6 GLL5        0.0000 
     82 CA         60.0155   15.8853   -1.7905 C.3       2 GLC5        0.0000 
     83 CA         59.4330   16.4270   -3.8220 C.3       6 GLL5        0.0000 
     84 CA         57.9005   15.8648   -2.6285 C.3       2 GLC5        0.0000 
     85 CA         59.7670   17.3220   -2.6860 C.3       6 GLL5        0.0000 
     86 CA         56.2010   14.8550   -2.0030 C.3       4 GLP5        0.0000 
     87 CA         58.2915   17.9217   -2.2170 C.3       2 GLC5        0.0000 
     88 CA         56.9830   18.9690   -1.1800 C.3       4 GLP5        0.0000 
     89 CA         58.8210   19.0712   -2.0410 C.3       2 GLC5        0.0000 
     90 CA         58.4778   19.7735   -1.0288 C.3       2 GLC5        0.0000 
     91 CA         60.2020   19.9410   -1.2220 C.3       6 GLL5        0.0000 
     92 CA         58.4822   21.3035   -2.1522 C.3       2 GLC5        0.0000 
     93 CA         56.9920   22.0290   -3.4270 C.3       4 GLP5        0.0000 
     94 CA         69.2380   13.5297   -3.9067 C.3       2 GLC5        0.0000 
     95 CA         70.0970   15.1910   -3.5190 C.3       4 GLP5        0.0000 
     96 CA         69.9595   11.4383   -5.1183 C.3       2 GLC5        0.0000 
     97 CA         71.5400   11.0080   -5.9420 C.3       4 GLP5        0.0000 
     98 CA         68.9230   10.4458   -3.4213 C.3       2 GLC5        0.0000 
     99 CA         69.4670    9.0230   -2.5480 C.3       4 GLP5        0.0000 
@<TRIPOS>BOND
@<TRIPOS>SUBSTRUCTURE
     1 SEC2       53 GROUP        1 X    SEC  0     ROOT SEC X 2
     2 GLC5        1 GROUP        1 X    GLC  0     **** GLC X 6
     3 SEP2       55 GROUP        1 Y    SEP  0     ROOT SEP Y 9
     4 GLP5        3 GROUP        1 Y    GLP  0     **** GLP Y 13
     5 SEL2       54 GROUP        1 Z    SEL  0     ROOT SEL Z 16
     6 GLL5        2 GROUP        1 Z    GLL  0     **** GLL Z 20
@<TRIPOS>SET

