#    Name: 3w5t_LHP_1_ligand
#    Modification time : Tue Mar 25 02:20:13 2014

@<TRIPOS>MOLECULE
3w5t_LHP_1_ligand
   74    77     1     0     0
SMALL
NO_CHARGES


@<TRIPOS>ATOM
      1 O3         66.0260   12.8810   -5.9940 O.3       1 LHP500      0.0000 
      2 C1         64.2380   15.2100   -8.4270 C.3       1 LHP500      0.0000 
      3 C2         65.3250   14.7040   -7.3940 C.3       1 LHP500      0.0000 
      4 C3         65.0850   13.1670   -6.9550 C.3       1 LHP500      0.0000 
      5 C4         63.6070   12.9260   -6.3410 C.3       1 LHP500      0.0000 
      6 C5         62.4920   13.3930   -7.4610 C.3       1 LHP500      0.0000 
      7 C6         60.9690   13.1860   -6.8650 C.3       1 LHP500      0.0000 
      8 C7         60.7810   14.0730   -5.5290 C.3       1 LHP500      0.0000 
      9 C8         61.0330   15.6600   -5.8150 C.3       1 LHP500      0.0000 
     10 C9         62.5460   15.8960   -6.3790 C.3       1 LHP500      0.0000 
     11 C10        62.7690   15.0160   -7.8320 C.3       1 LHP500      0.0000 
     12 C11        62.7840   17.4480   -6.6420 C.3       1 LHP500      0.0000 
     13 C12        62.5890   18.3370   -5.3590 C.3       1 LHP500      0.0000 
     14 C13        61.1370   18.1000   -4.6580 C.3       1 LHP500      0.0000 
     15 C14        60.8810   16.4930   -4.5150 C.3       1 LHP500      0.0000 
     16 C15        59.4330   16.4270   -3.8220 C.3       1 LHP500      0.0000 
     17 C16        59.7670   17.3220   -2.6860 C.3       1 LHP500      0.0000 
     18 C17        60.8830   18.4080   -3.0940 C.3       1 LHP500      0.0000 
     19 C18        60.0150   18.8290   -5.6730 C.3       1 LHP500      0.0000 
     20 C19        61.8030   15.5480   -8.9270 C.3       1 LHP500      0.0000 
     21 C20        60.4350   19.9390   -2.7100 C.3       1 LHP500      0.0000 
     22 C21        61.6180   20.9820   -3.1090 C.3       1 LHP500      0.0000 
     23 C22        60.2020   19.9410   -1.2220 C.3       1 LHP500      0.0000 
     24 C23        59.7430   21.2150   -0.5330 C.3       1 LHP500      0.0000 
     25 C24        59.4990   21.0500    0.9060 C.2       1 LHP500      0.0000 
     26 C26        66.5960   11.7520   -5.7490 C.2       1 LHP500      0.0000 
     27 C27        67.8030   11.6340   -4.7800 C.3       1 LHP500      0.0000 
     28 C28        68.9550   12.1030   -3.8090 C.3       1 LHP500      0.0000 
     29 OT1        58.5220   21.6690    1.3440 O.co2     1 LHP500      0.0000 
     30 OT2        60.2270   20.3120    1.6060 O.co2     1 LHP500      0.0000 
     31 O25        66.4540   10.5820   -6.0900 O.2       1 LHP500      0.0000 
     32 H          64.3184   14.6355   -9.3306 H         1 LHP500      0.0000 
     33 H          64.3938   16.2554   -8.6164 H         1 LHP500      0.0000 
     34 H          65.2810   15.3139   -6.5042 H         1 LHP500      0.0000 
     35 H          66.3033   14.7710   -7.8458 H         1 LHP500      0.0000 
     36 H          65.1701   12.5743   -7.8339 H         1 LHP500      0.0000 
     37 H          63.4840   13.5340   -5.4860 H         1 LHP500      0.0000 
     38 H          63.4722   11.8944   -6.1580 H         1 LHP500      0.0000 
     39 H          62.6172   12.8365   -8.3235 H         1 LHP500      0.0000 
     40 H          60.8525   12.1592   -6.6208 H         1 LHP500      0.0000 
     41 H          60.2830   13.5191   -7.6038 H         1 LHP500      0.0000 
     42 H          61.4948   13.7496   -4.7970 H         1 LHP500      0.0000 
     43 H          59.7757   13.9544   -5.1749 H         1 LHP500      0.0000 
     44 H          60.3588   15.9866   -6.5489 H         1 LHP500      0.0000 
     45 H          63.2358   15.5270   -5.6894 H         1 LHP500      0.0000 
     46 H          62.0834   17.7745   -7.4081 H         1 LHP500      0.0000 
     47 H          63.7993   17.5785   -7.0116 H         1 LHP500      0.0000 
     48 H          62.6520   19.3806   -5.6272 H         1 LHP500      0.0000 
     49 H          63.3446   18.0912   -4.6284 H         1 LHP500      0.0000 
     50 H          61.5847   16.1633   -3.7504 H         1 LHP500      0.0000 
     51 H          59.2813   15.4542   -3.5223 H         1 LHP500      0.0000 
     52 H          58.7620   16.8559   -4.4739 H         1 LHP500      0.0000 
     53 H          60.1718   16.7634   -1.8430 H         1 LHP500      0.0000 
     54 H          58.8961   17.8837   -2.3505 H         1 LHP500      0.0000 
     55 H          61.7721   18.1471   -2.5626 H         1 LHP500      0.0000 
     56 H          59.5746   20.1631   -3.2470 H         1 LHP500      0.0000 
     57 H          61.1486   19.5892   -0.7104 H         1 LHP500      0.0000 
     58 H          59.4594   19.1233   -0.9743 H         1 LHP500      0.0000 
     59 H          58.8230   21.5699   -1.0389 H         1 LHP500      0.0000 
     60 H          60.5100   21.9966   -0.7039 H         1 LHP500      0.0000 
     61 H          68.4941   10.6833   -5.4380 H         1 LHP500      0.0000 
     62 H          67.3804   10.5742   -4.0640 H         1 LHP500      0.0000 
     63 H          60.1905   19.8078   -5.7785 H         1 LHP500      0.0000 
     64 H          60.0278   18.4285   -6.5892 H         1 LHP500      0.0000 
     65 H          59.0824   18.7343   -5.3247 H         1 LHP500      0.0000 
     66 H          61.9707   16.5119   -9.1338 H         1 LHP500      0.0000 
     67 H          61.8997   15.0431   -9.7847 H         1 LHP500      0.0000 
     68 H          60.8460   15.4704   -8.6475 H         1 LHP500      0.0000 
     69 H          62.4698   20.7800   -2.6257 H         1 LHP500      0.0000 
     70 H          61.8227   20.9548   -4.0875 H         1 LHP500      0.0000 
     71 H          61.3717   21.9255   -2.8872 H         1 LHP500      0.0000 
     72 H          69.4732   11.3285   -3.4462 H         1 LHP500      0.0000 
     73 H          69.6087   12.7026   -4.2707 H         1 LHP500      0.0000 
     74 H          68.5965   12.6090   -3.0245 H         1 LHP500      0.0000 
@<TRIPOS>BOND
     1    4    1 1    
     2   26    1 1    
     3    3    2 1    
     4   11    2 1    
     5   32    2 1    
     6   33    2 1    
     7    4    3 1    
     8   34    3 1    
     9   35    3 1    
    10    5    4 1    
    11   36    4 1    
    12    6    5 1    
    13   37    5 1    
    14   38    5 1    
    15    7    6 1    
    16   11    6 1    
    17   39    6 1    
    18    8    7 1    
    19   40    7 1    
    20   41    7 1    
    21    9    8 1    
    22   42    8 1    
    23   43    8 1    
    24   10    9 1    
    25   15    9 1    
    26   44    9 1    
    27   11   10 1    
    28   12   10 1    
    29   45   10 1    
    30   20   11 1    
    31   13   12 1    
    32   46   12 1    
    33   47   12 1    
    34   14   13 1    
    35   48   13 1    
    36   49   13 1    
    37   15   14 1    
    38   18   14 1    
    39   19   14 1    
    40   16   15 1    
    41   50   15 1    
    42   17   16 1    
    43   51   16 1    
    44   52   16 1    
    45   18   17 1    
    46   53   17 1    
    47   54   17 1    
    48   21   18 1    
    49   55   18 1    
    50   63   19 1    
    51   64   19 1    
    52   65   19 1    
    53   66   20 1    
    54   67   20 1    
    55   68   20 1    
    56   22   21 1    
    57   23   21 1    
    58   56   21 1    
    59   69   22 1    
    60   70   22 1    
    61   71   22 1    
    62   24   23 1    
    63   57   23 1    
    64   58   23 1    
    65   25   24 1    
    66   59   24 1    
    67   60   24 1    
    68   29   25 ar   
    69   30   25 ar   
    70   27   26 1    
    71   31   26 2    
    72   28   27 1    
    73   61   27 1    
    74   62   27 1    
    75   72   28 1    
    76   73   28 1    
    77   74   28 1    
@<TRIPOS>SUBSTRUCTURE
     1 LHP500      1 GROUP   
@<TRIPOS>SET

