#    Name: 2xjj_L81_2_INTS_M
#    Modification time : Tue Mar 25 06:07:22 2014

@<TRIPOS>MOLECULE
2xjj_L81_2_INTS_M
   68     0     9     0     0
SMALL
NO_CHARGES


@<TRIPOS>ATOM
      1 CA         21.3140   21.3685  -23.9720 C.3       3 GLC5        0.0000 
      2 CA         21.4090   19.7390  -25.4330 C.3       9 GLL5        0.0000 
      3 CA         21.2190   22.9980  -22.5110 C.3       6 GLP5        0.0000 
      4 CA         23.1605   20.5660  -25.4095 C.3       3 GLC5        0.0000 
      5 CA         24.9120   21.3930  -25.3860 C.3       6 GLP5        0.0000 
      6 CA         22.3015   18.9610  -26.9585 C.3       3 GLC5        0.0000 
      7 CA         23.1940   18.1830  -28.4840 C.3       6 GLP5        0.0000 
      8 CA         21.4310   21.6870  -25.9180 C.3       3 GLC5        0.0000 
      9 CA         21.4530   23.6350  -26.4030 C.3       6 GLP5        0.0000 
     10 CA         20.0140   20.2125  -26.9850 C.3       3 GLC5        0.0000 
     11 CA         18.6190   20.6860  -28.5370 C.3       6 GLP5        0.0000 
     12 CA         23.3480   18.3800  -24.3070 C.3       3 GLC5        0.0000 
     13 CA         21.5560   17.6740  -24.0450 C.3       9 GLL5        0.0000 
     14 CA         25.1400   19.0860  -24.5690 C.3       6 GLP5        0.0000 
     15 CA         19.6715   16.8625  -27.6170 C.3       3 GLC5        0.0000 
     16 CA         19.8950   17.7700  -25.9630 C.3       9 GLL5        0.0000 
     17 CA         19.4480   15.9550  -29.2710 C.3       6 GLP5        0.0000 
     18 CA         19.2570   19.2280  -27.2500 C.3       3 GLC5        0.0000 
     19 N          17.8070   22.9565  -21.8040 N.am      2 SEC2        0.0000 
     20 N          18.0180   22.0870  -20.8140 N.am      8 SEL2        0.0000 
     21 N          17.5960   23.8260  -22.7940 N.am      5 SEP2        0.0000 
     22 N          16.5040   22.4535  -20.8495 N.am      2 SEC2        0.0000 
     23 N          14.9900   22.8200  -20.8850 N.am      5 SEP2        0.0000 
     24 CA         19.9240   21.9425  -19.0795 C.3       3 GLC5        0.0000 
     25 CA         18.6230   20.6600  -18.4610 C.3       9 GLL5        0.0000 
     26 CA         21.2250   23.2250  -19.6980 C.3       6 GLP5        0.0000 
     27 CA         17.0345   21.7335  -23.5060 C.3       3 GLC5        0.0000 
     28 CA         17.0730   20.0590  -22.9920 C.3       9 GLL5        0.0000 
     29 CA         16.9960   23.4080  -24.0200 C.3       6 GLP5        0.0000 
     30 N          15.4495   21.6805  -21.6785 N.am      2 SEC2        0.0000 
     31 N          15.9090   20.5410  -22.4720 N.am      8 SEL2        0.0000 
     32 O          14.9510   20.6925  -23.3485 O.2       1 ALC1        0.0000 
     33 O          15.9090   20.5410  -22.4720 O.2       7 ALL1        0.0000 
     34 O          13.9930   20.8440  -24.2250 O.2       4 ALP1        0.0000 
     35 CA         18.4485   19.8285  -26.6510 C.3       3 GLC5        0.0000 
     36 CA         18.2780   18.9710  -24.7650 C.3       9 GLL5        0.0000 
     37 CA         19.2069   16.7759  -24.3985 C.3       3 GLC5        0.0000 
     38 CA         20.6290   18.5650  -24.8570 C.3       9 GLL5        0.0000 
     39 CA         17.9200   15.6070  -23.5900 C.3       6 GLP5        0.0000 
     40 CA         21.6944   17.4794  -26.4895 C.3       3 GLC5        0.0000 
     41 CA         22.8950   17.0140  -27.7720 C.3       6 GLP5        0.0000 
     42 CA         18.6985   17.5105  -23.5055 C.3       3 GLC5        0.0000 
     43 CA         19.4750   19.0990  -24.0410 C.3       9 GLL5        0.0000 
     44 CA         20.0498   21.4870  -22.5217 C.3       3 GLC5        0.0000 
     45 CA         19.4790   19.7290  -22.8010 C.3       9 GLL5        0.0000 
     46 CA         16.3762   19.9495  -21.0485 C.3       3 GLC5        0.0000 
     47 CA         18.2820   20.2230  -22.2640 C.3       9 GLL5        0.0000 
     48 CA         15.0750   19.7580  -19.4690 C.3       6 GLP5        0.0000 
     49 CA         18.5143   21.3573  -23.9292 C.3       3 GLC5        0.0000 
     50 CA         18.1490   22.8960  -25.0160 C.3       6 GLP5        0.0000 
     51 CA         16.2855   18.8113  -17.1370 C.3       3 GLC5        0.0000 
     52 CA         18.1330   19.3370  -16.2520 C.3       9 GLL5        0.0000 
     53 CA         14.5360   18.9070  -18.3110 C.3       6 GLP5        0.0000 
     54 CA         17.3865   18.9502  -14.2000 C.3       3 GLC5        0.0000 
     55 CA         16.7380   19.1850  -12.4370 C.3       6 GLP5        0.0000 
     56 CA         17.1653   20.9489  -16.6134 C.3       3 GLC5        0.0000 
     57 CA         16.0110   22.2050  -16.0810 C.3       6 GLP5        0.0000 
     58 CA         16.8810   15.7455  -17.7458 C.3       3 GLC5        0.0000 
     59 CA         17.9640   16.9540  -16.4620 C.3       9 GLL5        0.0000 
     60 CA         15.6670   14.4900  -18.3490 C.3       6 GLP5        0.0000 
     61 CA         16.3155   17.9540  -17.7267 C.3       3 GLC5        0.0000 
     62 CA         18.2260   17.0480  -17.8230 C.3       9 GLL5        0.0000 
     63 CA         15.4365   18.6675  -23.4318 C.3       3 GLC5        0.0000 
     64 CA         13.7970   17.5820  -23.2400 C.3       6 GLP5        0.0000 
     65 CA         17.7993   17.4080  -24.0500 C.3       3 GLC5        0.0000 
     66 CA         17.0790   19.4470  -24.2550 C.3       9 GLL5        0.0000 
     67 CA         17.9138   21.0525  -24.7630 C.3       3 GLC5        0.0000 
     68 CA         16.8044   19.5072  -19.0266 C.3       3 GLC5        0.0000 
@<TRIPOS>BOND
@<TRIPOS>SUBSTRUCTURE
     1 ALC1       32 GROUP        1 X    ALC  0     ROOT ALC X 1
     2 SEC2       19 GROUP        1 X    SEC  0     **** SEC X 2
     3 GLC5        1 GROUP        1 X    GLC  0     **** GLC X 6
     4 ALP1       34 GROUP        1 Y    ALP  0     ROOT ALP Y 8
     5 SEP2       21 GROUP        1 Y    SEP  0     **** SEP Y 9
     6 GLP5        3 GROUP        1 Y    GLP  0     **** GLP Y 13
     7 ALL1       33 GROUP        1 Z    ALL  0     ROOT ALL Z 15
     8 SEL2       20 GROUP        1 Z    SEL  0     **** SEL Z 16
     9 GLL5        2 GROUP        1 Z    GLL  0     **** GLL Z 20
@<TRIPOS>SET

