#    Name: 2xjj_L81_2_ligand
#    Modification time : Tue Mar 25 06:07:22 2014

@<TRIPOS>MOLECULE
2xjj_L81_2_ligand
   43    46     1     0     0
SMALL
NO_CHARGES


@<TRIPOS>ATOM
      1 C1         21.4090   19.7390  -25.4330 C.3       1 L811225     0.0000 
      2 C19        21.5560   17.6740  -24.0450 C.3       1 L811225     0.0000 
      3 C2         20.6290   18.5650  -24.8570 C.3       1 L811225     0.0000 
      4 C3         19.8950   17.7700  -25.9630 C.3       1 L811225     0.0000 
      5 C4         19.4750   19.0990  -24.0410 C.ar      1 L811225     0.0000 
      6 C5         19.4790   19.7290  -22.8010 C.ar      1 L811225     0.0000 
      7 C6         18.2820   20.2230  -22.2640 C.ar      1 L811225     0.0000 
      8 C7         18.3030   20.8820  -20.9170 C.2       1 L811225     0.0000 
      9 O8         18.0180   22.0870  -20.8140 O.2       1 L811225     0.0000 
     10 N9         18.5660   20.1170  -19.8250 N.am      1 L811225     0.0000 
     11 C10        18.6230   20.6600  -18.4610 C.3       1 L811225     0.0000 
     12 C11        18.3890   19.4370  -17.6180 C.ar      1 L811225     0.0000 
     13 C12        18.1330   19.3370  -16.2520 C.ar      1 L811225     0.0000 
     14 C13        17.9370   18.0940  -15.6740 C.ar      1 L811225     0.0000 
     15 C14        17.9640   16.9540  -16.4620 C.ar      1 L811225     0.0000 
     16 C15        18.2260   17.0480  -17.8230 C.ar      1 L811225     0.0000 
     17 C16        18.4250   18.2850  -18.4090 C.ar      1 L811225     0.0000 
     18 C17        18.6980   18.6440  -19.8490 C.3       1 L811225     0.0000 
     19 C18        17.0730   20.0590  -22.9920 C.ar      1 L811225     0.0000 
     20 O19        15.9090   20.5410  -22.4720 O.3       1 L811225     0.0000 
     21 C20        17.0790   19.4470  -24.2550 C.ar      1 L811225     0.0000 
     22 C21        18.2780   18.9710  -24.7650 C.ar      1 L811225     0.0000 
     23 N5         18.5430   18.3070  -25.9540 N.pl3     1 L811225     0.0000 
     24 H          19.9152   16.7346  -25.6980 H         1 L811225     0.0000 
     25 H          20.3919   17.9547  -26.8913 H         1 L811225     0.0000 
     26 H          20.3540   19.8345  -22.2763 H         1 L811225     0.0000 
     27 H          17.8405   21.3624  -18.2964 H         1 L811225     0.0000 
     28 H          19.5860   21.0609  -18.2493 H         1 L811225     0.0000 
     29 H          18.0904   20.1884  -15.6764 H         1 L811225     0.0000 
     30 H          17.7715   18.0161  -14.6612 H         1 L811225     0.0000 
     31 H          17.7888   16.0305  -16.0370 H         1 L811225     0.0000 
     32 H          18.2717   16.1918  -18.3956 H         1 L811225     0.0000 
     33 H          19.6860   18.3569  -20.1072 H         1 L811225     0.0000 
     34 H          17.9583   18.2080  -20.4718 H         1 L811225     0.0000 
     35 H          16.2119   19.3573  -24.7835 H         1 L811225     0.0000 
     36 H          17.9427   18.1971  -26.6901 H         1 L811225     0.0000 
     37 H          21.8273   20.2951  -24.7148 H         1 L811225     0.0000 
     38 H          22.1470   19.4348  -26.0354 H         1 L811225     0.0000 
     39 H          20.8235   20.3461  -25.9703 H         1 L811225     0.0000 
     40 H          22.3000   17.3060  -24.6027 H         1 L811225     0.0000 
     41 H          21.9767   18.1701  -23.2855 H         1 L811225     0.0000 
     42 H          21.0704   16.8931  -23.6520 H         1 L811225     0.0000 
     43 H          15.2769   20.5808  -23.2458 H         1 L811225     0.0000 
@<TRIPOS>BOND
     1    3    1 1    
     2   37    1 1    
     3   38    1 1    
     4   39    1 1    
     5    3    2 1    
     6   40    2 1    
     7   41    2 1    
     8   42    2 1    
     9    4    3 1    
    10    5    3 1    
    11   23    4 1    
    12   24    4 1    
    13   25    4 1    
    14    6    5 ar   
    15   22    5 ar   
    16    7    6 ar   
    17   26    6 1    
    18    8    7 1    
    19   19    7 ar   
    20    9    8 2    
    21   10    8 am   
    22   11   10 1    
    23   18   10 1    
    24   12   11 1    
    25   27   11 1    
    26   28   11 1    
    27   13   12 ar   
    28   17   12 ar   
    29   14   13 ar   
    30   29   13 1    
    31   15   14 ar   
    32   30   14 1    
    33   16   15 ar   
    34   31   15 1    
    35   17   16 ar   
    36   32   16 1    
    37   18   17 1    
    38   33   18 1    
    39   34   18 1    
    40   20   19 1    
    41   21   19 ar   
    42   43   20 1    
    43   22   21 ar   
    44   35   21 1    
    45   23   22 1    
    46   36   23 1    
@<TRIPOS>SUBSTRUCTURE
     1 L811225     1 GROUP   
@<TRIPOS>SET

