#    Name: 3KK6_1_CAVITY_N1_6.mol2
#    Modification time : Tue Mar 11 08:09:58 2014

@<TRIPOS>MOLECULE
3KK6_1_CAVITY_N1_6.mol2
   13     0     3     0     0
SMALL
NO_CHARGES


@<TRIPOS>ATOM
      1 O         -25.7633   38.1852   -1.6478 O.2       1 ALA2        0.0000 
      2 O         -24.7517   38.9695   -2.4299 O.2       1 ALA2        0.0000 
      3 CA        -27.7556   37.5431   -1.9917 C.3       3 GLY6        0.0000 
      4 O         -26.7441   38.3273   -2.7738 O.2       1 ALA2        0.0000 
      5 CA        -29.7480   36.9009   -2.3356 C.3       3 GLY6        0.0000 
      6 CZ        -28.7364   37.6852   -3.1177 C.ar      2 PHE5        0.0000 
      7 O         -27.7248   38.4695   -3.8998 O.2       1 ALA2        0.0000 
      8 CA        -30.2626   38.1716   -1.7269 C.3       3 GLY6        0.0000 
      9 CA        -29.2510   38.9559   -2.5090 C.3       3 GLY6        0.0000 
     10 CZ        -30.2318   39.0981   -3.6350 C.ar      2 PHE5        0.0000 
     11 CZ        -29.2202   39.8824   -4.4171 C.ar      2 PHE5        0.0000 
     12 CA        -27.2410   36.2724   -2.6004 C.3       3 GLY6        0.0000 
     13 CA        -26.2295   37.0566   -3.3824 C.3       3 GLY6        0.0000 
@<TRIPOS>BOND
@<TRIPOS>SUBSTRUCTURE
     1 ALA2        1 GROUP   
     2 PHE5        6 GROUP   
     3 GLY6        3 GROUP   
@<TRIPOS>SET

