#    Name: 3kk6_CEL_1_INTS_M
#    Modification time : Mon Mar 24 19:43:23 2014

@<TRIPOS>MOLECULE
3kk6_CEL_1_INTS_M
   62     0     6     0     0
SMALL
NO_CHARGES


@<TRIPOS>ATOM
      1 CA        -30.6380   43.2780   -9.0880 C.3       2 GLC5        0.0000 
      2 CA        -32.2740   42.1500   -8.8570 C.3       6 GLL5        0.0000 
      3 CA        -29.0020   44.4060   -9.3190 C.3       4 GLP5        0.0000 
      4 CA        -33.0540   40.6610   -6.2070 C.3       2 GLC5        0.0000 
      5 CA        -32.0330   42.1170   -6.1140 C.3       6 GLL5        0.0000 
      6 CA        -34.0750   39.2050   -6.3000 C.3       4 GLP5        0.0000 
      7 CA        -33.3085   46.7390   -1.4750 C.3       2 GLC5        0.0000 
      8 CA        -33.6310   46.2140   -3.4510 C.3       6 GLL5        0.0000 
      9 CA        -32.9860   47.2640    0.5010 C.3       4 GLP5        0.0000 
     10 CA        -34.4180   49.9530   -3.3105 C.3       2 GLC5        0.0000 
     11 CA        -33.0600   48.4890   -4.2850 C.3       6 GLL5        0.0000 
     12 CA        -35.7760   51.4170   -2.3360 C.3       4 GLP5        0.0000 
     13 CA        -34.0715   49.3280   -5.5270 C.3       2 GLC5        0.0000 
     14 CA        -35.0830   50.1670   -6.7690 C.3       4 GLP5        0.0000 
     15 CA        -33.5905   41.8120   -2.5990 C.3       2 GLC5        0.0000 
     16 CA        -32.0280   42.1980   -2.5380 C.3       6 GLL5        0.0000 
     17 CA        -35.1530   41.4260   -2.6600 C.3       4 GLP5        0.0000 
     18 CA        -32.2825   41.0800    0.8485 C.3       2 GLC5        0.0000 
     19 CA        -32.5930   39.9530   -0.7850 C.3       6 GLL5        0.0000 
     20 CA        -31.9720   42.2070    2.4820 C.3       4 GLP5        0.0000 
     21 CA        -30.0510   41.1295    0.2035 C.3       2 GLC5        0.0000 
     22 CA        -30.4870   39.9270   -1.2450 C.3       6 GLL5        0.0000 
     23 CA        -29.6150   42.3320    1.6520 C.3       4 GLP5        0.0000 
     24 CA        -31.3900   37.7110   -3.9940 C.3       2 GLC5        0.0000 
     25 CA        -31.8660   38.6780   -2.3110 C.3       6 GLL5        0.0000 
     26 CA        -30.9140   36.7440   -5.6770 C.3       4 GLP5        0.0000 
     27 O         -34.6130   42.1240  -10.1345 O.2       1 ALC1        0.0000 
     28 O         -33.9980   42.3520  -11.0370 O.2       5 ALL1        0.0000 
     29 O         -35.2280   41.8960   -9.2320 O.2       3 ALP1        0.0000 
     30 CA        -34.6440   43.6155   -7.3395 C.3       2 GLC5        0.0000 
     31 CA        -33.2030   42.7870   -8.1280 C.3       6 GLL5        0.0000 
     32 CA        -36.1460   44.4320   -7.2430 C.3       4 GLP5        0.0000 
     33 CA        -33.6449   41.2354   -7.6206 C.3       2 GLC5        0.0000 
     34 CA        -34.3800   39.8310   -7.6230 C.3       4 GLP5        0.0000 
     35 CA        -32.7905   40.5970   -7.5713 C.3       2 GLC5        0.0000 
     36 CA        -31.1810   41.3350   -6.8490 C.3       6 GLL5        0.0000 
     37 CA        -29.9830   42.3882   -7.2759 C.3       2 GLC5        0.0000 
     38 CA        -31.2210   41.3910   -8.1900 C.3       6 GLL5        0.0000 
     39 CA        -28.5520   43.2180   -7.2160 C.3       4 GLP5        0.0000 
     40 CA        -30.3535   43.3840   -2.7760 C.3       2 GLC5        0.0000 
     41 CA        -32.1180   42.8540   -3.7880 C.3       6 GLL5        0.0000 
     42 CA        -28.6340   44.2420   -2.3890 C.3       4 GLP5        0.0000 
     43 CA        -34.3645   44.8582   -4.8097 C.3       2 GLC5        0.0000 
     44 CA        -32.3290   44.3210   -3.9500 C.3       6 GLL5        0.0000 
     45 CA        -35.8760   45.1250   -5.9730 C.3       4 GLP5        0.0000 
     46 CA        -33.9766   42.8254   -3.1330 C.3       2 GLC5        0.0000 
     47 CA        -33.3770   44.8620   -3.3430 C.3       6 GLL5        0.0000 
     48 CA        -34.5375   45.8710   -4.8978 C.3       2 GLC5        0.0000 
     49 CA        -30.0080   45.7293   -6.0193 C.3       2 GLC5        0.0000 
     50 CA        -31.6680   46.4570   -4.8230 C.3       6 GLL5        0.0000 
     51 CA        -28.4690   45.6580   -7.2650 C.3       4 GLP5        0.0000 
     52 CA        -30.8579   48.0069   -3.9026 C.3       2 GLC5        0.0000 
     53 CA        -29.4250   48.9080   -3.2740 C.3       4 GLP5        0.0000 
     54 CA        -30.2397   39.0035   -0.4644 C.3       2 GLC5        0.0000 
     55 CA        -31.7000   39.8570   -1.7520 C.3       6 GLL5        0.0000 
     56 CA        -28.8880   38.7100    0.8550 C.3       4 GLP5        0.0000 
     57 CA        -33.5796   40.3588   -2.2249 C.3       2 GLC5        0.0000 
     58 CA        -32.8761   37.9757   -1.4529 C.3       2 GLC5        0.0000 
     59 CA        -33.7460   36.6600   -1.1160 C.3       4 GLP5        0.0000 
     60 CA        -30.7718   45.6276   -3.0844 C.3       2 GLC5        0.0000 
     61 CA        -31.4260   45.1440   -4.7240 C.3       6 GLL5        0.0000 
     62 CA        -29.3650   45.4520   -1.8220 C.3       4 GLP5        0.0000 
@<TRIPOS>BOND
@<TRIPOS>SUBSTRUCTURE
     1 ALC1       27 GROUP        1 X    ALC  0     ROOT ALC X 1
     2 GLC5        1 GROUP        1 X    GLC  0     **** GLC X 6
     3 ALP1       29 GROUP        1 Y    ALP  0     ROOT ALP Y 8
     4 GLP5        3 GROUP        1 Y    GLP  0     **** GLP Y 13
     5 ALL1       28 GROUP        1 Z    ALL  0     ROOT ALL Z 15
     6 GLL5        2 GROUP        1 Z    GLL  0     **** GLL Z 20
@<TRIPOS>SET

