#    Name: 3kk6_CEL_1_ligand
#    Modification time : Mon Mar 24 19:43:23 2014

@<TRIPOS>MOLECULE
3kk6_CEL_1_ligand
   40    42     1     0     0
SMALL
NO_CHARGES


@<TRIPOS>ATOM
      1 S1        -32.3930   42.0950  -10.6380 S.o2      1 CEL701      0.0000 
      2 C15       -32.2740   42.1500   -8.8570 C.ar      1 CEL701      0.0000 
      3 C14       -33.2030   42.7870   -8.1280 C.ar      1 CEL701      0.0000 
      4 C13       -33.0810   42.8110   -6.7440 C.ar      1 CEL701      0.0000 
      5 C12       -32.0330   42.1170   -6.1140 C.ar      1 CEL701      0.0000 
      6 C17       -31.1810   41.3350   -6.8490 C.ar      1 CEL701      0.0000 
      7 C16       -31.2210   41.3910   -8.1900 C.ar      1 CEL701      0.0000 
      8 N2        -31.9940   41.9580   -4.7100 N.pl3     1 CEL701      0.0000 
      9 C3        -32.1180   42.8540   -3.7880 C.2       1 CEL701      0.0000 
     10 C5        -32.3290   44.3210   -3.9500 C.ar      1 CEL701      0.0000 
     11 C10       -33.3770   44.8620   -3.3430 C.ar      1 CEL701      0.0000 
     12 C9        -33.6310   46.2140   -3.4510 C.ar      1 CEL701      0.0000 
     13 C8        -32.7670   47.0200   -4.1940 C.ar      1 CEL701      0.0000 
     14 C11       -33.0600   48.4890   -4.2850 C.3       1 CEL701      0.0000 
     15 C7        -31.6680   46.4570   -4.8230 C.ar      1 CEL701      0.0000 
     16 C6        -31.4260   45.1440   -4.7240 C.ar      1 CEL701      0.0000 
     17 C2        -32.0280   42.1980   -2.5380 C.2       1 CEL701      0.0000 
     18 C1        -31.8540   40.9250   -2.7710 C.2       1 CEL701      0.0000 
     19 C4        -31.7000   39.8570   -1.7520 C.3       1 CEL701      0.0000 
     20 F3        -32.5930   39.9530   -0.7850 F         1 CEL701      0.0000 
     21 F2        -30.4870   39.9270   -1.2450 F         1 CEL701      0.0000 
     22 F1        -31.8660   38.6780   -2.3110 F         1 CEL701      0.0000 
     23 N1        -31.8210   40.7400   -4.1100 N.2       1 CEL701      0.0000 
     24 N3        -33.9980   42.3520  -11.0370 N.pl3     1 CEL701      0.0000 
     25 O2        -31.3540   43.1670  -11.2450 O.2       1 CEL701      0.0000 
     26 O1        -32.0290   40.6090  -11.1630 O.2       1 CEL701      0.0000 
     27 H         -34.0067   43.2601   -8.5691 H         1 CEL701      0.0000 
     28 H         -33.7550   43.3354   -6.1728 H         1 CEL701      0.0000 
     29 H         -30.5145   40.7084   -6.3612 H         1 CEL701      0.0000 
     30 H         -30.5365   40.9190   -8.7910 H         1 CEL701      0.0000 
     31 H         -34.0305   44.2792   -2.7722 H         1 CEL701      0.0000 
     32 H         -34.4479   46.6311   -2.9907 H         1 CEL701      0.0000 
     33 H         -31.0376   47.0781   -5.3724 H         1 CEL701      0.0000 
     34 H         -30.6299   44.6839   -5.1695 H         1 CEL701      0.0000 
     35 H         -32.0914   42.6631   -1.7030 H         1 CEL701      0.0000 
     36 H         -34.6575   41.7129  -10.6414 H         1 CEL701      0.0000 
     37 H         -34.1824   43.1262  -11.6425 H         1 CEL701      0.0000 
     38 H         -33.0597   48.9242   -3.3847 H         1 CEL701      0.0000 
     39 H         -32.3828   48.9689   -4.8428 H         1 CEL701      0.0000 
     40 H         -33.9550   48.6645   -4.6951 H         1 CEL701      0.0000 
@<TRIPOS>BOND
     1    2    1 1    
     2   24    1 1    
     3   25    1 2    
     4   26    1 2    
     5    3    2 ar   
     6    7    2 ar   
     7    4    3 ar   
     8   27    3 1    
     9    5    4 ar   
    10   28    4 1    
    11    6    5 ar   
    12    8    5 1    
    13    7    6 ar   
    14   29    6 1    
    15   30    7 1    
    16    9    8 1    
    17   23    8 1    
    18   10    9 1    
    19   17    9 2    
    20   11   10 ar   
    21   16   10 ar   
    22   12   11 ar   
    23   31   11 1    
    24   13   12 ar   
    25   32   12 1    
    26   14   13 1    
    27   15   13 ar   
    28   38   14 1    
    29   39   14 1    
    30   40   14 1    
    31   16   15 ar   
    32   33   15 1    
    33   34   16 1    
    34   18   17 1    
    35   35   17 1    
    36   19   18 1    
    37   23   18 2    
    38   20   19 1    
    39   21   19 1    
    40   22   19 1    
    41   36   24 1    
    42   37   24 1    
@<TRIPOS>SUBSTRUCTURE
     1 CEL701      1 GROUP   
@<TRIPOS>SET

