#    Name: 3ccn_LKG_1_INTS_M
#    Modification time : Mon Mar 24 20:38:40 2014

@<TRIPOS>MOLECULE
3ccn_LKG_1_INTS_M
   58     0     6     0     0
SMALL
NO_CHARGES


@<TRIPOS>ATOM
      1 N          20.8790   17.4860   56.6035 N.am      1 SEC2        0.0000 
      2 N          20.8490   15.9900   56.4400 N.am      5 SEL2        0.0000 
      3 N          20.9090   18.9820   56.7670 N.am      3 SEP2        0.0000 
      4 CA         16.8755    9.0210   57.2160 C.3       2 GLC5        0.0000 
      5 CA         16.7470   10.2460   58.9650 C.3       6 GLL5        0.0000 
      6 CA         17.0040    7.7960   55.4670 C.3       4 GLP5        0.0000 
      7 CA         16.2740   14.4130   57.5050 C.3       2 GLC5        0.0000 
      8 CA         18.0960   14.8680   58.5830 C.3       6 GLL5        0.0000 
      9 CA         14.4520   13.9580   56.4270 C.3       4 GLP5        0.0000 
     10 CA         24.7800   11.6410   58.9705 C.3       2 GLC5        0.0000 
     11 CA         24.0510   11.0370   57.1590 C.3       6 GLL5        0.0000 
     12 CA         25.5090   12.2450   60.7820 C.3       4 GLP5        0.0000 
     13 CA         24.2525   14.0025   56.5370 C.3       2 GLC5        0.0000 
     14 CA         23.3950   11.9410   56.3180 C.3       6 GLL5        0.0000 
     15 CA         25.1100   16.0640   56.7560 C.3       4 GLP5        0.0000 
     16 CA         24.1585   10.4420   59.5145 C.3       2 GLC5        0.0000 
     17 CA         23.3660    9.9290   57.6550 C.3       6 GLL5        0.0000 
     18 CA         24.9510   10.9550   61.3740 C.3       4 GLP5        0.0000 
     19 N          25.2045    9.1935   59.3385 N.am      1 SEC2        0.0000 
     20 N          24.0000    9.0420   58.4670 N.am      5 SEL2        0.0000 
     21 N          26.4090    9.3450   60.2100 N.am      3 SEP2        0.0000 
     22 CA         20.3740   11.0295   54.1615 C.3       2 GLC5        0.0000 
     23 CA         21.3200   12.6980   55.0700 C.3       6 GLL5        0.0000 
     24 CA         19.4280    9.3610   53.2530 C.3       4 GLP5        0.0000 
     25 CA         19.6020   13.5285   54.4580 C.3       2 GLC5        0.0000 
     26 CA         17.8840   14.3590   53.8460 C.3       4 GLP5        0.0000 
     27 CA         20.6505   16.8255   58.4610 C.3       2 GLC5        0.0000 
     28 CA         18.9680   15.8210   58.0750 C.3       6 GLL5        0.0000 
     29 CA         22.3330   17.8300   58.8470 C.3       4 GLP5        0.0000 
     30 CA         18.7165   17.5785   57.3505 C.3       2 GLC5        0.0000 
     31 CA         18.4650   19.3360   56.6260 C.3       4 GLP5        0.0000 
     32 CA         17.1187   12.9415   60.8395 C.3       2 GLC5        0.0000 
     33 CA         16.1160   12.9460   59.2540 C.3       6 GLL5        0.0000 
     34 CA         17.5260   13.1220   62.7410 C.3       4 GLP5        0.0000 
     35 CA         19.3400   11.9793   59.2812 C.3       2 GLC5        0.0000 
     36 CA         17.3070   12.5760   58.6220 C.3       6 GLL5        0.0000 
     37 CA         21.2190   12.0590   60.0110 C.3       4 GLP5        0.0000 
     38 CA         17.9315   16.8173   59.4750 C.3       2 GLC5        0.0000 
     39 CA         17.3310   18.2900   60.6210 C.3       4 GLP5        0.0000 
     40 CA         20.3075   14.4357   58.8915 C.3       2 GLC5        0.0000 
     41 CA         22.0830   13.5270   59.4540 C.3       4 GLP5        0.0000 
     42 CA         24.0295   10.3890   55.5148 C.3       2 GLC5        0.0000 
     43 CA         22.0550   11.7230   55.9930 C.3       6 GLL5        0.0000 
     44 CA         25.3340    8.9460   54.8740 C.3       4 GLP5        0.0000 
     45 CA         22.7355   12.4808   58.0556 C.3       2 GLC5        0.0000 
     46 CA         22.9797    7.8790   56.7615 C.3       2 GLC5        0.0000 
     47 CA         23.2620    5.9390   56.0360 C.3       4 GLP5        0.0000 
     48 CA         21.8463    9.4941   55.0984 C.3       2 GLC5        0.0000 
     49 CA         22.0290    9.7090   57.3190 C.3       6 GLL5        0.0000 
     50 CA         21.8210    8.5500   53.4180 C.3       4 GLP5        0.0000 
     51 CA         24.1014    9.5210   56.1185 C.3       2 GLC5        0.0000 
     52 CA         21.6271   11.1372   58.4982 C.3       2 GLC5        0.0000 
     53 CA         23.2028   12.9340   54.3989 C.3       2 GLC5        0.0000 
     54 CA         24.3830   13.6030   53.1850 C.3       4 GLP5        0.0000 
     55 CA         16.4633   12.2105   61.2040 C.3       2 GLC5        0.0000 
     56 CA         15.5580   10.6250   59.5960 C.3       6 GLL5        0.0000 
     57 CA         15.2146   13.1625   57.8825 C.3       2 GLC5        0.0000 
     58 CA         15.2430   11.9730   59.7380 C.3       6 GLL5        0.0000 
@<TRIPOS>BOND
@<TRIPOS>SUBSTRUCTURE
     1 SEC2        1 GROUP        1 X    SEC  0     ROOT SEC X 2
     2 GLC5        4 GROUP        1 X    GLC  0     **** GLC X 6
     3 SEP2        3 GROUP        1 Y    SEP  0     ROOT SEP Y 9
     4 GLP5        6 GROUP        1 Y    GLP  0     **** GLP Y 13
     5 SEL2        2 GROUP        1 Z    SEL  0     ROOT SEL Z 16
     6 GLL5        5 GROUP        1 Z    GLL  0     **** GLL Z 20
@<TRIPOS>SET

