#    Name: 3ccn_LKG_1_ligand
#    Modification time : Mon Mar 24 20:38:40 2014

@<TRIPOS>MOLECULE
3ccn_LKG_1_ligand
   37    40     1     0     0
SMALL
NO_CHARGES


@<TRIPOS>ATOM
      1 N1         19.8940   14.0380   56.7370 N.pl3     1 LKG1        0.0000 
      2 N3         20.8490   15.9900   56.4400 N.2       1 LKG1        0.0000 
      3 C4         17.3070   12.5760   58.6220 C.ar      1 LKG1        0.0000 
      4 C5         17.6150   11.2230   58.4810 C.ar      1 LKG1        0.0000 
      5 C6         16.7470   10.2460   58.9650 C.ar      1 LKG1        0.0000 
      6 C7         18.1810   13.5470   58.1280 C.2       1 LKG1        0.0000 
      7 C8         18.0960   14.8680   58.5830 C.2       1 LKG1        0.0000 
      8 C10        19.8850   15.3840   57.1250 C.2       1 LKG1        0.0000 
      9 C13        22.0550   11.7230   55.9930 C.ar      1 LKG1        0.0000 
     10 C15        24.0510   11.0370   57.1590 C.ar      1 LKG1        0.0000 
     11 C17        22.0290    9.7090   57.3190 C.ar      1 LKG1        0.0000 
     12 C14        23.3950   11.9410   56.3180 C.ar      1 LKG1        0.0000 
     13 C16        23.3660    9.9290   57.6550 C.ar      1 LKG1        0.0000 
     14 O1         24.0000    9.0420   58.4670 O.3       1 LKG1        0.0000 
     15 C18        21.3730   10.6120   56.4840 C.ar      1 LKG1        0.0000 
     16 C12        21.3200   12.6980   55.0700 C.3       1 LKG1        0.0000 
     17 C11        20.9240   13.9780   55.8110 C.2       1 LKG1        0.0000 
     18 N2         19.1050   13.2070   57.2030 N.2       1 LKG1        0.0000 
     19 N4         21.4420   15.1960   55.6920 N.2       1 LKG1        0.0000 
     20 C9         18.9680   15.8210   58.0750 C.2       1 LKG1        0.0000 
     21 C3         16.1160   12.9460   59.2540 C.ar      1 LKG1        0.0000 
     22 C2         15.2430   11.9730   59.7380 C.ar      1 LKG1        0.0000 
     23 C1         15.5580   10.6250   59.5960 C.ar      1 LKG1        0.0000 
     24 H          18.4910   10.9442   58.0154 H         1 LKG1        0.0000 
     25 H          16.9772    9.2530   58.8599 H         1 LKG1        0.0000 
     26 H          17.3958   15.1234   59.2836 H         1 LKG1        0.0000 
     27 H          25.0334   11.1904   57.4091 H         1 LKG1        0.0000 
     28 H          21.5348    8.8903   57.6836 H         1 LKG1        0.0000 
     29 H          23.8918   12.7519   55.9459 H         1 LKG1        0.0000 
     30 H          20.3903   10.4584   56.2319 H         1 LKG1        0.0000 
     31 H          20.4218   12.2164   54.6820 H         1 LKG1        0.0000 
     32 H          21.9680   12.9555   54.2315 H         1 LKG1        0.0000 
     33 H          18.9393   16.7793   58.3777 H         1 LKG1        0.0000 
     34 H          15.8842   13.9429   59.3616 H         1 LKG1        0.0000 
     35 H          14.3685   12.2518   60.1988 H         1 LKG1        0.0000 
     36 H          14.9184    9.9053   59.9541 H         1 LKG1        0.0000 
     37 H          23.2716    8.6162   59.0037 H         1 LKG1        0.0000 
@<TRIPOS>BOND
     1    8    1 1    
     2   17    1 1    
     3   18    1 1    
     4    8    2 2    
     5   19    2 1    
     6    4    3 ar   
     7    6    3 1    
     8   21    3 ar   
     9    5    4 ar   
    10   24    4 1    
    11   23    5 ar   
    12   25    5 1    
    13    7    6 1    
    14   18    6 2    
    15   20    7 2    
    16   26    7 1    
    17   20    8 1    
    18   12    9 ar   
    19   15    9 ar   
    20   16    9 1    
    21   12   10 ar   
    22   13   10 ar   
    23   27   10 1    
    24   13   11 ar   
    25   15   11 ar   
    26   28   11 1    
    27   29   12 1    
    28   14   13 1    
    29   37   14 1    
    30   30   15 1    
    31   17   16 1    
    32   31   16 1    
    33   32   16 1    
    34   19   17 2    
    35   33   20 1    
    36   22   21 ar   
    37   34   21 1    
    38   23   22 ar   
    39   35   22 1    
    40   36   23 1    
@<TRIPOS>SUBSTRUCTURE
     1 LKG1        1 GROUP   
@<TRIPOS>SET

