#    Name: 3ews_ADP_2_INTS_M
#    Modification time : Tue Mar 25 02:37:16 2014

@<TRIPOS>MOLECULE
3ews_ADP_2_INTS_M
   67     0    12     0     0
SMALL
NO_CHARGES


@<TRIPOS>ATOM
      1 NZ         -3.0570   -1.8530   22.3750 N.4       3 LYC4        0.0000 
      2 NZ         -2.3910   -3.2170   22.0840 N.4      11 LYL4        0.0000 
      3 NZ         -3.7230   -0.4890   22.6660 N.4       7 LYP4        0.0000 
      4 N          -3.4630   -4.3070   22.9175 N.am      2 SEC2        0.0000 
      5 N          -2.3910   -3.2170   22.0840 N.am     10 SEL2        0.0000 
      6 N          -4.5350   -5.3970   23.7510 N.am      6 SEP2        0.0000 
      7 N          -2.8005   -4.4950   21.6595 N.am      2 SEC2        0.0000 
      8 N          -3.2100   -5.7730   21.2350 N.am      6 SEP2        0.0000 
      9 N          -2.2420   -3.5455   20.8560 N.am      2 SEC2        0.0000 
     10 N          -2.0930   -3.8740   19.6280 N.am      6 SEP2        0.0000 
     11 N          -3.0570   -1.8530   22.3750 N.am      2 SEC2        0.0000 
     12 N          -3.7230   -0.4890   22.6660 N.am      6 SEP2        0.0000 
     13 NZ          1.5655   -1.9010   23.4515 N.4       3 LYC4        0.0000 
     14 NZ          0.0010   -2.4210   22.4000 N.4      11 LYL4        0.0000 
     15 NZ          3.1300   -1.3810   24.5030 N.4       7 LYP4        0.0000 
     16 N           0.2465   -2.5695   20.9570 N.am      2 SEC2        0.0000 
     17 N           0.0010   -2.4210   22.4000 N.am     10 SEL2        0.0000 
     18 N           0.4920   -2.7180   19.5140 N.am      6 SEP2        0.0000 
     19 N           1.2320   -1.9890   21.9520 N.am      2 SEC2        0.0000 
     20 N           2.4630   -1.5570   21.5040 N.am      6 SEP2        0.0000 
     21 NZ         -2.6650   -1.4725   23.5095 N.4       3 LYC4        0.0000 
     22 NZ         -1.6070   -2.4560   24.3530 N.4      11 LYL4        0.0000 
     23 N          -2.4940   -3.2165   25.0745 N.am      2 SEC2        0.0000 
     24 N          -1.6070   -2.4560   24.3530 N.am     10 SEL2        0.0000 
     25 N          -3.3810   -3.9770   25.7960 N.am      6 SEP2        0.0000 
     26 NZ          2.4230   -3.1460   24.0095 N.4       3 LYC4        0.0000 
     27 NZ          1.7160   -4.9110   23.5160 N.4      11 LYL4        0.0000 
     28 N           1.2830   -5.0335   19.9615 N.am      2 SEC2        0.0000 
     29 N           0.4860   -5.1180   21.2330 N.am     10 SEL2        0.0000 
     30 N           2.0800   -4.9490   18.6900 N.am      6 SEP2        0.0000 
     31 CA         -2.0195   -6.3375   25.0535 C.3       4 GLC5        0.0000 
     32 CA         -0.5980   -7.2550   24.1800 C.3      12 GLL5        0.0000 
     33 CA         -3.4410   -5.4200   25.9270 C.3       8 GLP5        0.0000 
     34 CA         -1.3965   -6.7290   22.2350 C.3       4 GLC5        0.0000 
     35 CA         -2.1950   -6.2030   20.2900 C.3       8 GLP5        0.0000 
     36 CA         -0.4745  -10.2265   26.0545 C.3       4 GLC5        0.0000 
     37 CA         -0.0260   -8.5270   24.8060 C.3      12 GLL5        0.0000 
     38 CA         -0.9230  -11.9260   27.3030 C.3       8 GLP5        0.0000 
     39 CA          2.3880  -10.3435   21.8235 C.3       4 GLC5        0.0000 
     40 CA          1.7740   -9.4670   23.5130 C.3      12 GLL5        0.0000 
     41 CA          3.0020  -11.2200   20.1340 C.3       8 GLP5        0.0000 
     42 CA         -0.1960  -11.1315   25.3530 C.3       4 GLC5        0.0000 
     43 CA          0.5310  -10.3370   23.4030 C.3      12 GLL5        0.0000 
     44 CA         -1.1605  -11.4515   23.3300 C.3       4 GLC5        0.0000 
     45 CA         -2.8520  -12.5660   23.2570 C.3       8 GLP5        0.0000 
     46 CA          1.7735  -11.3855   22.0980 C.3       4 GLC5        0.0000 
     47 CA          3.0160  -12.4340   20.7930 C.3       8 GLP5        0.0000 
     48 N          -1.0505   -8.9915   18.7780 N.am      2 SEC2        0.0000 
     49 N          -0.6380   -9.8610   19.9720 N.am     10 SEL2        0.0000 
     50 N          -1.4630   -8.1220   17.5840 N.am      6 SEP2        0.0000 
     51 CA          0.6355  -13.5840   18.5395 C.3       4 GLC5        0.0000 
     52 CA         -1.1030  -12.3100   19.1310 C.3      12 GLL5        0.0000 
     53 CA          2.3740  -14.8580   17.9480 C.3       8 GLP5        0.0000 
     54 O          -2.1480  -13.2580   17.4175 O.2       1 ALC1        0.0000 
     55 O          -1.5340  -12.0570   17.8690 O.2       9 ALL1        0.0000 
     56 O          -2.7620  -14.4590   16.9660 O.2       5 ALP1        0.0000 
     57 O          -1.9105  -10.9300   17.1055 O.2       1 ALC1        0.0000 
     58 O          -2.2870   -9.8030   16.3420 O.2       5 ALP1        0.0000 
     59 CA         -1.7255  -13.2040   22.0580 C.3       4 GLC5        0.0000 
     60 CA         -0.5990  -13.8420   20.8590 C.3      12 GLL5        0.0000 
     61 CA          0.7615  -14.9640   19.8415 C.3       4 GLC5        0.0000 
     62 CA          2.1220  -16.0860   18.8240 C.3       8 GLP5        0.0000 
     63 CA         -1.5520  -12.0760   22.3230 C.3       4 GLC5        0.0000 
     64 CA         -0.2520  -11.5860   21.3890 C.3      12 GLL5        0.0000 
     65 CA         -2.2178  -11.0438   20.9578 C.3       4 GLC5        0.0000 
     66 CA         -0.7060  -11.2070   20.0420 C.3      12 GLL5        0.0000 
     67 CA         -3.5310  -10.3290   22.3290 C.3       8 GLP5        0.0000 
@<TRIPOS>BOND
@<TRIPOS>SUBSTRUCTURE
     1 ALC1       54 GROUP        1 X    ALC  0     ROOT ALC X 1
     2 SEC2        4 GROUP        1 X    SEC  0     **** SEC X 2
     3 LYC4        1 GROUP        1 X    LYC  0     **** LYC X 4
     4 GLC5       31 GROUP        1 X    GLC  0     **** GLC X 6
     5 ALP1       56 GROUP        1 Y    ALP  0     ROOT ALP Y 8
     6 SEP2        6 GROUP        1 Y    SEP  0     **** SEP Y 9
     7 LYP4        3 GROUP        1 Y    LYP  0     **** LYP Y 11
     8 GLP5       33 GROUP        1 Y    GLP  0     **** GLP Y 13
     9 ALL1       55 GROUP        1 Z    ALL  0     ROOT ALL Z 15
    10 SEL2        5 GROUP        1 Z    SEL  0     **** SEL Z 16
    11 LYL4        2 GROUP        1 Z    LYL  0     **** LYL Z 18
    12 GLL5       32 GROUP        1 Z    GLL  0     **** GLL Z 20
@<TRIPOS>SET

