#    Name: 3ews_ADP_2_ligand
#    Modification time : Tue Mar 25 02:37:17 2014

@<TRIPOS>MOLECULE
3ews_ADP_2_ligand
   39    41     1     0     0
SMALL
NO_CHARGES


@<TRIPOS>ATOM
      1 PB         -1.2220   -3.0540   23.0190 P.3       1 ADP602      0.0000 
      2 O1B        -2.3910   -3.2170   22.0840 O.co2     1 ADP602      0.0000 
      3 O2B         0.0010   -2.4210   22.4000 O.co2     1 ADP602      0.0000 
      4 O3B        -1.6070   -2.4560   24.3530 O.co2     1 ADP602      0.0000 
      5 PA          0.4900   -5.3200   22.7310 P.3       1 ADP602      0.0000 
      6 O1A         1.7160   -4.9110   23.5160 O.co2     1 ADP602      0.0000 
      7 O2A         0.4860   -5.1180   21.2330 O.co2     1 ADP602      0.0000 
      8 O3A        -0.7780   -4.5650   23.3780 O.3       1 ADP602      0.0000 
      9 O5'         0.2190   -6.8730   23.0720 O.3       1 ADP602      0.0000 
     10 C5'        -0.5980   -7.2550   24.1800 C.3       1 ADP602      0.0000 
     11 C4'        -0.0260   -8.5270   24.8060 C.3       1 ADP602      0.0000 
     12 O4'        -0.5100   -9.6900   24.1370 O.3       1 ADP602      0.0000 
     13 C3'         1.4860   -8.5850   24.7090 C.3       1 ADP602      0.0000 
     14 O3'         1.9490   -9.2540   25.8820 O.3       1 ADP602      0.0000 
     15 C2'         1.7740   -9.4670   23.5130 C.3       1 ADP602      0.0000 
     16 O2'         2.9600  -10.2530   23.7080 O.3       1 ADP602      0.0000 
     17 C1'         0.5310  -10.3370   23.4030 C.3       1 ADP602      0.0000 
     18 N9          0.0490  -10.4450   22.0080 N.pl3     1 ADP602      0.0000 
     19 C8         -0.1820   -9.4150   21.1690 C.2       1 ADP602      0.0000 
     20 N7         -0.6380   -9.8610   19.9720 N.2       1 ADP602      0.0000 
     21 C5         -0.7060  -11.2070   20.0420 C.ar      1 ADP602      0.0000 
     22 C6         -1.1030  -12.3100   19.1310 C.ar      1 ADP602      0.0000 
     23 N6         -1.5340  -12.0570   17.8690 N.pl3     1 ADP602      0.0000 
     24 N1         -1.0220  -13.5750   19.6080 N.ar      1 ADP602      0.0000 
     25 C2         -0.5990  -13.8420   20.8590 C.ar      1 ADP602      0.0000 
     26 N3         -0.2220  -12.8950   21.7340 N.ar      1 ADP602      0.0000 
     27 C4         -0.2520  -11.5860   21.3890 C.ar      1 ADP602      0.0000 
     28 H          -1.6259   -7.4660   23.8741 H         1 ADP602      0.0000 
     29 H          -0.6216   -6.4831   24.9535 H         1 ADP602      0.0000 
     30 H          -0.2944   -8.5533   25.8524 H         1 ADP602      0.0000 
     31 H           1.8739   -7.6415   24.5725 H         1 ADP602      0.0000 
     32 H           1.8195   -8.8463   22.6451 H         1 ADP602      0.0000 
     33 H           0.7357  -11.2993   23.8024 H         1 ADP602      0.0000 
     34 H          -0.0409   -8.4707   21.3899 H         1 ADP602      0.0000 
     35 H          -1.5816  -11.0936   17.6052 H         1 ADP602      0.0000 
     36 H          -1.7659  -12.8564   17.3146 H         1 ADP602      0.0000 
     37 H          -0.5620  -14.8628   21.1705 H         1 ADP602      0.0000 
     38 H           2.6731   -9.8651   25.5624 H         1 ADP602      0.0000 
     39 H           3.6985   -9.7108   23.3072 H         1 ADP602      0.0000 
@<TRIPOS>BOND
     1    2    1 ar   
     2    3    1 ar   
     3    4    1 ar   
     4    8    1 1    
     5    6    5 ar   
     6    7    5 ar   
     7    8    5 1    
     8    9    5 1    
     9   10    9 1    
    10   11   10 1    
    11   28   10 1    
    12   29   10 1    
    13   12   11 1    
    14   13   11 1    
    15   30   11 1    
    16   17   12 1    
    17   14   13 1    
    18   15   13 1    
    19   31   13 1    
    20   38   14 1    
    21   16   15 1    
    22   17   15 1    
    23   32   15 1    
    24   39   16 1    
    25   18   17 1    
    26   33   17 1    
    27   19   18 1    
    28   27   18 1    
    29   20   19 2    
    30   34   19 1    
    31   21   20 1    
    32   22   21 ar   
    33   27   21 ar   
    34   23   22 1    
    35   24   22 ar   
    36   35   23 1    
    37   36   23 1    
    38   25   24 ar   
    39   26   25 ar   
    40   37   25 1    
    41   27   26 ar   
@<TRIPOS>SUBSTRUCTURE
     1 ADP602      1 GROUP   
@<TRIPOS>SET

