#    Name: 4CA7_1_CAVITY_N1_ALL.mol2
#    Modification time : Mon Mar 10 12:54:40 2014

@<TRIPOS>MOLECULE
4CA7_1_CAVITY_N1_ALL.mol2
  178     0     7     0     0
SMALL
NO_CHARGES


@<TRIPOS>ATOM
      1 N          25.2362   -4.4833    2.6686 N.2       2 ALA2        0.0000 
      2 CA         24.6002   -4.8346    3.9809 C.3       6 GLY6        0.0000 
      3 NZ         25.3866   -5.9416    2.3511 N.2       4 LYS4        0.0000 
      4 O          24.7506   -6.2929    3.6634 O.2       2 ALA2        0.0000 
      5 NZ         27.8583   -3.7838    0.6976 N.2       4 LYS4        0.0000 
      6 NZ         27.2223   -4.1351    2.0099 N.2       4 LYS4        0.0000 
      7 O          26.5863   -4.4864    3.3222 O.2       2 ALA2        0.0000 
      8 O          25.9503   -4.8377    4.6344 O.2       2 ALA2        0.0000 
      9 CA         25.3143   -5.1890    5.9467 C.3       6 GLY6        0.0000 
     10 NZ         27.3727   -5.5934    1.6924 N.2       4 LYS4        0.0000 
     11 NZ         26.7367   -5.9447    3.0047 N.2       4 LYS4        0.0000 
     12 O          26.1007   -6.2960    4.3169 O.2       2 ALA2        0.0000 
     13 CA         25.4647   -6.6473    5.6292 C.3       6 GLY6        0.0000 
     14 O          26.8871   -7.4029    2.6871 O.2       2 ALA2        0.0000 
     15 O          26.2511   -7.7543    3.9994 O.2       2 ALA2        0.0000 
     16 CA         26.5141   -3.7338    6.9178 C.3       6 GLY6        0.0000 
     17 O          29.2085   -3.7868    1.3511 O.2       2 ALA2        0.0000 
     18 O          28.5725   -4.1381    2.6634 O.2       2 ALA2        0.0000 
     19 O          27.9365   -4.4894    3.9757 O.2       2 ALA2        0.0000 
     20 O          27.3005   -4.8407    5.2880 O.2       2 ALA2        0.0000 
     21 CA         26.6645   -5.1921    6.6003 C.3       6 GLY6        0.0000 
     22 CA         26.0285   -5.5434    7.9125 C.3       6 GLY6        0.0000 
     23 NZ         29.3588   -5.2451    1.0336 N.2       4 LYS4        0.0000 
     24 NZ         28.7229   -5.5964    2.3459 N.2       4 LYS4        0.0000 
     25 DU         28.0869   -5.9477    3.6582 H         7 CUB7        0.0000 
     26 DU         27.4509   -6.2990    4.9705 H         7 CUB7        0.0000 
     27 CA         26.8149   -6.6503    6.2828 C.3       6 GLY6        0.0000 
     28 NZ         28.2372   -7.4060    3.3407 N.2       4 LYS4        0.0000 
     29 DU         27.6013   -7.7573    4.6530 H         7 CUB7        0.0000 
     30 OG         26.9653   -8.1086    5.9652 O.2       1 SER1        0.0000 
     31 NZ         28.3876   -8.8643    3.0232 N.2       4 LYS4        0.0000 
     32 NZ         27.7516   -9.2156    4.3355 N.2       4 LYS4        0.0000 
     33 NZ         27.1157   -9.5669    5.6477 N.2       4 LYS4        0.0000 
     34 NZ         28.5380  -10.3226    2.7057 N.2       4 LYS4        0.0000 
     35 N          27.0779   -2.6299    9.2011 N.2       2 ALA2        0.0000 
     36 NZ         26.4419   -2.9812   10.5134 N.2       4 LYS4        0.0000 
     37 N          27.8643   -3.7368    7.5713 N.2       2 ALA2        0.0000 
     38 NZ         27.2283   -4.0881    8.8836 N.2       4 LYS4        0.0000 
     39 NZ         26.5923   -4.4394   10.1959 N.2       4 LYS4        0.0000 
     40 O          30.5586   -3.7899    2.0046 O.2       2 ALA2        0.0000 
     41 O          29.9226   -4.1412    3.3169 O.2       2 ALA2        0.0000 
     42 N          28.6506   -4.8438    5.9415 N.2       2 ALA2        0.0000 
     43 N          28.0146   -5.1951    7.2538 N.2       2 ALA2        0.0000 
     44 NZ         27.3787   -5.5464    8.5661 N.2       4 LYS4        0.0000 
     45 NZ         26.7427   -5.8977    9.8784 N.2       4 LYS4        0.0000 
     46 NZ         30.7090   -5.2482    1.6871 N.2       4 LYS4        0.0000 
     47 NZ         30.0730   -5.5995    2.9994 N.2       4 LYS4        0.0000 
     48 DU         29.4370   -5.9508    4.3117 H         7 CUB7        0.0000 
     49 DU         28.8010   -6.3021    5.6240 H         7 CUB7        0.0000 
     50 DU         28.1650   -6.6534    6.9363 H         7 CUB7        0.0000 
     51 OG         27.5290   -7.0047    8.2486 O.2       1 SER1        0.0000 
     52 OG         26.8930   -7.3560    9.5608 O.2       1 SER1        0.0000 
     53 CA         26.2571   -7.7073   10.8731 C.3       6 GLY6        0.0000 
     54 NZ         29.5874   -7.4091    3.9942 N.2       4 LYS4        0.0000 
     55 DU         28.9514   -7.7604    5.3065 H         7 CUB7        0.0000 
     56 OG         28.3154   -8.1117    6.6188 O.2       1 SER1        0.0000 
     57 OG         27.6794   -8.4630    7.9311 O.2       1 SER1        0.0000 
     58 OG         27.0434   -8.8143    9.2433 O.2       1 SER1        0.0000 
     59 OG         26.4074   -9.1656   10.5556 O.2       1 SER1        0.0000 
     60 CA         25.7715   -9.5169   11.8679 C.3       6 GLY6        0.0000 
     61 NZ         29.7378   -8.8673    3.6767 N.2       4 LYS4        0.0000 
     62 NZ         29.1018   -9.2186    4.9890 N.2       4 LYS4        0.0000 
     63 NZ         28.4658   -9.5699    6.3013 N.2       4 LYS4        0.0000 
     64 OG         27.8298   -9.9212    7.6136 O.2       1 SER1        0.0000 
     65 OG         27.1938  -10.2726    8.9258 O.2       1 SER1        0.0000 
     66 OG         26.5578  -10.6239   10.2381 O.2       1 SER1        0.0000 
     67 CA         25.9218  -10.9752   11.5504 C.3       6 GLY6        0.0000 
     68 NZ         30.5242   -9.9743    2.0469 N.2       4 LYS4        0.0000 
     69 NZ         29.8882  -10.3256    3.3592 N.2       4 LYS4        0.0000 
     70 NZ         29.2522  -10.6769    4.6715 N.2       4 LYS4        0.0000 
     71 CA         26.7082  -12.0821    9.9206 C.3       6 GLY6        0.0000 
     72 NZ         30.6745  -11.4326    1.7294 N.2       4 LYS4        0.0000 
     73 NZ         30.0386  -11.7839    3.0417 N.2       4 LYS4        0.0000 
     74 NZ         29.4026  -12.1352    4.3540 N.2       4 LYS4        0.0000 
     75 OG         28.4280   -2.6329    9.8546 O.2       1 SER1        0.0000 
     76 OD1        27.7920   -2.9842   11.1669 O.3       3 ASP3        0.0000 
     77 N          29.2144   -3.7399    8.2248 N.2       2 ALA2        0.0000 
     78 N          28.5784   -4.0912    9.5371 N.2       2 ALA2        0.0000 
     79 N          27.9424   -4.4425   10.8494 N.2       2 ALA2        0.0000 
     80 CZ         31.9088   -3.7929    2.6581 C.ar      5 PHE5        0.0000 
     81 O          31.2728   -4.1442    3.9704 O.2       2 ALA2        0.0000 
     82 N          30.0008   -4.8469    6.5950 N.2       2 ALA2        0.0000 
     83 N          29.3648   -5.1982    7.9073 N.2       2 ALA2        0.0000 
     84 DU         28.7288   -5.5495    9.2196 H         7 CUB7        0.0000 
     85 CA         28.0928   -5.9008   10.5319 C.3       6 GLY6        0.0000 
     86 CA         27.4568   -6.2521   11.8442 C.3       6 GLY6        0.0000 
     87 CZ         31.4231   -5.6025    3.6529 C.ar      5 PHE5        0.0000 
     88 DU         30.7872   -5.9538    4.9652 H         7 CUB7        0.0000 
     89 O          30.1512   -6.3051    6.2775 O.2       2 ALA2        0.0000 
     90 DU         29.5152   -6.6564    7.5898 H         7 CUB7        0.0000 
     91 DU         28.8792   -7.0077    8.9021 H         7 CUB7        0.0000 
     92 DU         28.2432   -7.3591   10.2144 H         7 CUB7        0.0000 
     93 CA         27.6072   -7.7104   11.5267 C.3       6 GLY6        0.0000 
     94 O          30.9375   -7.4121    4.6477 O.2       2 ALA2        0.0000 
     95 O          30.3016   -7.7634    5.9600 O.2       2 ALA2        0.0000 
     96 DU         29.6656   -8.1147    7.2723 H         7 CUB7        0.0000 
     97 DU         29.0296   -8.4660    8.5846 H         7 CUB7        0.0000 
     98 DU         28.3936   -8.8173    9.8969 H         7 CUB7        0.0000 
     99 DU         27.7576   -9.1686   11.2092 H         7 CUB7        0.0000 
    100 NZ         27.1216   -9.5199   12.5214 N.2       4 LYS4        0.0000 
    101 O          31.0879   -8.8704    4.3302 O.2       2 ALA2        0.0000 
    102 DU         30.4519   -9.2217    5.6425 H         7 CUB7        0.0000 
    103 N          29.8159   -9.5730    6.9548 N.2       2 ALA2        0.0000 
    104 N          29.1800   -9.9243    8.2671 N.2       2 ALA2        0.0000 
    105 N          28.5440  -10.2756    9.5794 N.2       2 ALA2        0.0000 
    106 DU         27.9080  -10.6269   10.8917 H         7 CUB7        0.0000 
    107 DU         27.2720  -10.9782   12.2039 H         7 CUB7        0.0000 
    108 NZ         26.6360  -11.3295   13.5162 N.2       4 LYS4        0.0000 
    109 O          31.8743   -9.9774    2.7004 O.2       2 ALA2        0.0000 
    110 O          31.2383  -10.3287    4.0127 O.2       2 ALA2        0.0000 
    111 O          30.6023  -10.6800    5.3250 O.2       2 ALA2        0.0000 
    112 NZ         29.9663  -11.0313    6.6373 N.2       4 LYS4        0.0000 
    113 NZ         28.6944  -11.7339    9.2619 N.2       4 LYS4        0.0000 
    114 NZ         28.0584  -12.0852   10.5741 N.2       4 LYS4        0.0000 
    115 CA         27.4224  -12.4365   11.8864 C.3       6 GLY6        0.0000 
    116 CA         26.7864  -12.7878   13.1987 C.3       6 GLY6        0.0000 
    117 O          31.3887  -11.7869    3.6952 O.2       2 ALA2        0.0000 
    118 NZ         30.7527  -12.1382    5.0075 N.2       4 LYS4        0.0000 
    119 NZ         28.2087  -13.5435   10.2566 N.2       4 LYS4        0.0000 
    120 CZ         27.5728  -13.8948   11.5689 C.ar      5 PHE5        0.0000 
    121 CZ         26.9368  -14.2461   12.8812 C.ar      5 PHE5        0.0000 
    122 N          30.5646   -3.7429    8.8783 N.2       2 ALA2        0.0000 
    123 OG         29.9286   -4.0942   10.1906 O.2       1 SER1        0.0000 
    124 CZ         29.2926   -4.4455   11.5029 C.ar      5 PHE5        0.0000 
    125 OD1        31.3509   -4.8499    7.2485 O.3       3 ASP3        0.0000 
    126 O          30.7149   -5.2012    8.5608 O.2       2 ALA2        0.0000 
    127 DU         30.0789   -5.5525    9.8731 H         7 CUB7        0.0000 
    128 CZ         29.4430   -5.9038   11.1854 C.ar      5 PHE5        0.0000 
    129 O          28.8070   -6.2551   12.4977 O.2       2 ALA2        0.0000 
    130 O          32.1373   -5.9569    5.6187 O.2       2 ALA2        0.0000 
    131 O          31.5013   -6.3082    6.9310 O.2       2 ALA2        0.0000 
    132 O          30.8653   -6.6595    8.2433 O.2       2 ALA2        0.0000 
    133 DU         30.2293   -7.0108    9.5556 H         7 CUB7        0.0000 
    134 DU         29.5933   -7.3621   10.8679 H         7 CUB7        0.0000 
    135 O          28.9574   -7.7134   12.1802 O.2       2 ALA2        0.0000 
    136 NZ         28.3214   -8.0647   13.4925 N.2       4 LYS4        0.0000 
    137 O          32.2877   -7.4152    5.3012 O.2       2 ALA2        0.0000 
    138 O          31.0157   -8.1178    7.9258 O.2       2 ALA2        0.0000 
    139 N          30.3797   -8.4691    9.2381 N.2       2 ALA2        0.0000 
    140 N          29.7437   -8.8204   10.5504 N.2       2 ALA2        0.0000 
    141 DU         29.1077   -9.1717   11.8627 H         7 CUB7        0.0000 
    142 NZ         28.4717   -9.5230   13.1750 N.2       4 LYS4        0.0000 
    143 O          31.8021   -9.2247    6.2960 O.2       2 ALA2        0.0000 
    144 N          31.1661   -9.5761    7.6083 N.2       2 ALA2        0.0000 
    145 N          29.8941  -10.2787   10.2329 N.2       2 ALA2        0.0000 
    146 O          29.2581  -10.6300   11.5452 O.2       2 ALA2        0.0000 
    147 OD1        28.6221  -10.9813   12.8575 O.3       3 ASP3        0.0000 
    148 OD1        27.9861  -11.3326   14.1697 O.3       3 ASP3        0.0000 
    149 O          31.9525  -10.6830    5.9785 O.2       2 ALA2        0.0000 
    150 N          29.4085  -12.0882   11.2277 N.2       2 ALA2        0.0000 
    151 OD1        28.7725  -12.4395   12.5400 O.3       3 ASP3        0.0000 
    152 OD1        28.1365  -12.7909   13.8522 O.3       3 ASP3        0.0000 
    153 N          29.5589  -13.5465   10.9102 N.2       2 ALA2        0.0000 
    154 NZ         28.9229  -13.8978   12.2225 N.2       4 LYS4        0.0000 
    155 OD1        28.2869  -14.2491   13.5347 O.3       3 ASP3        0.0000 
    156 N          31.9147   -3.7460    9.5318 N.2       2 ALA2        0.0000 
    157 CZ         31.2787   -4.0973   10.8441 C.ar      5 PHE5        0.0000 
    158 OG         32.0651   -5.2043    9.2143 O.2       1 SER1        0.0000 
    159 OG         31.4291   -5.5556   10.5266 O.2       1 SER1        0.0000 
    160 CZ         30.7931   -5.9069   11.8389 C.ar      5 PHE5        0.0000 
    161 CZ         30.1571   -6.2582   13.1512 C.ar      5 PHE5        0.0000 
    162 O          31.5795   -7.0139   10.2091 O.2       2 ALA2        0.0000 
    163 DU         30.9435   -7.3652   11.5214 H         7 CUB7        0.0000 
    164 CZ         30.3075   -7.7165   12.8337 C.ar      5 PHE5        0.0000 
    165 O          31.7299   -8.4721    9.8916 O.2       2 ALA2        0.0000 
    166 O          31.0939   -8.8234   11.2039 O.2       2 ALA2        0.0000 
    167 CZ         30.4579   -9.1747   12.5162 C.ar      5 PHE5        0.0000 
    168 NZ         29.8219   -9.5260   13.8285 N.2       4 LYS4        0.0000 
    169 N          32.5162   -9.5791    8.2618 N.2       2 ALA2        0.0000 
    170 O          30.6083  -10.6330   12.1987 O.2       2 ALA2        0.0000 
    171 OD1        29.9723  -10.9843   13.5110 O.3       3 ASP3        0.0000 
    172 OD1        30.1227  -12.4426   13.1935 O.3       3 ASP3        0.0000 
    173 OG         32.7792   -5.5586   11.1802 O.2       1 SER1        0.0000 
    174 CZ         32.1433   -5.9099   12.4924 C.ar      5 PHE5        0.0000 
    175 CZ         32.9296   -7.0169   10.8626 C.ar      5 PHE5        0.0000 
    176 CZ         32.2936   -7.3682   12.1749 C.ar      5 PHE5        0.0000 
    177 CZ         33.0800   -8.4752   10.5451 C.ar      5 PHE5        0.0000 
    178 CZ         32.4440   -8.8265   11.8574 C.ar      5 PHE5        0.0000 
@<TRIPOS>BOND
@<TRIPOS>SUBSTRUCTURE
     1 SER1       30 GROUP   
     2 ALA2        1 GROUP   
     3 ASP3       76 GROUP   
     4 LYS4        3 GROUP   
     5 PHE5       80 GROUP   
     6 GLY6        2 GROUP   
     7 CUB7       25 GROUP   
@<TRIPOS>SET

