#    Name: 4ca7_3EF_1_INTS_M
#    Modification time : Tue Mar 25 09:09:18 2014

@<TRIPOS>MOLECULE
4ca7_3EF_1_INTS_M
  103     0    15     0     0
SMALL
NO_CHARGES


@<TRIPOS>ATOM
      1 N          23.0055    1.3865   11.0225 N.am      2 SEC2        0.0000 
      2 N          24.3480    1.4950   11.5670 N.am     12 SEL2        0.0000 
      3 N          21.6630    1.2780   10.4780 N.am      7 SEP2        0.0000 
      4 CA         24.2655    0.9505   15.7685 C.3       5 GLC5        0.0000 
      5 CA         25.4660    2.8130   16.0920 C.3      15 GLL5        0.0000 
      6 CA         23.0650   -0.9120   15.4450 C.3      10 GLP5        0.0000 
      7 CA         22.3650    1.6740   13.2855 C.3       5 GLC5        0.0000 
      8 CA         24.1910    2.7190   14.0160 C.3      15 GLL5        0.0000 
      9 CA         20.5390    0.6290   12.5550 C.3      10 GLP5        0.0000 
     10 CA         23.6280    0.9035   14.7305 C.3       5 GLC5        0.0000 
     11 CA         22.3625    3.1075   14.9930 C.3       5 GLC5        0.0000 
     12 CA         20.5340    3.4960   15.9700 C.3      10 GLP5        0.0000 
     13 Zn         27.2775   -2.0645   12.7270 Zn        4 ZIC7        0.0000 
     14 Zn         27.9020   -1.8030   11.8380 Zn       14 ZIL7        0.0000 
     15 Zn         26.6530   -2.3260   13.6160 Zn        9 ZIP7        0.0000 
     16 N          29.1140   -1.4430   11.9015 N.am      2 SEC2        0.0000 
     17 N          27.9020   -1.8030   11.8380 N.am     12 SEL2        0.0000 
     18 N          30.3260   -1.0830   11.9650 N.am      7 SEP2        0.0000 
     19 Zn         26.0135   -2.1140   12.6175 Zn        4 ZIC7        0.0000 
     20 Zn         25.3740   -1.9020   11.6190 Zn       14 ZIL7        0.0000 
     21 N          24.1545   -2.1725   11.1845 N.am      2 SEC2        0.0000 
     22 N          25.3740   -1.9020   11.6190 N.am     12 SEL2        0.0000 
     23 N          22.9350   -2.4430   10.7500 N.am      7 SEP2        0.0000 
     24 CA         24.7780    0.5110    9.5260 C.3       5 GLC5        0.0000 
     25 CA         26.6290    0.2590   10.5750 C.3      15 GLL5        0.0000 
     26 CA         22.9270    0.7630    8.4770 C.3      10 GLP5        0.0000 
     27 O          27.7800    1.0490   12.6390 O.2       1 ALC1        0.0000 
     28 O          26.5030    0.9650   11.8450 O.2      11 ALL1        0.0000 
     29 O          29.0570    1.1330   13.4330 O.2       6 ALP1        0.0000 
     30 CA         28.0735   -0.0170    7.8980 C.3       5 GLC5        0.0000 
     31 CA         27.8800    0.8150    9.8380 C.3      15 GLL5        0.0000 
     32 CA         28.2670   -0.8490    5.9580 C.3      10 GLP5        0.0000 
     33 CA         30.1290    3.3425   10.9925 C.3       5 GLC5        0.0000 
     34 CA         28.2940    3.1290   10.5880 C.3      15 GLL5        0.0000 
     35 CA         31.9640    3.5560   11.3970 C.3      10 GLP5        0.0000 
     36 N          29.3460   -2.1445    7.8760 N.am      2 SEC2        0.0000 
     37 N          29.5250   -2.5790    9.2090 N.am     12 SEL2        0.0000 
     38 N          29.1670   -1.7100    6.5430 N.am      7 SEP2        0.0000 
     39 N          30.6680   -1.5990    9.2630 N.am      2 SEC2        0.0000 
     40 N          31.8110   -0.6190    9.3170 N.am      7 SEP2        0.0000 
     41 CA         25.6255   -9.8280    8.8900 C.3       5 GLC5        0.0000 
     42 CA         27.6010  -10.5610    9.6750 C.3      15 GLL5        0.0000 
     43 CA         23.6500   -9.0950    8.1050 C.3      10 GLP5        0.0000 
     44 CA         26.1140   -5.9780   11.3080 C.3       5 GLC5        0.0000 
     45 CA         26.9700   -6.9810    9.6180 C.3      15 GLL5        0.0000 
     46 CA         25.2580   -4.9750   12.9980 C.3      10 GLP5        0.0000 
     47 CA         25.3550   -3.9415    7.3940 C.3       5 GLC5        0.0000 
     48 CA         27.0210   -4.6840    8.4190 C.3      15 GLL5        0.0000 
     49 CA         23.6890   -3.1990    6.3690 C.3      10 GLP5        0.0000 
     50 CA         25.4010   -6.1270    8.1440 C.3       5 GLC5        0.0000 
     51 CA         23.7810   -7.5700    7.8690 C.3      10 GLP5        0.0000 
     52 CA         27.5480   -1.6225    7.6845 C.3       5 GLC5        0.0000 
     53 CA         26.8290   -2.3960    9.4110 C.3      15 GLL5        0.0000 
     54 CA         25.2590   -2.7975    7.8900 C.3       5 GLC5        0.0000 
     55 CA         26.3675   -4.3815   11.2955 C.3       5 GLC5        0.0000 
     56 CA         27.4770   -3.7880    9.5930 C.3      15 GLL5        0.0000 
     57 CA         31.0130   -3.7925   11.6940 C.3       5 GLC5        0.0000 
     58 CA         31.2190   -4.6850    9.9560 C.3      15 GLL5        0.0000 
     59 CA         30.8070   -2.9000   13.4320 C.3      10 GLP5        0.0000 
     60 NZ         33.6305   -4.3165    7.1640 N.4       3 LYC4        0.0000 
     61 NZ         33.0010   -4.5370    8.3450 N.4      13 LYL4        0.0000 
     62 NZ         34.2600   -4.0960    5.9830 N.4       8 LYP4        0.0000 
     63 N          33.3825   -6.0115    7.8595 N.am      2 SEC2        0.0000 
     64 N          33.0010   -4.5370    8.3450 N.am     12 SEL2        0.0000 
     65 N          33.7640   -7.4860    7.3740 N.am      7 SEP2        0.0000 
     66 N          33.6305   -4.3165    7.1640 N.am      2 SEC2        0.0000 
     67 N          34.2600   -4.0960    5.9830 N.am      7 SEP2        0.0000 
     68 N          33.9895   -4.5420    9.2140 N.am      2 SEC2        0.0000 
     69 N          34.9780   -4.5470   10.0830 N.am      7 SEP2        0.0000 
     70 CA         33.4525   -6.3850   11.6045 C.3       5 GLC5        0.0000 
     71 CA         31.8860   -5.9200   10.5640 C.3      15 GLL5        0.0000 
     72 CA         35.0190   -6.8500   12.6450 C.3      10 GLP5        0.0000 
     73 CA         33.7375   -4.6945   10.6265 C.3       5 GLC5        0.0000 
     74 CA         35.5890   -3.4690   10.6890 C.3      10 GLP5        0.0000 
     75 CA         31.8065   -4.7815   12.3645 C.3       5 GLC5        0.0000 
     76 CA         31.7270   -3.6430   14.1650 C.3      10 GLP5        0.0000 
     77 O          29.0580   -9.5535   14.8055 O.2       1 ALC1        0.0000 
     78 O          29.3600   -9.9050   13.4590 O.2      11 ALL1        0.0000 
     79 O          28.7560   -9.2020   16.1520 O.2       6 ALP1        0.0000 
     80 NZ         32.5870   -4.4075    6.7775 N.4       3 LYC4        0.0000 
     81 NZ         30.9140   -4.7190    7.5720 N.4      13 LYL4        0.0000 
     82 CA         24.5222    3.6883   18.6902 C.3       5 GLC5        0.0000 
     83 CA         25.1730    4.6820   17.6130 C.3      15 GLL5        0.0000 
     84 CA         24.3400    2.4120   20.2020 C.3      10 GLP5        0.0000 
     85 CA         25.2160    2.2155   18.1435 C.3       5 GLC5        0.0000 
     86 CA         25.7940    3.4690   17.2900 C.3      15 GLL5        0.0000 
     87 CA         24.8020    1.2900   19.5960 C.3      10 GLP5        0.0000 
     88 CA         25.2295    2.7835    8.2100 C.3       5 GLC5        0.0000 
     89 CA         27.1170    2.7430    8.5230 C.3      15 GLL5        0.0000 
     90 CA         23.4070    2.1320    7.9870 C.3      10 GLP5        0.0000 
     91 CA         29.7015    4.8750    9.6238 C.3       5 GLC5        0.0000 
     92 CA         27.5200    5.0210    9.2810 C.3      15 GLL5        0.0000 
     93 CA         31.5550    4.9840    9.3980 C.3      10 GLP5        0.0000 
     94 CA         25.4802   -8.5590   12.5368 C.3       5 GLC5        0.0000 
     95 CA         26.8160   -9.1850   11.4960 C.3      15 GLL5        0.0000 
     96 CA         24.2330   -7.3570   13.1890 C.3      10 GLP5        0.0000 
     97 CA         25.6235  -12.4490   11.1758 C.3       5 GLC5        0.0000 
     98 CA         26.6390  -10.3370   12.2730 C.3      15 GLL5        0.0000 
     99 CA         24.1330  -13.5580   11.1230 C.3      10 GLP5        0.0000 
    100 CA         25.4735   -7.0740    8.4920 C.3       5 GLC5        0.0000 
    101 CA         25.1326   -9.4737   10.3041 C.3       5 GLC5        0.0000 
    102 CA         27.3010   -9.2900   10.1920 C.3      15 GLL5        0.0000 
    103 CA         23.2510   -9.4220    9.5700 C.3      10 GLP5        0.0000 
@<TRIPOS>BOND
@<TRIPOS>SUBSTRUCTURE
     1 ALC1       27 GROUP        1 X    ALC  0     ROOT ALC X 1
     2 SEC2        1 GROUP        1 X    SEC  0     **** SEC X 2
     3 LYC4       60 GROUP        1 X    LYC  0     **** LYC X 4
     4 ZIC7       13 GROUP        1 X    ZIC  0     **** ZIC X 5
     5 GLC5        4 GROUP        1 X    GLC  0     **** GLC X 6
     6 ALP1       29 GROUP        1 Y    ALP  0     ROOT ALP Y 8
     7 SEP2        3 GROUP        1 Y    SEP  0     **** SEP Y 9
     8 LYP4       62 GROUP        1 Y    LYP  0     **** LYP Y 11
     9 ZIP7       15 GROUP        1 Y    ZIP  0     **** ZIP Y 12
    10 GLP5        6 GROUP        1 Y    GLP  0     **** GLP Y 13
    11 ALL1       28 GROUP        1 Z    ALL  0     ROOT ALL Z 15
    12 SEL2        2 GROUP        1 Z    SEL  0     **** SEL Z 16
    13 LYL4       61 GROUP        1 Z    LYL  0     **** LYL Z 18
    14 ZIL7       14 GROUP        1 Z    ZIL  0     **** ZIL Z 19
    15 GLL5        5 GROUP        1 Z    GLL  0     **** GLL Z 20
@<TRIPOS>SET

