#    Name: 4ca7_3EF_1_ligand
#    Modification time : Tue Mar 25 09:09:18 2014

@<TRIPOS>MOLECULE
4ca7_3EF_1_ligand
   87    91     1     0     0
SMALL
NO_CHARGES


@<TRIPOS>ATOM
      1 OAB        24.3480    1.4950   11.5670 O.2       1 3EF1715     0.0000 
      2 CAH        25.1730    4.6820   17.6130 C.ar      1 3EF1715     0.0000 
      3 CAK        24.2360    5.2470   16.7440 C.ar      1 3EF1715     0.0000 
      4 CAL        25.7940    3.4690   17.2900 C.ar      1 3EF1715     0.0000 
      5 CAQ        23.9140    4.5970   15.5460 C.ar      1 3EF1715     0.0000 
      6 CAR        25.4660    2.8130   16.0920 C.ar      1 3EF1715     0.0000 
      7 CBB        24.1910    2.7190   14.0160 C.3       1 3EF1715     0.0000 
      8 OBJ        25.4070    2.1860   13.4630 O.3       1 3EF1715     0.0000 
      9 CBM        25.3760    1.5470   12.2530 C.2       1 3EF1715     0.0000 
     10 CBP        24.5180    3.3740   15.2280 C.ar      1 3EF1715     0.0000 
     11 OAD        27.9020   -1.8030   11.8380 O.co2     1 3EF1715     0.0000 
     12 PBY        26.6850   -1.5190   11.0590 P.3       1 3EF1715     0.0000 
     13 OAG        25.3740   -1.9020   11.6190 O.co2     1 3EF1715     0.0000 
     14 CBX        26.6290    0.2590   10.5750 C.3       1 3EF1715     0.0000 
     15 NBI        26.5030    0.9650   11.8450 N.am      1 3EF1715     0.0000 
     16 CBE        27.8800    0.8150    9.8380 C.3       1 3EF1715     0.0000 
     17 CBQ        27.7620    2.2230    9.6510 C.ar      1 3EF1715     0.0000 
     18 CAS        27.1170    2.7430    8.5230 C.ar      1 3EF1715     0.0000 
     19 CAM        26.9870    4.1270    8.3430 C.ar      1 3EF1715     0.0000 
     20 CAI        27.5200    5.0210    9.2810 C.ar      1 3EF1715     0.0000 
     21 CAN        28.1760    4.5110   10.4180 C.ar      1 3EF1715     0.0000 
     22 CAT        28.2940    3.1290   10.5880 C.ar      1 3EF1715     0.0000 
     23 OAC        29.5250   -2.5790    9.2090 O.2       1 3EF1715     0.0000 
     24 CAJ        26.9530  -11.5990   11.7530 C.ar      1 3EF1715     0.0000 
     25 CAO        26.6390  -10.3370   12.2730 C.ar      1 3EF1715     0.0000 
     26 CAP        27.4320  -11.7120   10.4440 C.ar      1 3EF1715     0.0000 
     27 CAU        26.8160   -9.1850   11.4960 C.ar      1 3EF1715     0.0000 
     28 CAV        27.6010  -10.5610    9.6750 C.ar      1 3EF1715     0.0000 
     29 CBA        26.9700   -6.9810    9.6180 C.2       1 3EF1715     0.0000 
     30 CBC        27.0210   -4.6840    8.4190 C.3       1 3EF1715     0.0000 
     31 CBF        26.8290   -2.3960    9.4110 C.3       1 3EF1715     0.0000 
     32 NBG        28.2000   -8.2480    8.3020 N.2       1 3EF1715     0.0000 
     33 OBK        28.1080   -6.8460    7.7490 O.3       1 3EF1715     0.0000 
     34 CBN        29.0120   -3.6350    9.5900 C.2       1 3EF1715     0.0000 
     35 CBS        27.3620   -6.1750    8.6120 C.2       1 3EF1715     0.0000 
     36 CBT        27.3010   -9.2900   10.1920 C.ar      1 3EF1715     0.0000 
     37 CBU        27.4750   -8.2150    9.4190 C.2       1 3EF1715     0.0000 
     38 CBV        27.4770   -3.7880    9.5930 C.3       1 3EF1715     0.0000 
     39 N          29.7280   -4.7100    9.9780 N.am      1 3EF1715     0.0000 
     40 CA         31.2190   -4.6850    9.9560 C.3       1 3EF1715     0.0000 
     41 C          31.7560   -4.6380    8.5000 C.2       1 3EF1715     0.0000 
     42 O          33.0010   -4.5370    8.3450 O.co2     1 3EF1715     0.0000 
     43 CB         31.8860   -5.9200   10.5640 C.3       1 3EF1715     0.0000 
     44 CG         31.2090   -6.9100   11.2690 C.ar      1 3EF1715     0.0000 
     45 CD1        31.2710   -8.2320   10.8130 C.ar      1 3EF1715     0.0000 
     46 CD2        30.5470   -6.6000   12.4630 C.ar      1 3EF1715     0.0000 
     47 CE1        30.6380   -9.2530   11.5370 C.ar      1 3EF1715     0.0000 
     48 CE2        29.9190   -7.6180   13.1830 C.ar      1 3EF1715     0.0000 
     49 CZ         29.9730   -8.9350   12.7270 C.ar      1 3EF1715     0.0000 
     50 OH         29.3600   -9.9050   13.4590 O.3       1 3EF1715     0.0000 
     51 OXT        30.9140   -4.7190    7.5720 O.co2     1 3EF1715     0.0000 
     52 H          25.4084    5.1573   18.4930 H         1 3EF1715     0.0000 
     53 H          23.7843    6.1357   16.9816 H         1 3EF1715     0.0000 
     54 H          26.4852    3.0600   17.9239 H         1 3EF1715     0.0000 
     55 H          23.2360    5.0164   14.9016 H         1 3EF1715     0.0000 
     56 H          25.9199    1.9277   15.8534 H         1 3EF1715     0.0000 
     57 H          23.4715    1.9071   14.1917 H         1 3EF1715     0.0000 
     58 H          23.7308    3.4190   13.3046 H         1 3EF1715     0.0000 
     59 H          25.7516    0.3175   10.0035 H         1 3EF1715     0.0000 
     60 H          27.3761    0.9870   12.4323 H         1 3EF1715     0.0000 
     61 H          27.9573    0.2757    8.8861 H         1 3EF1715     0.0000 
     62 H          28.7540    0.5495   10.4450 H         1 3EF1715     0.0000 
     63 H          26.7321    2.1003    7.8145 H         1 3EF1715     0.0000 
     64 H          26.4959    4.4893    7.5148 H         1 3EF1715     0.0000 
     65 H          27.4359    6.0258    9.1455 H         1 3EF1715     0.0000 
     66 H          28.5626    5.1530   11.1132 H         1 3EF1715     0.0000 
     67 H          28.7836    2.7581   11.4216 H         1 3EF1715     0.0000 
     68 H          26.8319  -12.4359   12.3304 H         1 3EF1715     0.0000 
     69 H          26.2761  -10.2555   13.2314 H         1 3EF1715     0.0000 
     70 H          27.6557  -12.6308   10.0560 H         1 3EF1715     0.0000 
     71 H          26.5882   -8.2647   11.8882 H         1 3EF1715     0.0000 
     72 H          27.9533  -10.6401    8.7063 H         1 3EF1715     0.0000 
     73 H          26.4123   -6.7156   10.3675 H         1 3EF1715     0.0000 
     74 H          25.9355   -4.5801    8.2965 H         1 3EF1715     0.0000 
     75 H          27.4963   -4.3266    7.4968 H         1 3EF1715     0.0000 
     76 H          27.4212   -1.7123    8.8635 H         1 3EF1715     0.0000 
     77 H          25.8178   -2.4273    9.1039 H         1 3EF1715     0.0000 
     78 H          27.1549   -4.2063   10.5063 H         1 3EF1715     0.0000 
     79 H          29.2999   -5.5850   10.3025 H         1 3EF1715     0.0000 
     80 H          31.6066   -3.8125   10.4556 H         1 3EF1715     0.0000 
     81 H          32.7700   -5.5044   11.2010 H         1 3EF1715     0.0000 
     82 H          32.4990   -6.3935    9.6923 H         1 3EF1715     0.0000 
     83 H          31.7780   -8.4549    9.9512 H         1 3EF1715     0.0000 
     84 H          30.5246   -5.6368   12.8030 H         1 3EF1715     0.0000 
     85 H          30.6626  -10.2143   11.1997 H         1 3EF1715     0.0000 
     86 H          29.4158   -7.3958   14.0512 H         1 3EF1715     0.0000 
     87 H          29.5370   -9.6604   14.4123 H         1 3EF1715     0.0000 
@<TRIPOS>BOND
     1    9    1 2    
     2    3    2 ar   
     3    4    2 ar   
     4   52    2 1    
     5    5    3 ar   
     6   53    3 1    
     7    6    4 ar   
     8   54    4 1    
     9   10    5 ar   
    10   55    5 1    
    11   10    6 ar   
    12   56    6 1    
    13    8    7 1    
    14   10    7 1    
    15   57    7 1    
    16   58    7 1    
    17    9    8 1    
    18   15    9 am   
    19   12   11 ar   
    20   13   12 ar   
    21   14   12 1    
    22   31   12 1    
    23   15   14 1    
    24   16   14 1    
    25   59   14 1    
    26   60   15 1    
    27   17   16 1    
    28   61   16 1    
    29   62   16 1    
    30   18   17 ar   
    31   22   17 ar   
    32   19   18 ar   
    33   63   18 1    
    34   20   19 ar   
    35   64   19 1    
    36   21   20 ar   
    37   65   20 1    
    38   22   21 ar   
    39   66   21 1    
    40   67   22 1    
    41   34   23 2    
    42   25   24 ar   
    43   26   24 ar   
    44   68   24 1    
    45   27   25 ar   
    46   69   25 1    
    47   28   26 ar   
    48   70   26 1    
    49   36   27 ar   
    50   71   27 1    
    51   36   28 ar   
    52   72   28 1    
    53   35   29 2    
    54   37   29 1    
    55   73   29 1    
    56   35   30 1    
    57   38   30 1    
    58   74   30 1    
    59   75   30 1    
    60   38   31 1    
    61   76   31 1    
    62   77   31 1    
    63   33   32 1    
    64   37   32 2    
    65   35   33 1    
    66   38   34 1    
    67   39   34 am   
    68   37   36 1    
    69   78   38 1    
    70   40   39 1    
    71   79   39 1    
    72   41   40 1    
    73   43   40 1    
    74   80   40 1    
    75   42   41 ar   
    76   51   41 ar   
    77   44   43 1    
    78   81   43 1    
    79   82   43 1    
    80   45   44 ar   
    81   46   44 ar   
    82   47   45 ar   
    83   83   45 1    
    84   48   46 ar   
    85   84   46 1    
    86   49   47 ar   
    87   85   47 1    
    88   49   48 ar   
    89   86   48 1    
    90   50   49 1    
    91   87   50 1    
@<TRIPOS>SUBSTRUCTURE
     1 3EF1715     1 GROUP   
@<TRIPOS>SET

