#    Name: 4g67_SAH_1_INTS_M
#    Modification time : Mon Mar 24 21:25:18 2014

@<TRIPOS>MOLECULE
4g67_SAH_1_INTS_M
   71     0     9     0     0
SMALL
NO_CHARGES


@<TRIPOS>ATOM
      1 O          16.6120   -7.0975  -16.8215 O.2       1 ALC1        0.0000 
      2 O          15.7020   -6.1980  -17.2870 O.2       7 ALL1        0.0000 
      3 O          17.5220   -7.9970  -16.3560 O.2       4 ALP1        0.0000 
      4 O          14.7560   -6.5745  -18.2200 O.2       1 ALC1        0.0000 
      5 O          13.8100   -6.9510  -19.1530 O.2       4 ALP1        0.0000 
      6 CA         16.1670   -3.4810  -20.2360 C.3       3 GLC5        0.0000 
      7 CA         17.0270   -5.5010  -19.9900 C.3       9 GLL5        0.0000 
      8 CA         15.3070   -1.4610  -20.4820 C.3       6 GLP5        0.0000 
      9 CA         15.2370   -5.4910  -20.9870 C.3       3 GLC5        0.0000 
     10 CA         13.4470   -5.4810  -21.9840 C.3       6 GLP5        0.0000 
     11 CA         20.2485   -5.8150  -21.9855 C.3       3 GLC5        0.0000 
     12 CA         18.3690   -5.8870  -21.1250 C.3       9 GLL5        0.0000 
     13 CA         22.1280   -5.7430  -22.8460 C.3       6 GLP5        0.0000 
     14 CA         19.4615   -4.5325  -20.2980 C.3       3 GLC5        0.0000 
     15 CA         20.5540   -3.1780  -19.4710 C.3       6 GLP5        0.0000 
     16 CA         18.9740   -3.9785  -22.0190 C.3       3 GLC5        0.0000 
     17 CA         19.5790   -2.0700  -22.9130 C.3       6 GLP5        0.0000 
     18 N          15.7650   -1.6435  -17.8055 N.am      2 SEC2        0.0000 
     19 N          16.3970   -2.7300  -17.3580 N.am      8 SEL2        0.0000 
     20 N          15.1330   -0.5570  -18.2530 N.am      5 SEP2        0.0000 
     21 N          14.8930   -2.1880  -18.0800 N.am      2 SEC2        0.0000 
     22 N          14.6530   -3.8190  -17.9070 N.am      8 SEL2        0.0000 
     23 N          13.2820   -4.0160  -18.1305 N.am      2 SEC2        0.0000 
     24 N          11.9110   -4.2130  -18.3540 N.am      5 SEP2        0.0000 
     25 CA         19.8935   -6.8535  -22.6685 C.3       3 GLC5        0.0000 
     26 CA         18.3420   -7.6600  -21.3820 C.3       9 GLL5        0.0000 
     27 CA         21.4450   -6.0470  -23.9550 C.3       6 GLP5        0.0000 
     28 CA         16.6660   -8.9455  -21.5545 C.3       3 GLC5        0.0000 
     29 CA         14.9900  -10.2310  -21.7270 C.3       6 GLP5        0.0000 
     30 CA         18.2245   -8.3930  -23.2530 C.3       3 GLC5        0.0000 
     31 CA         18.1070   -9.1260  -25.1240 C.3       6 GLP5        0.0000 
     32 CA         18.9385   -9.2705  -18.6380 C.3       3 GLC5        0.0000 
     33 CA         19.2620   -8.4390  -20.4460 C.3       9 GLL5        0.0000 
     34 CA         18.6150  -10.1020  -16.8300 C.3       6 GLP5        0.0000 
     35 CA         17.3255   -9.3465  -19.8435 C.3       3 GLC5        0.0000 
     36 CA         15.3890  -10.2540  -19.2410 C.3       6 GLP5        0.0000 
     37 CA         21.9900   -7.4130  -21.6205 C.3       3 GLC5        0.0000 
     38 CA         20.7570   -8.3290  -20.7530 C.3       9 GLL5        0.0000 
     39 CA         23.2230   -6.4970  -22.4880 C.3       6 GLP5        0.0000 
     40 N          21.1880   -7.8975  -18.2275 N.am      2 SEC2        0.0000 
     41 N          21.4680   -7.9090  -19.5680 N.am      8 SEL2        0.0000 
     42 N          20.9080   -7.8860  -16.8870 N.am      5 SEP2        0.0000 
     43 CA         22.1425  -10.6370  -22.6575 C.3       3 GLC5        0.0000 
     44 CA         21.1440   -9.7260  -21.2160 C.3       9 GLL5        0.0000 
     45 CA         23.1410  -11.5480  -24.0990 C.3       6 GLP5        0.0000 
     46 CA         22.3930   -8.6570  -22.2270 C.3       3 GLC5        0.0000 
     47 CA         23.6420   -7.5880  -23.2380 C.3       6 GLP5        0.0000 
     48 CA         19.3895  -10.3420  -18.6270 C.3       3 GLC5        0.0000 
     49 CA         20.1640  -10.5820  -20.4240 C.3       9 GLL5        0.0000 
     50 CA         21.3160  -15.8550  -20.3320 C.3       3 GLC5        0.0000 
     51 CA         19.5540  -15.4080  -20.3990 C.3       9 GLL5        0.0000 
     52 CA         23.0780  -16.3020  -20.2650 C.3       6 GLP5        0.0000 
     53 CA         17.9780  -14.1170  -17.3640 C.3       3 GLC5        0.0000 
     54 CA         19.8650  -14.3540  -18.3080 C.3       9 GLL5        0.0000 
     55 CA         16.0910  -13.8800  -16.4200 C.3       6 GLP5        0.0000 
     56 CA         21.2385  -13.7210  -16.8830 C.3       3 GLC5        0.0000 
     57 CA         22.6120  -13.0880  -15.4580 C.3       6 GLP5        0.0000 
     58 CA         21.6080  -14.5745  -19.2395 C.3       3 GLC5        0.0000 
     59 CA         23.3510  -14.7950  -20.1710 C.3       6 GLP5        0.0000 
     60 CA         18.6295   -5.0118  -16.7112 C.3       3 GLC5        0.0000 
     61 CA         17.6040   -5.3900  -18.6310 C.3       9 GLL5        0.0000 
     62 CA         20.1310   -4.7870  -15.3760 C.3       6 GLP5        0.0000 
     63 CA         18.9348   -4.3117  -19.3908 C.3       3 GLC5        0.0000 
     64 CA         21.5205  -13.8532  -21.0968 C.3       3 GLC5        0.0000 
     65 CA         19.8620  -12.9830  -20.2060 C.3       9 GLL5        0.0000 
     66 CA         23.2710  -14.1550  -21.5490 C.3       6 GLP5        0.0000 
     67 CA         17.7735  -12.9413  -20.5912 C.3       3 GLC5        0.0000 
     68 CA         19.6780  -14.1200  -21.0830 C.3       9 GLL5        0.0000 
     69 CA         15.7770  -12.3310  -20.5380 C.3       6 GLP5        0.0000 
     70 CA         17.9965  -14.8030  -21.8340 C.3       3 GLC5        0.0000 
     71 CA         16.3770  -14.8420  -22.9270 C.3       6 GLP5        0.0000 
@<TRIPOS>BOND
@<TRIPOS>SUBSTRUCTURE
     1 ALC1        1 GROUP        1 X    ALC  0     ROOT ALC X 1
     2 SEC2       18 GROUP        1 X    SEC  0     **** SEC X 2
     3 GLC5        6 GROUP        1 X    GLC  0     **** GLC X 6
     4 ALP1        3 GROUP        1 Y    ALP  0     ROOT ALP Y 8
     5 SEP2       20 GROUP        1 Y    SEP  0     **** SEP Y 9
     6 GLP5        8 GROUP        1 Y    GLP  0     **** GLP Y 13
     7 ALL1        2 GROUP        1 Z    ALL  0     ROOT ALL Z 15
     8 SEL2       19 GROUP        1 Z    SEL  0     **** SEL Z 16
     9 GLL5        7 GROUP        1 Z    GLL  0     **** GLL Z 20
@<TRIPOS>SET

