#    Name: 4g67_SAH_1_ligand
#    Modification time : Mon Mar 24 21:25:18 2014

@<TRIPOS>MOLECULE
4g67_SAH_1_ligand
   46    48     1     0     0
SMALL
NO_CHARGES


@<TRIPOS>ATOM
      1 N          15.7020   -6.1980  -17.2870 N.4       1 SAH501      0.0000 
      2 CA         16.6520   -5.0830  -17.4620 C.3       1 SAH501      0.0000 
      3 CB         17.6040   -5.3900  -18.6310 C.3       1 SAH501      0.0000 
      4 CG         17.0270   -5.5010  -19.9900 C.3       1 SAH501      0.0000 
      5 SD         18.3690   -5.8870  -21.1250 S.3       1 SAH501      0.0000 
      6 C          15.8530   -3.8020  -17.5990 C.2       1 SAH501      0.0000 
      7 O          16.3970   -2.7300  -17.3580 O.co2     1 SAH501      0.0000 
      8 OXT        14.6530   -3.8190  -17.9070 O.co2     1 SAH501      0.0000 
      9 C5'        18.3420   -7.6600  -21.3820 C.3       1 SAH501      0.0000 
     10 C4'        19.2620   -8.4390  -20.4460 C.3       1 SAH501      0.0000 
     11 O4'        18.9640   -9.8520  -20.4540 O.3       1 SAH501      0.0000 
     12 C3'        20.7570   -8.3290  -20.7530 C.3       1 SAH501      0.0000 
     13 O3'        21.4680   -7.9090  -19.5680 O.3       1 SAH501      0.0000 
     14 C2'        21.1440   -9.7260  -21.2160 C.3       1 SAH501      0.0000 
     15 O2'        22.5090  -10.0760  -20.9270 O.3       1 SAH501      0.0000 
     16 C1'        20.1640  -10.5820  -20.4240 C.3       1 SAH501      0.0000 
     17 N9         19.9440  -11.9240  -20.9960 N.pl3     1 SAH501      0.0000 
     18 C8         19.8020  -12.3230  -22.2820 C.2       1 SAH501      0.0000 
     19 N7         19.6450  -13.6660  -22.3590 N.2       1 SAH501      0.0000 
     20 C5         19.6780  -14.1200  -21.0830 C.ar      1 SAH501      0.0000 
     21 C6         19.5540  -15.4080  -20.3990 C.ar      1 SAH501      0.0000 
     22 N6         19.3920  -16.5000  -21.1450 N.pl3     1 SAH501      0.0000 
     23 N1         19.6450  -15.4520  -19.0490 N.ar      1 SAH501      0.0000 
     24 C2         19.8650  -14.3540  -18.3080 C.ar      1 SAH501      0.0000 
     25 N3         19.9170  -13.1230  -18.8790 N.ar      1 SAH501      0.0000 
     26 C4         19.8620  -12.9830  -20.2060 C.ar      1 SAH501      0.0000 
     27 H          17.2564   -5.0106  -16.5470 H         1 SAH501      0.0000 
     28 H          18.1540   -6.3381  -18.3759 H         1 SAH501      0.0000 
     29 H          18.4075   -4.6021  -18.6253 H         1 SAH501      0.0000 
     30 H          16.6525   -4.5935  -20.3891 H         1 SAH501      0.0000 
     31 H          16.3742   -6.3241  -20.1296 H         1 SAH501      0.0000 
     32 H          18.6177   -7.7544  -22.4226 H         1 SAH501      0.0000 
     33 H          17.2977   -7.9042  -21.2499 H         1 SAH501      0.0000 
     34 H          19.1195   -8.0605  -19.4217 H         1 SAH501      0.0000 
     35 H          20.8701   -7.6542  -21.5686 H         1 SAH501      0.0000 
     36 H          20.8839   -9.8148  -22.2463 H         1 SAH501      0.0000 
     37 H          20.5333  -10.6539  -19.4143 H         1 SAH501      0.0000 
     38 H          19.8115  -11.7200  -23.0550 H         1 SAH501      0.0000 
     39 H          19.3385  -16.3541  -22.1328 H         1 SAH501      0.0000 
     40 H          19.3385  -17.3672  -20.6499 H         1 SAH501      0.0000 
     41 H          19.9996  -14.4414  -17.2716 H         1 SAH501      0.0000 
     42 H          16.1715   -7.0580  -17.0870 H         1 SAH501      0.0000 
     43 H          15.0660   -6.0293  -16.5340 H         1 SAH501      0.0000 
     44 H          15.1511   -6.3488  -18.1078 H         1 SAH501      0.0000 
     45 H          22.3079   -8.4517  -19.5643 H         1 SAH501      0.0000 
     46 H          22.4497  -10.8526  -20.2998 H         1 SAH501      0.0000 
@<TRIPOS>BOND
     1    2    1 1    
     2   42    1 1    
     3   43    1 1    
     4   44    1 1    
     5    3    2 1    
     6    6    2 1    
     7   27    2 1    
     8    4    3 1    
     9   28    3 1    
    10   29    3 1    
    11    5    4 1    
    12   30    4 1    
    13   31    4 1    
    14    9    5 1    
    15    7    6 ar   
    16    8    6 ar   
    17   10    9 1    
    18   32    9 1    
    19   33    9 1    
    20   11   10 1    
    21   12   10 1    
    22   34   10 1    
    23   16   11 1    
    24   13   12 1    
    25   14   12 1    
    26   35   12 1    
    27   45   13 1    
    28   15   14 1    
    29   16   14 1    
    30   36   14 1    
    31   46   15 1    
    32   17   16 1    
    33   37   16 1    
    34   18   17 1    
    35   26   17 1    
    36   19   18 2    
    37   38   18 1    
    38   20   19 1    
    39   21   20 ar   
    40   26   20 ar   
    41   22   21 1    
    42   23   21 ar   
    43   39   22 1    
    44   40   22 1    
    45   24   23 ar   
    46   25   24 ar   
    47   41   24 1    
    48   26   25 ar   
@<TRIPOS>SUBSTRUCTURE
     1 SAH501      1 GROUP   
@<TRIPOS>SET

