#    Name: 2e2b_406_1_INTS_M
#    Modification time : Tue Mar 25 10:32:16 2014

@<TRIPOS>MOLECULE
2e2b_406_1_INTS_M
  123     0     9     0     0
SMALL
NO_CHARGES


@<TRIPOS>ATOM
      1 CA         16.7750   46.3490   17.5040 C.3       3 GLC5        0.0000 
      2 CA         16.6580   48.5680   17.7030 C.3       9 GLL5        0.0000 
      3 CA         16.8920   44.1300   17.3050 C.3       6 GLP5        0.0000 
      4 CA         16.4310   48.0200   15.7280 C.3       3 GLC5        0.0000 
      5 CA         16.2040   47.4720   13.7530 C.3       6 GLP5        0.0000 
      6 CA         13.2195   51.8420   17.7555 C.3       3 GLC5        0.0000 
      7 CA         14.4220   50.2630   17.2900 C.3       9 GLL5        0.0000 
      8 CA         12.0170   53.4210   18.2210 C.3       6 GLP5        0.0000 
      9 CA         11.7810   47.9560   21.1850 C.3       3 GLC5        0.0000 
     10 CA         12.9460   49.1650   20.1830 C.3       9 GLL5        0.0000 
     11 CA         10.6160   46.7470   22.1870 C.3       6 GLP5        0.0000 
     12 CA         11.3790   50.4295   20.7700 C.3       3 GLC5        0.0000 
     13 CA          9.8120   51.6940   21.3570 C.3       6 GLP5        0.0000 
     14 CA         14.5195   50.5825   20.0270 C.3       3 GLC5        0.0000 
     15 CA         16.0930   52.0000   19.8710 C.3       6 GLP5        0.0000 
     16 CA         11.3545   46.2985   19.5795 C.3       3 GLC5        0.0000 
     17 CA         12.3190   47.7720   18.5830 C.3       9 GLL5        0.0000 
     18 CA         10.3900   44.8250   20.5760 C.3       6 GLP5        0.0000 
     19 CA         11.9325   50.8605   16.4655 C.3       3 GLC5        0.0000 
     20 CA         11.9420   49.9650   18.4300 C.3       9 GLL5        0.0000 
     21 CA         11.9230   51.7560   14.5010 C.3       6 GLP5        0.0000 
     22 CA         10.8770   50.8295   19.8935 C.3       3 GLC5        0.0000 
     23 CA         11.9795   51.6930   18.3255 C.3       3 GLC5        0.0000 
     24 CA         16.1560   45.5750   18.3140 C.3       3 GLC5        0.0000 
     25 CA         15.4200   47.0200   19.3230 C.3       9 GLL5        0.0000 
     26 CA         14.0595   46.2980   17.8680 C.3       3 GLC5        0.0000 
     27 CA         12.6990   45.5760   16.4130 C.3       6 GLP5        0.0000 
     28 CA         16.7845   44.7170   18.9835 C.3       3 GLC5        0.0000 
     29 CA         16.6770   45.3040   20.6620 C.3       9 GLL5        0.0000 
     30 CA         19.9160   47.2235   25.6460 C.3       3 GLC5        0.0000 
     31 CA         19.5410   46.7250   23.9420 C.3       9 GLL5        0.0000 
     32 CA         20.2910   47.7220   27.3500 C.3       6 GLP5        0.0000 
     33 CA         18.8145   49.0640   24.8685 C.3       3 GLC5        0.0000 
     34 CA         19.2540   48.8230   22.6890 C.3       9 GLL5        0.0000 
     35 CA         18.3750   49.3050   27.0480 C.3       6 GLP5        0.0000 
     36 CA          8.9310   60.4710   11.0510 C.3       3 GLC5        0.0000 
     37 CA         10.6260   61.3800   11.4130 C.3       9 GLL5        0.0000 
     38 CA          7.2360   59.5620   10.6890 C.3       6 GLP5        0.0000 
     39 CA          9.8085   62.4755   12.9805 C.3       3 GLC5        0.0000 
     40 CA          8.9910   63.5710   14.5480 C.3       6 GLP5        0.0000 
     41 CA         10.4655   60.4400   13.4025 C.3       3 GLC5        0.0000 
     42 CA         10.3050   59.5000   15.3920 C.3       6 GLP5        0.0000 
     43 N           9.5605   59.6510   10.4845 N.am      2 SEC2        0.0000 
     44 N          10.6700   60.1010   11.0160 N.am      8 SEL2        0.0000 
     45 N           8.4510   59.2010    9.9530 N.am      5 SEP2        0.0000 
     46 CA         10.7230   58.8785    9.7095 C.3       3 GLC5        0.0000 
     47 CA         11.7450   59.3640   11.4040 C.3       9 GLL5        0.0000 
     48 CA          9.7010   58.3930    8.0150 C.3       6 GLP5        0.0000 
     49 CA          9.5460   59.2475   11.7765 C.3       3 GLC5        0.0000 
     50 CA          7.3470   59.1310   12.1490 C.3       6 GLP5        0.0000 
     51 CA         16.5860   58.1510   11.5165 C.3       3 GLC5        0.0000 
     52 CA         15.0140   57.0320   12.5580 C.3       9 GLL5        0.0000 
     53 CA         18.1580   59.2700   10.4750 C.3       6 GLP5        0.0000 
     54 CA         14.7690   57.5505   10.6270 C.3       3 GLC5        0.0000 
     55 CA         14.5240   58.0690    8.6960 C.3       6 GLP5        0.0000 
     56 O          14.1275   55.0900   10.9795 O.2       1 ALC1        0.0000 
     57 O          14.9480   55.7250   12.0930 O.2       7 ALL1        0.0000 
     58 O          13.3070   54.4550    9.8660 O.2       4 ALP1        0.0000 
     59 CA         13.8115   52.8025   13.9415 C.3       3 GLC5        0.0000 
     60 CA         15.7000   53.8490   13.3820 C.3       9 GLL5        0.0000 
     61 CA         19.5580   53.5075   12.7305 C.3       3 GLC5        0.0000 
     62 CA         17.7250   52.5870   12.7390 C.3       9 GLL5        0.0000 
     63 CA         21.3910   54.4280   12.7220 C.3       6 GLP5        0.0000 
     64 CA         17.2565   50.8025   12.9195 C.3       3 GLC5        0.0000 
     65 CA         16.7880   49.0180   13.1000 C.3       6 GLP5        0.0000 
     66 CA         17.6975   57.3310   10.3155 C.3       3 GLC5        0.0000 
     67 CA         17.2370   55.3920   10.1560 C.3       9 GLL5        0.0000 
     68 CA         15.8805   56.7305    9.4260 C.3       3 GLC5        0.0000 
     69 CA         17.8180   56.0140    8.3115 C.3       3 GLC5        0.0000 
     70 CA         18.3990   56.6360    6.4670 C.3       6 GLP5        0.0000 
     71 CA         15.8060   53.8450   10.1595 C.3       3 GLC5        0.0000 
     72 CA         14.3750   52.2980   10.1630 C.3       6 GLP5        0.0000 
     73 O          17.9275   51.5135   14.9455 O.2       1 ALC1        0.0000 
     74 O          16.5330   51.8610   14.7350 O.2       7 ALL1        0.0000 
     75 O          19.3220   51.1660   15.1560 O.2       4 ALP1        0.0000 
     76 N          14.6270   53.0350   17.3375 N.am      2 SEC2        0.0000 
     77 N          14.8550   52.6550   15.9710 N.am      8 SEL2        0.0000 
     78 N          14.3990   53.4150   18.7040 N.am      5 SEP2        0.0000 
     79 CA         16.5008   49.5655   14.9147 C.3       3 GLC5        0.0000 
     80 CA         15.6550   50.5460   16.6180 C.3       9 GLL5        0.0000 
     81 CA         13.4808   51.0802   15.7275 C.3       3 GLC5        0.0000 
     82 CA         16.1532   51.0565   18.3002 C.3       3 GLC5        0.0000 
     83 CA         18.4405   49.0365   16.2425 C.3       3 GLC5        0.0000 
     84 CA         16.7720   49.6800   16.8410 C.3       9 GLL5        0.0000 
     85 CA         20.1660   48.9490   15.2130 C.3       6 GLP5        0.0000 
     86 CA         16.0630   50.2105   18.9600 C.3       3 GLC5        0.0000 
     87 CA         13.7632   47.1482   17.3480 C.3       3 GLC5        0.0000 
     88 CA         15.4080   48.2740   18.3950 C.3       9 GLL5        0.0000 
     89 CA         15.2138   50.8575   18.8008 C.3       3 GLC5        0.0000 
     90 CA         14.2470   49.1670   18.1710 C.3       9 GLL5        0.0000 
     91 CA         12.6372   46.9818   17.5612 C.3       3 GLC5        0.0000 
     92 CA         12.8320   49.0030   18.8360 C.3       9 GLL5        0.0000 
     93 CA         12.8255   49.7670   21.2888 C.3       3 GLC5        0.0000 
     94 CA         12.7620   50.4500   23.0680 C.3       6 GLP5        0.0000 
     95 CA         10.5470   49.0068   18.8151 C.3       3 GLC5        0.0000 
     96 CA          8.8210   48.8170   18.8920 C.3       6 GLP5        0.0000 
     97 CA         16.1457   43.5438   21.1013 C.3       3 GLC5        0.0000 
     98 CA         15.3620   41.6520   20.8290 C.3       6 GLP5        0.0000 
     99 CA         13.7309   60.9070   10.9714 C.3       3 GLC5        0.0000 
    100 CA         12.8520   59.9020   12.2290 C.3       9 GLL5        0.0000 
    101 CA         14.9980   61.3400    9.7530 C.3       6 GLP5        0.0000 
    102 CA         11.3844   59.9870   13.7909 C.3       3 GLC5        0.0000 
    103 CA         12.6290   61.3150   12.5630 C.3       9 GLL5        0.0000 
    104 CA         14.7532   60.3620   11.3865 C.3       3 GLC5        0.0000 
    105 CA         13.9470   59.1190   12.6150 C.3       9 GLL5        0.0000 
    106 CA         13.8234   58.7225   10.4559 C.3       3 GLC5        0.0000 
    107 CA         17.0505   60.3670   14.1675 C.3       3 GLC5        0.0000 
    108 CA         15.0700   59.6490   13.4250 C.3       9 GLL5        0.0000 
    109 CA         18.5130   61.5480   14.7620 C.3       6 GLP5        0.0000 
    110 CA         16.8730   59.2280   12.0240 C.3       3 GLC5        0.0000 
    111 CA         16.1060   58.7230   13.7210 C.3       9 GLL5        0.0000 
    112 CA         15.7050   51.4985   13.0188 C.3       3 GLC5        0.0000 
    113 CA         15.2410   49.6870   12.5340 C.3       6 GLP5        0.0000 
    114 CA         15.2720   52.8040   11.8332 C.3       3 GLC5        0.0000 
    115 CA         16.6380   52.7710   13.6250 C.3       9 GLL5        0.0000 
    116 CA         16.0925   52.6605   11.1692 C.3       3 GLC5        0.0000 
    117 CA         17.8950   53.4590   11.6120 C.3       9 GLL5        0.0000 
    118 CA         17.9590   52.2383   10.7784 C.3       3 GLC5        0.0000 
    119 CA         16.9640   54.5200   11.3800 C.3       9 GLL5        0.0000 
    120 CA         18.5310   50.7050    9.7790 C.3       6 GLP5        0.0000 
    121 CA         15.3972   53.4533   10.9953 C.3       3 GLC5        0.0000 
    122 CA         18.9771   54.9249   10.6410 C.3       3 GLC5        0.0000 
    123 CA         20.6210   55.1590   10.4560 C.3       6 GLP5        0.0000 
@<TRIPOS>BOND
@<TRIPOS>SUBSTRUCTURE
     1 ALC1       56 GROUP        1 X    ALC  0     ROOT ALC X 1
     2 SEC2       43 GROUP        1 X    SEC  0     **** SEC X 2
     3 GLC5        1 GROUP        1 X    GLC  0     **** GLC X 6
     4 ALP1       58 GROUP        1 Y    ALP  0     ROOT ALP Y 8
     5 SEP2       45 GROUP        1 Y    SEP  0     **** SEP Y 9
     6 GLP5        3 GROUP        1 Y    GLP  0     **** GLP Y 13
     7 ALL1       57 GROUP        1 Z    ALL  0     ROOT ALL Z 15
     8 SEL2       44 GROUP        1 Z    SEL  0     **** SEL Z 16
     9 GLL5        2 GROUP        1 Z    GLL  0     **** GLL Z 20
@<TRIPOS>SET

