#    Name: 2e2b_406_1_ligand
#    Modification time : Tue Mar 25 10:32:16 2014

@<TRIPOS>MOLECULE
2e2b_406_1_ligand
   74    78     1     0     0
SMALL
NO_CHARGES


@<TRIPOS>ATOM
      1 C1         15.6550   50.5460   16.6180 C.ar      1 4061001     0.0000 
      2 C2         16.7720   49.6800   16.8410 C.ar      1 4061001     0.0000 
      3 C3         16.6580   48.5680   17.7030 C.ar      1 4061001     0.0000 
      4 C4         15.4080   48.2740   18.3950 C.ar      1 4061001     0.0000 
      5 C5         14.2470   49.1670   18.1710 C.ar      1 4061001     0.0000 
      6 C6         14.4220   50.2630   17.2900 C.ar      1 4061001     0.0000 
      7 C7         12.8320   49.0030   18.8360 C.3       1 4061001     0.0000 
      8 F8         12.9460   49.1650   20.1830 F         1 4061001     0.0000 
      9 F9         12.3190   47.7720   18.5830 F         1 4061001     0.0000 
     10 F10        11.9420   49.9650   18.4300 F         1 4061001     0.0000 
     11 C11        15.4200   47.0200   19.3230 C.3       1 4061001     0.0000 
     12 N12        16.6820   46.6270   20.0070 N.4       1 4061001     0.0000 
     13 C13        16.6770   45.3040   20.6620 C.3       1 4061001     0.0000 
     14 C14        17.1820   45.5670   22.0850 C.3       1 4061001     0.0000 
     15 C15        18.0920   46.7950   21.8390 C.3       1 4061001     0.0000 
     16 C16        17.1450   47.6240   21.0090 C.3       1 4061001     0.0000 
     17 N17        18.6280   47.5080   23.0830 N.3       1 4061001     0.0000 
     18 C18        19.5410   46.7250   23.9420 C.3       1 4061001     0.0000 
     19 C19        19.2540   48.8230   22.6890 C.3       1 4061001     0.0000 
     20 N20        11.5450   62.0160   12.1620 N.ar      1 4061001     0.0000 
     21 C21        10.6260   61.3800   11.4130 C.ar      1 4061001     0.0000 
     22 N22        10.6700   60.1010   11.0160 N.ar      1 4061001     0.0000 
     23 C23        11.7450   59.3640   11.4040 C.ar      1 4061001     0.0000 
     24 C24        12.8520   59.9020   12.2290 C.ar      1 4061001     0.0000 
     25 C25        12.6290   61.3150   12.5630 C.ar      1 4061001     0.0000 
     26 C26        13.9470   59.1190   12.6150 C.ar      1 4061001     0.0000 
     27 N27        13.9940   57.8030   12.2150 N.ar      1 4061001     0.0000 
     28 C28        15.0140   57.0320   12.5580 C.ar      1 4061001     0.0000 
     29 N29        16.0610   57.4220   13.2720 N.ar      1 4061001     0.0000 
     30 C30        16.1060   58.7230   13.7210 C.ar      1 4061001     0.0000 
     31 C31        15.0700   59.6490   13.4250 C.ar      1 4061001     0.0000 
     32 N32        14.9480   55.7250   12.0930 N.pl3     1 4061001     0.0000 
     33 C33        15.7000   53.8490   13.3820 C.ar      1 4061001     0.0000 
     34 C34        16.6380   52.7710   13.6250 C.ar      1 4061001     0.0000 
     35 C35        17.7250   52.5870   12.7390 C.ar      1 4061001     0.0000 
     36 C36        17.8950   53.4590   11.6120 C.ar      1 4061001     0.0000 
     37 C37        16.9640   54.5200   11.3800 C.ar      1 4061001     0.0000 
     38 C38        15.8750   54.6970   12.2750 C.ar      1 4061001     0.0000 
     39 C39        17.2370   55.3920   10.1560 C.3       1 4061001     0.0000 
     40 N40        16.5330   51.8610   14.7350 N.am      1 4061001     0.0000 
     41 C41        15.6600   51.7530   15.7370 C.2       1 4061001     0.0000 
     42 O42        14.8550   52.6550   15.9710 O.2       1 4061001     0.0000 
     43 H          17.6569   49.8755   16.3679 H         1 4061001     0.0000 
     44 H          17.4538   47.9456   17.8584 H         1 4061001     0.0000 
     45 H          13.6158   50.8997   17.1180 H         1 4061001     0.0000 
     46 H          15.0387   46.1544   18.7069 H         1 4061001     0.0000 
     47 H          14.6064   47.1739   20.0903 H         1 4061001     0.0000 
     48 H          17.4965   46.5901   19.2217 H         1 4061001     0.0000 
     49 H          17.3512   44.6302   20.1755 H         1 4061001     0.0000 
     50 H          15.6859   44.9040   20.7159 H         1 4061001     0.0000 
     51 H          17.7625   44.7631   22.4152 H         1 4061001     0.0000 
     52 H          16.3861   45.8410   22.7044 H         1 4061001     0.0000 
     53 H          18.8873   46.4685   21.1909 H         1 4061001     0.0000 
     54 H          16.3376   47.9546   21.6079 H         1 4061001     0.0000 
     55 H          17.6743   48.4097   20.5374 H         1 4061001     0.0000 
     56 H           9.7625   61.9637   11.0997 H         1 4061001     0.0000 
     57 H          11.8415   58.3597   11.1311 H         1 4061001     0.0000 
     58 H          13.3782   61.7609   13.1456 H         1 4061001     0.0000 
     59 H          16.9075   59.0530   14.2903 H         1 4061001     0.0000 
     60 H          15.0697   60.5799   13.7217 H         1 4061001     0.0000 
     61 H          14.0655   55.4676   11.5149 H         1 4061001     0.0000 
     62 H          14.9220   53.9755   14.0235 H         1 4061001     0.0000 
     63 H          18.3949   51.8351   12.8936 H         1 4061001     0.0000 
     64 H          18.6770   53.3212   10.9803 H         1 4061001     0.0000 
     65 H          17.3646   51.1076   14.7251 H         1 4061001     0.0000 
     66 H          20.3601   46.4356   23.4466 H         1 4061001     0.0000 
     67 H          19.8485   47.2518   24.7344 H         1 4061001     0.0000 
     68 H          19.1027   45.8974   24.2925 H         1 4061001     0.0000 
     69 H          19.6171   49.3136   23.4811 H         1 4061001     0.0000 
     70 H          20.0125   48.6965   22.0497 H         1 4061001     0.0000 
     71 H          18.5947   49.4300   22.2452 H         1 4061001     0.0000 
     72 H          18.1296   55.8396   10.2105 H         1 4061001     0.0000 
     73 H          17.2278   54.8584    9.3103 H         1 4061001     0.0000 
     74 H          16.5527   56.1141   10.0544 H         1 4061001     0.0000 
@<TRIPOS>BOND
     1    2    1 ar   
     2    6    1 ar   
     3   41    1 1    
     4    3    2 ar   
     5   43    2 1    
     6    4    3 ar   
     7   44    3 1    
     8    5    4 ar   
     9   11    4 1    
    10    6    5 ar   
    11    7    5 1    
    12   45    6 1    
    13    8    7 1    
    14    9    7 1    
    15   10    7 1    
    16   12   11 1    
    17   46   11 1    
    18   47   11 1    
    19   13   12 1    
    20   16   12 1    
    21   48   12 1    
    22   14   13 1    
    23   49   13 1    
    24   50   13 1    
    25   15   14 1    
    26   51   14 1    
    27   52   14 1    
    28   16   15 1    
    29   17   15 1    
    30   53   15 1    
    31   54   16 1    
    32   55   16 1    
    33   18   17 1    
    34   19   17 1    
    35   66   18 1    
    36   67   18 1    
    37   68   18 1    
    38   69   19 1    
    39   70   19 1    
    40   71   19 1    
    41   21   20 ar   
    42   25   20 ar   
    43   22   21 ar   
    44   56   21 1    
    45   23   22 ar   
    46   24   23 ar   
    47   57   23 1    
    48   25   24 ar   
    49   26   24 1    
    50   58   25 1    
    51   27   26 ar   
    52   31   26 ar   
    53   28   27 ar   
    54   29   28 ar   
    55   32   28 1    
    56   30   29 ar   
    57   31   30 ar   
    58   59   30 1    
    59   60   31 1    
    60   38   32 1    
    61   61   32 1    
    62   34   33 ar   
    63   38   33 ar   
    64   62   33 1    
    65   35   34 ar   
    66   40   34 1    
    67   36   35 ar   
    68   63   35 1    
    69   37   36 ar   
    70   64   36 1    
    71   38   37 ar   
    72   39   37 1    
    73   72   39 1    
    74   73   39 1    
    75   74   39 1    
    76   41   40 am   
    77   65   40 1    
    78   42   41 2    
@<TRIPOS>SUBSTRUCTURE
     1 4061001     1 GROUP   
@<TRIPOS>SET

