#    Name: 4g17_0VN_1_INTS_M
#    Modification time : Mon Mar 24 21:09:10 2014

@<TRIPOS>MOLECULE
4g17_0VN_1_INTS_M
   65     0     9     0     0
SMALL
NO_CHARGES


@<TRIPOS>ATOM
      1 CA         35.3260  -13.1010   29.9900 C.3       3 GLC5        0.0000 
      2 CA         37.0590  -13.4390   29.0340 C.3       9 GLL5        0.0000 
      3 CA         33.5930  -12.7630   30.9460 C.3       6 GLP5        0.0000 
      4 CA         36.5065  -10.4825   27.0935 C.3       3 GLC5        0.0000 
      5 CA         38.0990  -11.3010   28.1680 C.3       9 GLL5        0.0000 
      6 CA         34.9140   -9.6640   26.0190 C.3       6 GLP5        0.0000 
      7 N          35.9340  -14.0780   31.0685 N.am      2 SEC2        0.0000 
      8 N          36.4700  -14.3710   29.8700 N.am      8 SEL2        0.0000 
      9 N          35.3980  -13.7850   32.2670 N.am      5 SEP2        0.0000 
     10 O          34.8295  -16.3555   30.7695 O.2       1 ALC1        0.0000 
     11 O          35.6250  -16.6230   29.6770 O.2       7 ALL1        0.0000 
     12 O          34.0340  -16.0880   31.8620 O.2       4 ALP1        0.0000 
     13 CA         40.0485  -10.8945   27.4710 C.3       3 GLC5        0.0000 
     14 CA         38.8110  -11.2910   25.8100 C.3       9 GLL5        0.0000 
     15 CA         41.2860  -10.4980   29.1320 C.3       6 GLP5        0.0000 
     16 CA         38.1725  -19.5800   27.7200 C.3       3 GLC5        0.0000 
     17 CA         36.0230  -19.5890   27.5820 C.3       9 GLL5        0.0000 
     18 CA         40.3220  -19.5710   27.8580 C.3       6 GLP5        0.0000 
     19 CA         36.9710  -20.4335   25.8750 C.3       3 GLC5        0.0000 
     20 CA         37.9190  -21.2780   24.1680 C.3       6 GLP5        0.0000 
     21 CA         38.2575  -18.6145   28.6840 C.3       3 GLC5        0.0000 
     22 CA         36.3530  -18.3500   28.1870 C.3       9 GLL5        0.0000 
     23 CA         40.1620  -18.8790   29.1810 C.3       6 GLP5        0.0000 
     24 CA         32.6730  -17.3240   30.3755 C.3       3 GLC5        0.0000 
     25 CA         34.0410  -18.3510   29.4640 C.3       9 GLL5        0.0000 
     26 CA         31.3050  -16.2970   31.2870 C.3       6 GLP5        0.0000 
     27 CA         31.1505  -20.3815   27.3430 C.3       3 GLC5        0.0000 
     28 CA         32.8310  -21.6430   26.7810 C.3       9 GLL5        0.0000 
     29 CA         29.4700  -19.1200   27.9050 C.3       6 GLP5        0.0000 
     30 CA         31.7595  -22.8790   27.5390 C.3       3 GLC5        0.0000 
     31 CA         30.6880  -24.1150   28.2970 C.3       6 GLP5        0.0000 
     32 CA         32.6895  -23.4125   28.2390 C.3       3 GLC5        0.0000 
     33 CA         34.6910  -22.7100   28.1810 C.3       9 GLL5        0.0000 
     34 CA         34.0750  -22.8745   30.1010 C.3       3 GLC5        0.0000 
     35 CA         33.4590  -23.0390   32.0210 C.3       6 GLP5        0.0000 
     36 CA         35.7190  -21.7345   29.5905 C.3       3 GLC5        0.0000 
     37 CA         36.7470  -20.7590   31.0000 C.3       6 GLP5        0.0000 
     38 CA         36.5225  -21.5615   25.0170 C.3       3 GLC5        0.0000 
     39 CA         35.1260  -21.8450   25.8660 C.3       9 GLL5        0.0000 
     40 CA         39.9835  -13.0705   25.8978 C.3       3 GLC5        0.0000 
     41 CA         38.2090  -11.9990   26.8590 C.3       9 GLL5        0.0000 
     42 CA         41.4570  -14.4960   25.4610 C.3       6 GLP5        0.0000 
     43 CA         38.6407  -15.0583   26.4555 C.3       3 GLC5        0.0000 
     44 CA         37.7720  -13.3880   26.5570 C.3       9 GLL5        0.0000 
     45 CA         39.8050  -16.3640   25.7890 C.3       6 GLP5        0.0000 
     46 CA         38.8065  -13.7985   29.3833 C.3       3 GLC5        0.0000 
     47 CA         37.1810  -14.1170   27.6870 C.3       9 GLL5        0.0000 
     48 CA         40.4930  -13.8190   30.4060 C.3       6 GLP5        0.0000 
     49 CA         37.3967  -13.1615   31.3038 C.3       3 GLC5        0.0000 
     50 CA         37.5100  -13.5800   33.4510 C.3       6 GLP5        0.0000 
     51 CA         35.4344  -13.6724   27.5870 C.3       3 GLC5        0.0000 
     52 CA         33.6010  -13.7490   27.0960 C.3       6 GLP5        0.0000 
     53 CA         39.1483  -12.7465   29.5648 C.3       3 GLC5        0.0000 
     54 CA         37.5080  -12.0470   29.2790 C.3       9 GLL5        0.0000 
     55 CA         39.5585  -11.1732   28.7641 C.3       3 GLC5        0.0000 
     56 CA         35.9027  -11.1685   29.1883 C.3       3 GLC5        0.0000 
     57 CA         34.0020  -10.6630   29.6530 C.3       6 GLP5        0.0000 
     58 CA         36.9154  -11.8976   25.0575 C.3       3 GLC5        0.0000 
     59 CA         35.4300  -11.8030   23.8560 C.3       6 GLP5        0.0000 
     60 CA         36.0563  -20.3283   29.3740 C.3       3 GLC5        0.0000 
     61 CA         36.2982  -19.4162   29.8195 C.3       3 GLC5        0.0000 
     62 CA         32.1110  -18.4267   28.5355 C.3       3 GLC5        0.0000 
     63 CA         30.3510  -17.8720   27.9120 C.3       6 GLP5        0.0000 
     64 CA         35.3090  -19.8702   30.0795 C.3       3 GLC5        0.0000 
     65 CA         33.7010  -19.6120   28.8540 C.3       9 GLL5        0.0000 
@<TRIPOS>BOND
@<TRIPOS>SUBSTRUCTURE
     1 ALC1       10 GROUP        1 X    ALC  0     ROOT ALC X 1
     2 SEC2        7 GROUP        1 X    SEC  0     **** SEC X 2
     3 GLC5        1 GROUP        1 X    GLC  0     **** GLC X 6
     4 ALP1       12 GROUP        1 Y    ALP  0     ROOT ALP Y 8
     5 SEP2        9 GROUP        1 Y    SEP  0     **** SEP Y 9
     6 GLP5        3 GROUP        1 Y    GLP  0     **** GLP Y 13
     7 ALL1       11 GROUP        1 Z    ALL  0     ROOT ALL Z 15
     8 SEL2        8 GROUP        1 Z    SEL  0     **** SEL Z 16
     9 GLL5        2 GROUP        1 Z    GLL  0     **** GLL Z 20
@<TRIPOS>SET

