#    Name: 4g17_0VN_1_ligand
#    Modification time : Mon Mar 24 21:09:10 2014

@<TRIPOS>MOLECULE
4g17_0VN_1_ligand
   40    42     1     0     0
SMALL
NO_CHARGES


@<TRIPOS>ATOM
      1 C4         38.2090  -11.9990   26.8590 C.ar      1 0VN401      0.0000 
      2 C5         37.7720  -13.3880   26.5570 C.ar      1 0VN401      0.0000 
      3 C6         37.1810  -14.1170   27.6870 C.ar      1 0VN401      0.0000 
      4 C8         37.0590  -13.4390   29.0340 C.ar      1 0VN401      0.0000 
      5 C9         37.5080  -12.0470   29.2790 C.ar      1 0VN401      0.0000 
      6 C10        38.0990  -11.3010   28.1680 C.ar      1 0VN401      0.0000 
      7 N3         36.6610  -15.3770   27.8340 N.pl3     1 0VN401      0.0000 
      8 C11        36.2690  -15.4490   29.1190 C.2       1 0VN401      0.0000 
      9 N4         36.4700  -14.3710   29.8700 N.2       1 0VN401      0.0000 
     10 N1         35.6250  -16.6230   29.6770 N.pl3     1 0VN401      0.0000 
     11 C7         38.8110  -11.2910   25.8100 C.1       1 0VN401      0.0000 
     12 N2         39.2560  -10.7250   24.9180 N.1       1 0VN401      0.0000 
     13 C12        34.7080  -20.2060   27.9140 C.ar      1 0VN401      0.0000 
     14 C13        36.0230  -19.5890   27.5820 C.ar      1 0VN401      0.0000 
     15 C14        36.3530  -18.3500   28.1870 C.ar      1 0VN401      0.0000 
     16 C15        35.3460  -17.7970   29.0910 C.ar      1 0VN401      0.0000 
     17 C16        34.0410  -18.3510   29.4640 C.ar      1 0VN401      0.0000 
     18 C17        33.7010  -19.6120   28.8540 C.ar      1 0VN401      0.0000 
     19 C18        34.3590  -21.5640   27.2110 C.3       1 0VN401      0.0000 
     20 C1         32.8310  -21.6430   26.7810 C.3       1 0VN401      0.0000 
     21 C2         34.6910  -22.7100   28.1810 C.3       1 0VN401      0.0000 
     22 C3         35.1260  -21.8450   25.8660 C.3       1 0VN401      0.0000 
     23 H          37.8731  -13.7742   25.6798 H         1 0VN401      0.0000 
     24 H          37.4064  -11.6410   30.1751 H         1 0VN401      0.0000 
     25 H          38.4132  -10.3781   28.2704 H         1 0VN401      0.0000 
     26 H          36.5986  -16.0396   27.1675 H         1 0VN401      0.0000 
     27 H          35.3415  -16.4943   30.7256 H         1 0VN401      0.0000 
     28 H          36.6294  -20.0594   26.9496 H         1 0VN401      0.0000 
     29 H          37.1973  -17.8771   28.0234 H         1 0VN401      0.0000 
     30 H          33.4494  -17.8870   30.0860 H         1 0VN401      0.0000 
     31 H          32.8588  -20.0811   29.0273 H         1 0VN401      0.0000 
     32 H          32.5873  -20.9148   26.1404 H         1 0VN401      0.0000 
     33 H          32.6154  -22.5111   26.3338 H         1 0VN401      0.0000 
     34 H          32.2190  -21.5585   27.5674 H         1 0VN401      0.0000 
     35 H          35.6580  -22.7125   28.4358 H         1 0VN401      0.0000 
     36 H          34.1647  -22.6433   29.0287 H         1 0VN401      0.0000 
     37 H          34.4908  -23.6046   27.7814 H         1 0VN401      0.0000 
     38 H          36.1163  -21.8727   26.0020 H         1 0VN401      0.0000 
     39 H          34.8608  -22.7211   25.4633 H         1 0VN401      0.0000 
     40 H          34.9439  -21.1402   25.1804 H         1 0VN401      0.0000 
@<TRIPOS>BOND
     1    2    1 ar   
     2    6    1 ar   
     3   11    1 1    
     4    3    2 ar   
     5   23    2 1    
     6    4    3 ar   
     7    7    3 1    
     8    5    4 ar   
     9    9    4 1    
    10    6    5 ar   
    11   24    5 1    
    12   25    6 1    
    13    8    7 1    
    14   26    7 1    
    15    9    8 2    
    16   10    8 1    
    17   16   10 1    
    18   27   10 1    
    19   12   11 3    
    20   14   13 ar   
    21   18   13 ar   
    22   19   13 1    
    23   15   14 ar   
    24   28   14 1    
    25   16   15 ar   
    26   29   15 1    
    27   17   16 ar   
    28   18   17 ar   
    29   30   17 1    
    30   31   18 1    
    31   20   19 1    
    32   21   19 1    
    33   22   19 1    
    34   32   20 1    
    35   33   20 1    
    36   34   20 1    
    37   35   21 1    
    38   36   21 1    
    39   37   21 1    
    40   38   22 1    
    41   39   22 1    
    42   40   22 1    
@<TRIPOS>SUBSTRUCTURE
     1 0VN401      1 GROUP   
@<TRIPOS>SET

