#    Name: 1g2k_NM1_1_INTS_M
#    Modification time : Tue Mar 25 02:24:23 2014

@<TRIPOS>MOLECULE
1g2k_NM1_1_INTS_M
  107     0     9     0     0
SMALL
NO_CHARGES


@<TRIPOS>ATOM
      1 CA         13.1485   22.8055    2.2510 C.3       3 GLC5        0.0000 
      2 CA         14.0220   23.6050    4.1440 C.3       9 GLL5        0.0000 
      3 CA         12.2750   22.0060    0.3580 C.3       6 GLP5        0.0000 
      4 CA          8.8890   22.6550    6.2895 C.3       3 GLC5        0.0000 
      5 CA         10.1700   24.1890    6.5190 C.3       9 GLL5        0.0000 
      6 CA          7.6080   21.1210    6.0600 C.3       6 GLP5        0.0000 
      7 CA         10.2090   27.8835    6.0560 C.3       3 GLC5        0.0000 
      8 CA          8.8250   26.2930    6.8150 C.3       9 GLL5        0.0000 
      9 CA         11.5930   29.4740    5.2970 C.3       6 GLP5        0.0000 
     10 CA         11.1225   27.1215   10.7870 C.3       3 GLC5        0.0000 
     11 CA         10.5270   27.0760    8.9870 C.3       9 GLL5        0.0000 
     12 CA         11.7180   27.1670   12.5870 C.3       6 GLP5        0.0000 
     13 CA         12.5685   27.6455    9.2610 C.3       3 GLC5        0.0000 
     14 CA         14.6100   28.2150    9.5350 C.3       6 GLP5        0.0000 
     15 CA         12.4700   25.5420    9.3030 C.3       3 GLC5        0.0000 
     16 CA         10.7450   25.8490    8.3020 C.3       9 GLL5        0.0000 
     17 CA         14.1950   25.2350   10.3040 C.3       6 GLP5        0.0000 
     18 N          10.1090   20.2195    5.4790 N.am      2 SEC2        0.0000 
     19 N          11.2360   21.1560    5.5990 N.am      8 SEL2        0.0000 
     20 N           8.9820   19.2830    5.3590 N.am      5 SEP2        0.0000 
     21 CA         16.8125   16.1315    3.6270 C.3       3 GLC5        0.0000 
     22 CA         17.8750   18.0980    3.8300 C.3       9 GLL5        0.0000 
     23 CA         15.7500   14.1650    3.4240 C.3       6 GLP5        0.0000 
     24 CA         17.3875   15.6625    2.4665 C.3       3 GLC5        0.0000 
     25 CA         17.9430   17.6050    2.4890 C.3       9 GLL5        0.0000 
     26 CA         16.8320   13.7200    2.4440 C.3       6 GLP5        0.0000 
     27 CA         13.0355   21.8415   10.0215 C.3       3 GLC5        0.0000 
     28 CA         14.6980   21.1220    9.0830 C.3       9 GLL5        0.0000 
     29 CA         11.3730   22.5610   10.9600 C.3       6 GLP5        0.0000 
     30 CA         15.0970   19.8545   11.7155 C.3       3 GLC5        0.0000 
     31 CA         15.5880   20.2940    9.8420 C.3       9 GLL5        0.0000 
     32 CA         14.6060   19.4150   13.5890 C.3       6 GLP5        0.0000 
     33 N          14.7275   24.6275    2.9500 N.am      2 SEC2        0.0000 
     34 N          15.3200   24.1020    4.3950 N.am      8 SEL2        0.0000 
     35 N          14.1350   25.1530    1.5050 N.am      5 SEP2        0.0000 
     36 O          15.2335   25.2805    5.3635 O.2       1 ALC1        0.0000 
     37 O          15.3200   24.1020    4.3950 O.2       7 ALL1        0.0000 
     38 O          15.1470   26.4590    6.3320 O.2       4 ALP1        0.0000 
     39 N          13.7045   25.4925    2.6595 N.am      2 SEC2        0.0000 
     40 N          13.2740   25.8320    3.8140 N.am      8 SEL2        0.0000 
     41 O          14.2710   26.7250    4.1435 O.2       1 ALC1        0.0000 
     42 O          13.2740   25.8320    3.8140 O.2       7 ALL1        0.0000 
     43 O          15.2680   27.6180    4.4730 O.2       4 ALP1        0.0000 
     44 O          14.2105   26.1455    5.0730 O.2       1 ALC1        0.0000 
     45 CA         11.5940   22.7360    1.9140 C.3       3 GLC5        0.0000 
     46 CA         10.9130   23.4660    3.4700 C.3       9 GLL5        0.0000 
     47 CA          7.4605   22.5770    4.3835 C.3       3 GLC5        0.0000 
     48 CA          7.3130   24.0330    2.7070 C.3       9 GLL5        0.0000 
     49 CA          7.9850   23.9600    0.7595 C.3       3 GLC5        0.0000 
     50 CA          8.6570   23.8870   -1.1880 C.3       6 GLP5        0.0000 
     51 N          11.4840   20.9615    8.7955 N.am      2 SEC2        0.0000 
     52 N          11.5840   22.1020    7.8880 N.am      8 SEL2        0.0000 
     53 N          11.3840   19.8210    9.7030 N.am      5 SEP2        0.0000 
     54 CA         13.7120   19.8445    3.6835 C.3       3 GLC5        0.0000 
     55 CA         15.0820   21.3320    4.6000 C.3       9 GLL5        0.0000 
     56 CA         12.3420   18.3570    2.7670 C.3       6 GLP5        0.0000 
     57 CA         16.2050   21.7410    3.0270 C.3       3 GLC5        0.0000 
     58 CA         17.3280   22.1500    1.4540 C.3       6 GLP5        0.0000 
     59 N           8.4000   30.8840    7.4370 N.am      2 SEC2        0.0000 
     60 N           7.6600   29.6620    7.0840 N.am      8 SEL2        0.0000 
     61 N           9.1400   32.1060    7.7900 N.am      5 SEP2        0.0000 
     62 CA          6.3690   30.5085    5.7375 C.3       3 GLC5        0.0000 
     63 CA          5.2360   28.7840    6.2470 C.3       9 GLL5        0.0000 
     64 CA          7.5020   32.2330    5.2280 C.3       6 GLP5        0.0000 
     65 CA         10.6519   25.1677    9.7903 C.3       3 GLC5        0.0000 
     66 CA         10.8810   23.9710   11.2070 C.3       6 GLP5        0.0000 
     67 CA         14.1255   18.7815    2.6603 C.3       3 GLC5        0.0000 
     68 CA         15.8640   19.4590    3.2220 C.3       9 GLL5        0.0000 
     69 CA         17.8567   20.4303    3.2830 C.3       3 GLC5        0.0000 
     70 CA         16.8400   19.0170    4.1900 C.3       9 GLL5        0.0000 
     71 CA         18.3560   22.3030    2.5560 C.3       6 GLP5        0.0000 
     72 CA         19.9280   18.4207    3.0762 C.3       3 GLC5        0.0000 
     73 CA         21.9470   18.9900    2.9930 C.3       6 GLP5        0.0000 
     74 CA         18.5880   17.3568    0.6245 C.3       3 GLC5        0.0000 
     75 CA         19.7120   16.8960   -0.7540 C.3       6 GLP5        0.0000 
     76 CA         16.8875   20.3840    1.7446 C.3       3 GLC5        0.0000 
     77 CA         16.9850   18.0300    1.5170 C.3       9 GLL5        0.0000 
     78 CA         15.6557   17.8197    0.3035 C.3       3 GLC5        0.0000 
     79 CA         15.9540   18.9530    1.8850 C.3       9 GLL5        0.0000 
     80 CA         14.8420   17.1480   -1.0940 C.3       6 GLP5        0.0000 
     81 CA         15.3217   16.7638    1.6630 C.3       3 GLC5        0.0000 
     82 CA         14.1740   15.0360    1.6250 C.3       6 GLP5        0.0000 
     83 CA         15.9973   22.2188   10.3498 C.3       3 GLC5        0.0000 
     84 CA         15.2130   22.0330    8.1100 C.3       9 GLL5        0.0000 
     85 CA         17.0390   22.8600   12.1030 C.3       6 GLP5        0.0000 
     86 CA         14.4575   23.5144    9.3498 C.3       3 GLC5        0.0000 
     87 CA         16.6677   21.5983   10.9185 C.3       3 GLC5        0.0000 
     88 CA         13.8979   19.7159    8.6191 C.3       3 GLC5        0.0000 
     89 CA         12.5240   18.4960    8.0190 C.3       6 GLP5        0.0000 
     90 CA         18.1908   23.3417    8.2655 C.3       3 GLC5        0.0000 
     91 CA         16.6340   22.1150    7.9010 C.3       9 GLL5        0.0000 
     92 CA         19.2990   24.9790    8.2540 C.3       6 GLP5        0.0000 
     93 CA         17.0607   22.2822   10.1900 C.3       3 GLC5        0.0000 
     94 CA          9.8730   26.6955    0.8255 C.3       3 GLC5        0.0000 
     95 CA          9.1160   25.7120    2.6050 C.3       9 GLL5        0.0000 
     96 CA         11.0660   27.2260   -0.6180 C.3       6 GLP5        0.0000 
     97 CA          8.6116   24.8621    0.5903 C.3       3 GLC5        0.0000 
     98 CA          8.2440   26.6180    1.9330 C.3       9 GLL5        0.0000 
     99 CA          6.4760   24.9573    0.0020 C.3       3 GLC5        0.0000 
    100 CA          6.9000   26.2300    1.6530 C.3       9 GLL5        0.0000 
    101 CA          6.2860   24.3280   -1.8410 C.3       6 GLP5        0.0000 
    102 CA          6.4172   22.7980    1.9015 C.3       3 GLC5        0.0000 
    103 CA          6.4320   24.9430    2.0370 C.3       9 GLL5        0.0000 
    104 CA          5.9620   21.1080    1.4310 C.3       6 GLP5        0.0000 
    105 CA         10.9942   28.1090    7.4174 C.3       3 GLC5        0.0000 
    106 CA          9.4560   27.9140    8.5820 C.3       9 GLL5        0.0000 
    107 CA         12.2630   29.1770    6.6300 C.3       6 GLP5        0.0000 
@<TRIPOS>BOND
@<TRIPOS>SUBSTRUCTURE
     1 ALC1       36 GROUP        1 X    ALC  0     ROOT ALC X 1
     2 SEC2       18 GROUP        1 X    SEC  0     **** SEC X 2
     3 GLC5        1 GROUP        1 X    GLC  0     **** GLC X 6
     4 ALP1       38 GROUP        1 Y    ALP  0     ROOT ALP Y 8
     5 SEP2       20 GROUP        1 Y    SEP  0     **** SEP Y 9
     6 GLP5        3 GROUP        1 Y    GLP  0     **** GLP Y 13
     7 ALL1       37 GROUP        1 Z    ALL  0     ROOT ALL Z 15
     8 SEL2       19 GROUP        1 Z    SEL  0     **** SEL Z 16
     9 GLL5        2 GROUP        1 Z    GLL  0     **** GLL Z 20
@<TRIPOS>SET

