#    Name: 1g2k_NM1_1_ligand
#    Modification time : Tue Mar 25 02:24:23 2014

@<TRIPOS>MOLECULE
1g2k_NM1_1_ligand
   82    86     1     0     0
SMALL
NO_CHARGES


@<TRIPOS>ATOM
      1 N01        11.3490   23.7090    5.9420 N.pl3     1 NM1501      0.0000 
      2 S02        11.8060   22.2030    6.4460 S.o2      1 NM1501      0.0000 
      3 N03        13.4310   22.2920    6.2150 N.pl3     1 NM1501      0.0000 
      4 C04        13.8510   22.2230    4.7960 C.3       1 NM1501      0.0000 
      5 C05        14.0220   23.6050    4.1440 C.3       1 NM1501      0.0000 
      6 C06        13.0480   24.6790    4.6150 C.3       1 NM1501      0.0000 
      7 C07        11.5560   24.3030    4.6100 C.3       1 NM1501      0.0000 
      8 C08        10.1700   24.1890    6.5190 C.3       1 NM1501      0.0000 
      9 C09         9.8920   25.4570    7.2180 C.ar      1 NM1501      0.0000 
     10 C10         8.8250   26.2930    6.8150 C.ar      1 NM1501      0.0000 
     11 C11         8.6000   27.5210    7.4900 C.ar      1 NM1501      0.0000 
     12 C12         9.4560   27.9140    8.5820 C.ar      1 NM1501      0.0000 
     13 C13        10.5270   27.0760    8.9870 C.ar      1 NM1501      0.0000 
     14 C14        10.7450   25.8490    8.3020 C.ar      1 NM1501      0.0000 
     15 O15        11.2360   21.1560    5.5990 O.2       1 NM1501      0.0000 
     16 O16        14.8540   20.3500    3.5600 O.3       1 NM1501      0.0000 
     17 C17        15.8640   19.4590    3.2220 C.ar      1 NM1501      0.0000 
     18 C18        16.8400   19.0170    4.1900 C.ar      1 NM1501      0.0000 
     19 C19        17.8750   18.0980    3.8300 C.ar      1 NM1501      0.0000 
     20 C20        17.9430   17.6050    2.4890 C.ar      1 NM1501      0.0000 
     21 C21        16.9850   18.0300    1.5170 C.ar      1 NM1501      0.0000 
     22 C22        15.9540   18.9530    1.8850 C.ar      1 NM1501      0.0000 
     23 C23        14.2710   22.8980    7.3060 C.3       1 NM1501      0.0000 
     24 C24        15.2130   22.0330    8.1100 C.ar      1 NM1501      0.0000 
     25 C25        14.6980   21.1220    9.0830 C.ar      1 NM1501      0.0000 
     26 C26        15.5880   20.2940    9.8420 C.ar      1 NM1501      0.0000 
     27 C27        17.0050   20.3790    9.6260 C.ar      1 NM1501      0.0000 
     28 C28        17.5310   21.2940    8.6530 C.ar      1 NM1501      0.0000 
     29 C29        16.6340   22.1150    7.9010 C.ar      1 NM1501      0.0000 
     30 O30        15.3200   24.1020    4.3950 O.3       1 NM1501      0.0000 
     31 O31        13.2740   25.8320    3.8140 O.3       1 NM1501      0.0000 
     32 C32        10.9130   23.4660    3.4700 C.3       1 NM1501      0.0000 
     33 O33         9.4720   23.5050    3.6580 O.3       1 NM1501      0.0000 
     34 C34         8.6610   24.4010    3.0030 C.ar      1 NM1501      0.0000 
     35 C35         9.1160   25.7120    2.6050 C.ar      1 NM1501      0.0000 
     36 C36         8.2440   26.6180    1.9330 C.ar      1 NM1501      0.0000 
     37 C37         6.9000   26.2300    1.6530 C.ar      1 NM1501      0.0000 
     38 C38         6.4320   24.9430    2.0370 C.ar      1 NM1501      0.0000 
     39 C39         7.3130   24.0330    2.7070 C.ar      1 NM1501      0.0000 
     40 O40        11.5840   22.1020    7.8880 O.2       1 NM1501      0.0000 
     41 C41        15.0820   21.3320    4.6000 C.3       1 NM1501      0.0000 
     42 C51         7.4870   28.4170    7.0500 C.2       1 NM1501      0.0000 
     43 O52         7.6600   29.6620    7.0840 O.2       1 NM1501      0.0000 
     44 N53         6.2900   27.8680    6.6330 N.am      1 NM1501      0.0000 
     45 C54         5.2360   28.7840    6.2470 C.3       1 NM1501      0.0000 
     46 H          13.0173   21.7171    4.2245 H         1 NM1501      0.0000 
     47 H          13.8816   23.4869    3.0617 H         1 NM1501      0.0000 
     48 H          13.3222   24.9244    5.6630 H         1 NM1501      0.0000 
     49 H          11.0000   25.2957    4.6518 H         1 NM1501      0.0000 
     50 H           9.7423   23.3329    7.2449 H         1 NM1501      0.0000 
     51 H           9.2939   24.0841    5.7039 H         1 NM1501      0.0000 
     52 H           8.2200   26.0174    6.0448 H         1 NM1501      0.0000 
     53 H           9.2832   28.7962    9.0566 H         1 NM1501      0.0000 
     54 H          11.1296   27.3471    9.7543 H         1 NM1501      0.0000 
     55 H          11.5135   25.2388    8.5803 H         1 NM1501      0.0000 
     56 H          16.7853   19.3701    5.1465 H         1 NM1501      0.0000 
     57 H          18.5533   17.7991    4.5178 H         1 NM1501      0.0000 
     58 H          18.6752   16.9502    2.2268 H         1 NM1501      0.0000 
     59 H          17.0346   17.6785    0.5665 H         1 NM1501      0.0000 
     60 H          15.2744   19.2544    1.1858 H         1 NM1501      0.0000 
     61 H          13.5806   23.4339    8.0309 H         1 NM1501      0.0000 
     62 H          14.8720   23.7519    6.8600 H         1 NM1501      0.0000 
     63 H          13.6947   21.0595    9.2391 H         1 NM1501      0.0000 
     64 H          15.2190   19.6489   10.5306 H         1 NM1501      0.0000 
     65 H          17.6347   19.7919   10.1615 H         1 NM1501      0.0000 
     66 H          18.5286   21.3555    8.5025 H         1 NM1501      0.0000 
     67 H          17.0012   22.7662    7.2089 H         1 NM1501      0.0000 
     68 H          11.3000   22.4590    3.5420 H         1 NM1501      0.0000 
     69 H          11.2072   23.9100    2.5290 H         1 NM1501      0.0000 
     70 H          10.0769   25.9869    2.8111 H         1 NM1501      0.0000 
     71 H           8.5775   27.5348    1.6550 H         1 NM1501      0.0000 
     72 H           6.2752   26.8780    1.1766 H         1 NM1501      0.0000 
     73 H           5.4758   24.6650    1.8388 H         1 NM1501      0.0000 
     74 H           6.9705   23.1090    2.9758 H         1 NM1501      0.0000 
     75 H          15.3042   20.8485    5.5612 H         1 NM1501      0.0000 
     76 H          15.9324   21.9822    4.3530 H         1 NM1501      0.0000 
     77 H           6.1258   26.8807    6.5881 H         1 NM1501      0.0000 
     78 H           4.9722   29.3856    7.0010 H         1 NM1501      0.0000 
     79 H           5.5143   29.3714    5.4870 H         1 NM1501      0.0000 
     80 H           4.4110   28.2995    5.9561 H         1 NM1501      0.0000 
     81 H          15.1776   24.9586    4.8908 H         1 NM1501      0.0000 
     82 H          13.9336   26.3795    4.3290 H         1 NM1501      0.0000 
@<TRIPOS>BOND
     1    2    1 1    
     2    7    1 1    
     3    8    1 1    
     4    3    2 1    
     5   15    2 2    
     6   40    2 2    
     7    4    3 1    
     8   23    3 1    
     9    5    4 1    
    10   41    4 1    
    11   46    4 1    
    12    6    5 1    
    13   30    5 1    
    14   47    5 1    
    15    7    6 1    
    16   31    6 1    
    17   48    6 1    
    18   32    7 1    
    19   49    7 1    
    20    9    8 1    
    21   50    8 1    
    22   51    8 1    
    23   10    9 ar   
    24   14    9 ar   
    25   11   10 ar   
    26   52   10 1    
    27   12   11 ar   
    28   42   11 1    
    29   13   12 ar   
    30   53   12 1    
    31   14   13 ar   
    32   54   13 1    
    33   55   14 1    
    34   17   16 1    
    35   41   16 1    
    36   18   17 ar   
    37   22   17 ar   
    38   19   18 ar   
    39   56   18 1    
    40   20   19 ar   
    41   57   19 1    
    42   21   20 ar   
    43   58   20 1    
    44   22   21 ar   
    45   59   21 1    
    46   60   22 1    
    47   24   23 1    
    48   61   23 1    
    49   62   23 1    
    50   25   24 ar   
    51   29   24 ar   
    52   26   25 ar   
    53   63   25 1    
    54   27   26 ar   
    55   64   26 1    
    56   28   27 ar   
    57   65   27 1    
    58   29   28 ar   
    59   66   28 1    
    60   67   29 1    
    61   81   30 1    
    62   82   31 1    
    63   33   32 1    
    64   68   32 1    
    65   69   32 1    
    66   34   33 1    
    67   35   34 ar   
    68   39   34 ar   
    69   36   35 ar   
    70   70   35 1    
    71   37   36 ar   
    72   71   36 1    
    73   38   37 ar   
    74   72   37 1    
    75   39   38 ar   
    76   73   38 1    
    77   74   39 1    
    78   75   41 1    
    79   76   41 1    
    80   43   42 2    
    81   44   42 am   
    82   45   44 1    
    83   77   44 1    
    84   78   45 1    
    85   79   45 1    
    86   80   45 1    
@<TRIPOS>SUBSTRUCTURE
     1 NM1501      1 GROUP   
@<TRIPOS>SET

