#    Name: 3hwx_TPP_1_INTS_M
#    Modification time : Tue Mar 25 15:14:08 2014

@<TRIPOS>MOLECULE
3hwx_TPP_1_INTS_M
   90     0    12     0     0
SMALL
NO_CHARGES


@<TRIPOS>ATOM
      1 N          -7.6105   14.5420  -79.5645 N.am      2 SEC2        0.0000 
      2 N          -6.3280   14.0990  -78.9140 N.am     10 SEL2        0.0000 
      3 N          -8.8930   14.9850  -80.2150 N.am      6 SEP2        0.0000 
      4 CA         -7.0295   15.3725  -77.6040 C.3       4 GLC5        0.0000 
      5 CA         -5.3050   14.5520  -78.1380 C.3      12 GLL5        0.0000 
      6 CA         -8.7540   16.1930  -77.0700 C.3       8 GLP5        0.0000 
      7 CA         -6.5125   16.7540  -77.6315 C.3       4 GLC5        0.0000 
      8 CA         -4.9170   15.9730  -78.3050 C.3      12 GLL5        0.0000 
      9 CA         -8.1080   17.5350  -76.9580 C.3       8 GLP5        0.0000 
     10 CA         -3.6190   17.0550  -78.9185 C.3       4 GLC5        0.0000 
     11 CA         -2.3210   18.1370  -79.5320 C.3       8 GLP5        0.0000 
     12 CA         -4.7640   16.1635  -80.1755 C.3       4 GLC5        0.0000 
     13 CA         -4.6110   16.3540  -82.0460 C.3       8 GLP5        0.0000 
     14 N          -3.0785   13.8135  -77.5460 N.am      2 SEC2        0.0000 
     15 N          -4.6640   13.7260  -77.2330 N.am     10 SEL2        0.0000 
     16 N          -1.4930   13.9010  -77.8590 N.am      6 SEP2        0.0000 
     17 CA         -3.4210   13.6275  -76.3775 C.3       4 GLC5        0.0000 
     18 CA         -5.0510   12.4110  -77.1180 C.3      12 GLL5        0.0000 
     19 CA         -1.7910   14.8440  -75.6370 C.3       8 GLP5        0.0000 
     20 O          -5.0690   10.9510  -74.8665 O.2       1 ALC1        0.0000 
     21 O          -4.4370   11.5940  -76.2720 O.2       9 ALL1        0.0000 
     22 O          -5.7010   10.3080  -73.4610 O.2       5 ALP1        0.0000 
     23 O          -3.1205   11.9355  -75.5980 O.2       1 ALC1        0.0000 
     24 O          -1.8040   12.2770  -74.9240 O.2       5 ALP1        0.0000 
     25 CA         -7.7450   14.4895  -77.9380 C.3       4 GLC5        0.0000 
     26 CA         -6.7360   12.7860  -78.8060 C.3      12 GLL5        0.0000 
     27 CA         -8.6065    9.7240  -78.1180 C.3       4 GLC5        0.0000 
     28 CA         -6.5770   10.5190  -77.7970 C.3      12 GLL5        0.0000 
     29 CA        -10.6360    8.9290  -78.4390 C.3       8 GLP5        0.0000 
     30 CA         -2.2485    7.0980  -78.8230 C.3       4 GLC5        0.0000 
     31 CA         -3.9680    7.8240  -78.6290 C.3      12 GLL5        0.0000 
     32 CA         -0.5290    6.3720  -79.0170 C.3       8 GLP5        0.0000 
     33 CA         -2.6700    9.5670  -79.1650 C.3       4 GLC5        0.0000 
     34 CA         -1.3720   11.3100  -79.7010 C.3       8 GLP5        0.0000 
     35 CA         -7.6910   10.3195  -82.0070 C.3       4 GLC5        0.0000 
     36 CA         -6.4340    9.8410  -80.8720 C.3      12 GLL5        0.0000 
     37 CA         -8.9480   10.7980  -83.1420 C.3       8 GLP5        0.0000 
     38 CA         -7.0295    8.0515  -80.8795 C.3       4 GLC5        0.0000 
     39 CA         -7.6250    6.2620  -80.8870 C.3       8 GLP5        0.0000 
     40 CA         -4.6030    5.9555  -80.3265 C.3       4 GLC5        0.0000 
     41 CA         -4.2510    7.5840  -81.2590 C.3      12 GLL5        0.0000 
     42 CA         -4.9550    4.3270  -79.3940 C.3       8 GLP5        0.0000 
     43 CA         -5.9380    6.9230  -81.0730 C.3       4 GLC5        0.0000 
     44 CA         -1.8020    7.3090  -80.4895 C.3       4 GLC5        0.0000 
     45 CA         -3.0750    8.2460  -81.9620 C.3      12 GLL5        0.0000 
     46 CA         -2.2235    9.7780  -80.8315 C.3       4 GLC5        0.0000 
     47 CA         -3.9415    8.5195  -83.8505 C.3       4 GLC5        0.0000 
     48 CA         -4.8080    8.7930  -85.7390 C.3       8 GLP5        0.0000 
     49 Zn         -0.6710    6.0660  -85.2310 Zn        3 ZIC7        0.0000 
     50 Zn         -0.8700    7.1770  -84.8590 Zn       11 ZIL7        0.0000 
     51 Zn         -0.4720    4.9550  -85.6030 Zn        7 ZIP7        0.0000 
     52 N          -0.6885    8.3845  -85.7700 N.am      2 SEC2        0.0000 
     53 N          -0.8700    7.1770  -84.8590 N.am     10 SEL2        0.0000 
     54 N          -0.5070    9.5920  -86.6810 N.am      6 SEP2        0.0000 
     55 N          -0.1605   10.0685  -83.7520 N.am      2 SEC2        0.0000 
     56 N          -0.3560    8.7330  -82.9070 N.am     10 SEL2        0.0000 
     57 N           0.0350   11.4040  -84.5970 N.am      6 SEP2        0.0000 
     58 N           0.2990    9.6690  -82.5420 N.am      2 SEC2        0.0000 
     59 N           0.9540   10.6050  -82.1770 N.am      6 SEP2        0.0000 
     60 N          -0.9495    6.0255  -81.0675 N.am      2 SEC2        0.0000 
     61 N          -0.1870    6.2590  -82.6230 N.am     10 SEL2        0.0000 
     62 N          -1.7120    5.7920  -79.5120 N.am      6 SEP2        0.0000 
     63 Zn         -0.7470    4.6275  -84.7615 Zn        3 ZIC7        0.0000 
     64 Zn         -1.0220    4.3000  -83.9200 Zn       11 ZIL7        0.0000 
     65 N          -0.3620    3.1640  -84.4135 N.am      2 SEC2        0.0000 
     66 N          -1.0220    4.3000  -83.9200 N.am     10 SEL2        0.0000 
     67 N           0.2980    2.0280  -84.9070 N.am      6 SEP2        0.0000 
     68 N          -2.3390    3.5975  -83.8710 N.am      2 SEC2        0.0000 
     69 N          -3.6560    2.8950  -83.8220 N.am      6 SEP2        0.0000 
     70 N           0.3620    3.9450  -80.0965 N.am      2 SEC2        0.0000 
     71 N           0.0930    3.9430  -81.7280 N.am     10 SEL2        0.0000 
     72 N           0.6310    3.9470  -78.4650 N.am      6 SEP2        0.0000 
     73 N          -1.9500    5.3590  -80.6445 N.am      2 SEC2        0.0000 
     74 N          -2.1880    4.9260  -81.7770 N.am     10 SEL2        0.0000 
     75 N          -3.0110    3.5370  -81.4535 N.am      2 SEC2        0.0000 
     76 N          -3.8340    2.1480  -81.1300 N.am      6 SEP2        0.0000 
     77 CA         -3.4510   15.0533  -76.9292 C.3       4 GLC5        0.0000 
     78 CA         -4.0505   14.2238  -79.3063 C.3       4 GLC5        0.0000 
     79 CA         -2.9900   13.1850  -80.3910 C.3       8 GLP5        0.0000 
     80 CA         -4.5721   12.8325  -79.2765 C.3       4 GLC5        0.0000 
     81 CA         -8.1210   11.9601  -77.2417 C.3       4 GLC5        0.0000 
     82 CA         -6.0940   11.9370  -77.9180 C.3      12 GLL5        0.0000 
     83 CA         -9.7460   12.4800  -76.4040 C.3       8 GLP5        0.0000 
     84 CA         -4.6410    6.1887  -79.3518 C.3       4 GLC5        0.0000 
     85 CA         -4.6860    8.2770  -79.9900 C.3      12 GLL5        0.0000 
     86 CA         -4.8495   11.0228  -80.9582 C.3       4 GLC5        0.0000 
     87 CA         -5.6360    9.2520  -79.7710 C.3      12 GLL5        0.0000 
     88 CA         -3.6640   12.4990  -81.5950 C.3       8 GLP5        0.0000 
     89 CA         -3.9465    6.5810  -82.8287 C.3       4 GLC5        0.0000 
     90 CA         -4.2300    5.2470  -84.0470 C.3       8 GLP5        0.0000 
@<TRIPOS>BOND
@<TRIPOS>SUBSTRUCTURE
     1 ALC1       20 GROUP        1 X    ALC  0     ROOT ALC X 1
     2 SEC2        1 GROUP        1 X    SEC  0     **** SEC X 2
     3 ZIC7       49 GROUP        1 X    ZIC  0     **** ZIC X 5
     4 GLC5        4 GROUP        1 X    GLC  0     **** GLC X 6
     5 ALP1       22 GROUP        1 Y    ALP  0     ROOT ALP Y 8
     6 SEP2        3 GROUP        1 Y    SEP  0     **** SEP Y 9
     7 ZIP7       51 GROUP        1 Y    ZIP  0     **** ZIP Y 12
     8 GLP5        6 GROUP        1 Y    GLP  0     **** GLP Y 13
     9 ALL1       21 GROUP        1 Z    ALL  0     ROOT ALL Z 15
    10 SEL2        2 GROUP        1 Z    SEL  0     **** SEL Z 16
    11 ZIL7       50 GROUP        1 Z    ZIL  0     **** ZIL Z 19
    12 GLL5        5 GROUP        1 Z    GLL  0     **** GLL Z 20
@<TRIPOS>SET

