#    Name: 3hwx_TPP_1_ligand
#    Modification time : Tue Mar 25 15:14:09 2014

@<TRIPOS>MOLECULE
3hwx_TPP_1_ligand
   42    43     1     0     0
SMALL
NO_CHARGES


@<TRIPOS>ATOM
      1 N1'        -6.3280   14.0990  -78.9140 N.ar      1 TPP601      0.0000 
      2 C2'        -5.3050   14.5520  -78.1380 C.ar      1 TPP601      0.0000 
      3 CM2        -4.9170   15.9730  -78.3050 C.3       1 TPP601      0.0000 
      4 N3'        -4.6640   13.7260  -77.2330 N.ar      1 TPP601      0.0000 
      5 C4'        -5.0510   12.4110  -77.1180 C.ar      1 TPP601      0.0000 
      6 N4'        -4.4370   11.5940  -76.2720 N.pl3     1 TPP601      0.0000 
      7 C5'        -6.0940   11.9370  -77.9180 C.ar      1 TPP601      0.0000 
      8 C6'        -6.7360   12.7860  -78.8060 C.ar      1 TPP601      0.0000 
      9 C7'        -6.5770   10.5190  -77.7970 C.3       1 TPP601      0.0000 
     10 N3         -5.7000    9.5530  -78.4320 N.pl3     1 TPP601      0.0000 
     11 C2         -4.8090    8.7990  -77.6930 C.2       1 TPP601      0.0000 
     12 S1         -3.9680    7.8240  -78.6290 S.3       1 TPP601      0.0000 
     13 C5         -4.6860    8.2770  -79.9900 C.2       1 TPP601      0.0000 
     14 C4         -5.6360    9.2520  -79.7710 C.2       1 TPP601      0.0000 
     15 CM4        -6.4340    9.8410  -80.8720 C.3       1 TPP601      0.0000 
     16 C6         -4.2510    7.5840  -81.2590 C.3       1 TPP601      0.0000 
     17 C7         -3.0750    8.2460  -81.9620 C.3       1 TPP601      0.0000 
     18 O7         -2.4470    7.2840  -82.8070 O.3       1 TPP601      0.0000 
     19 PA         -0.9380    7.4350  -83.3750 P.3       1 TPP601      0.0000 
     20 O1A        -0.8700    7.1770  -84.8590 O.co2     1 TPP601      0.0000 
     21 O2A        -0.3560    8.7330  -82.9070 O.co2     1 TPP601      0.0000 
     22 O3A        -0.1870    6.2590  -82.6230 O.3       1 TPP601      0.0000 
     23 PB         -0.8600    4.8210  -82.4920 P.3       1 TPP601      0.0000 
     24 O1B        -1.0220    4.3000  -83.9200 O.co2     1 TPP601      0.0000 
     25 O2B         0.0930    3.9430  -81.7280 O.co2     1 TPP601      0.0000 
     26 O3B        -2.1880    4.9260  -81.7770 O.co2     1 TPP601      0.0000 
     27 H          -5.0018   10.8758  -75.8656 H         1 TPP601      0.0000 
     28 H          -3.4649   11.7703  -76.1173 H         1 TPP601      0.0000 
     29 H          -7.5139   12.4348  -79.3811 H         1 TPP601      0.0000 
     30 H          -7.5979   10.4596  -78.2328 H         1 TPP601      0.0000 
     31 H          -6.6965   10.2818  -76.7176 H         1 TPP601      0.0000 
     32 H          -4.6392    8.7810  -76.7723 H         1 TPP601      0.0000 
     33 H          -5.1053    7.5400  -81.9606 H         1 TPP601      0.0000 
     34 H          -3.9823    6.5360  -81.0274 H         1 TPP601      0.0000 
     35 H          -2.3922    8.6217  -81.1960 H         1 TPP601      0.0000 
     36 H          -3.4575    9.0977  -82.5297 H         1 TPP601      0.0000 
     37 H          -4.1585   16.2240  -77.7036 H         1 TPP601      0.0000 
     38 H          -4.6267   16.1712  -79.2412 H         1 TPP601      0.0000 
     39 H          -5.6742   16.5918  -78.0957 H         1 TPP601      0.0000 
     40 H          -6.2937   10.8284  -80.9453 H         1 TPP601      0.0000 
     41 H          -6.1941    9.4443  -81.7580 H         1 TPP601      0.0000 
     42 H          -7.4142    9.6932  -80.7405 H         1 TPP601      0.0000 
@<TRIPOS>BOND
     1    2    1 ar   
     2    8    1 ar   
     3    3    2 1    
     4    4    2 ar   
     5   37    3 1    
     6   38    3 1    
     7   39    3 1    
     8    5    4 ar   
     9    6    5 1    
    10    7    5 ar   
    11   27    6 1    
    12   28    6 1    
    13    8    7 ar   
    14    9    7 1    
    15   29    8 1    
    16   10    9 1    
    17   30    9 1    
    18   31    9 1    
    19   11   10 2    
    20   14   10 1    
    21   12   11 1    
    22   32   11 1    
    23   13   12 1    
    24   14   13 2    
    25   16   13 1    
    26   15   14 1    
    27   40   15 1    
    28   41   15 1    
    29   42   15 1    
    30   17   16 1    
    31   33   16 1    
    32   34   16 1    
    33   18   17 1    
    34   35   17 1    
    35   36   17 1    
    36   19   18 1    
    37   20   19 ar   
    38   21   19 ar   
    39   22   19 1    
    40   23   22 1    
    41   24   23 ar   
    42   25   23 ar   
    43   26   23 ar   
@<TRIPOS>SUBSTRUCTURE
     1 TPP601      1 GROUP   
@<TRIPOS>SET

