#    Name: 3r9o_Z71_1_INTS_M
#    Modification time : Tue Mar 25 11:18:29 2014

@<TRIPOS>MOLECULE
3r9o_Z71_1_INTS_M
   64     0     9     0     0
SMALL
NO_CHARGES


@<TRIPOS>ATOM
      1 CA        -65.8455  -83.2380  -16.1730 C.3       3 GLC5        0.0000 
      2 CA        -66.5180  -81.5330  -14.9690 C.3       9 GLL5        0.0000 
      3 CA        -65.1730  -84.9430  -17.3770 C.3       6 GLP5        0.0000 
      4 N         -64.3790  -82.8270  -15.6870 N.am      2 SEC2        0.0000 
      5 N         -65.3600  -82.2210  -14.6460 N.am      8 SEL2        0.0000 
      6 N         -63.3980  -83.4330  -16.7280 N.am      5 SEP2        0.0000 
      7 CA        -65.3440  -79.8380  -13.7880 C.3       3 GLC5        0.0000 
      8 CA        -66.0630  -80.9450  -12.4740 C.3       9 GLL5        0.0000 
      9 CA        -64.6250  -78.7310  -15.1020 C.3       6 GLP5        0.0000 
     10 O         -66.9030  -82.2585  -17.2905 O.2       1 ALC1        0.0000 
     11 O         -67.0450  -81.6180  -16.2460 O.2       7 ALL1        0.0000 
     12 O         -66.7610  -82.8990  -18.3350 O.2       4 ALP1        0.0000 
     13 O         -62.8600  -83.1220  -13.7105 O.2       1 ALC1        0.0000 
     14 O         -63.8170  -82.5640  -12.9120 O.2       7 ALL1        0.0000 
     15 O         -61.9030  -83.6800  -14.5090 O.2       4 ALP1        0.0000 
     16 CA        -63.2185  -79.7060  -12.0400 C.3       3 GLC5        0.0000 
     17 CA        -63.2770  -81.3360  -10.9250 C.3       9 GLL5        0.0000 
     18 CA        -63.1600  -78.0760  -13.1550 C.3       6 GLP5        0.0000 
     19 CA        -60.5865  -81.2515  -10.9040 C.3       3 GLC5        0.0000 
     20 CA        -62.4850  -81.1950   -9.7720 C.3       9 GLL5        0.0000 
     21 CA        -58.6880  -81.3080  -12.0360 C.3       6 GLP5        0.0000 
     22 N         -59.4530  -80.1555   -9.7345 N.am      2 SEC2        0.0000 
     23 N         -59.4260  -81.0740   -8.4640 N.am      8 SEL2        0.0000 
     24 N         -59.4800  -79.2370  -11.0050 N.am      5 SEP2        0.0000 
     25 O         -61.6180  -79.8325   -7.4740 O.2       1 ALC1        0.0000 
     26 O         -61.4360  -81.2670   -6.8510 O.2       7 ALL1        0.0000 
     27 O         -61.8000  -78.3980   -8.0970 O.2       4 ALP1        0.0000 
     28 N         -58.7190  -83.6945   -8.5770 N.am      2 SEC2        0.0000 
     29 N         -60.1260  -83.3660   -7.6150 N.am      8 SEL2        0.0000 
     30 N         -57.3120  -84.0230   -9.5390 N.am      5 SEP2        0.0000 
     31 CA        -69.9210  -80.5565  -11.8340 C.3       3 GLC5        0.0000 
     32 CA        -69.6930  -78.4830  -12.4900 C.3       9 GLL5        0.0000 
     33 CA        -70.1490  -82.6300  -11.1780 C.3       6 GLP5        0.0000 
     34 CA        -71.5560  -76.1030   -8.5005 C.3       3 GLC5        0.0000 
     35 CA        -70.5970  -75.8540  -10.0450 C.3       9 GLL5        0.0000 
     36 CA        -72.5150  -76.3520   -6.9560 C.3       6 GLP5        0.0000 
     37 CA        -73.0520  -78.6990  -15.0285 C.3       3 GLC5        0.0000 
     38 CA        -73.0860  -77.6380  -13.7660 C.3       9 GLL5        0.0000 
     39 CA        -73.0180  -79.7600  -16.2910 C.3       6 GLP5        0.0000 
     40 CA        -66.6292  -82.4760  -12.0935 C.3       3 GLC5        0.0000 
     41 CA        -67.0380  -80.7910  -13.9380 C.3       9 GLL5        0.0000 
     42 CA        -66.7080  -84.0840  -10.9810 C.3       6 GLP5        0.0000 
     43 CA        -67.7315  -82.5670  -14.5488 C.3       3 GLC5        0.0000 
     44 CA        -68.6850  -83.9720  -14.6440 C.3       6 GLP5        0.0000 
     45 CA        -65.7015  -79.9465  -14.7777 C.3       3 GLC5        0.0000 
     46 CA        -60.2463  -82.2245  -11.3585 C.3       3 GLC5        0.0000 
     47 CA        -61.3650  -83.3590  -10.3100 C.3       9 GLL5        0.0000 
     48 CA        -64.9543  -82.9975  -11.1685 C.3       3 GLC5        0.0000 
     49 CA        -63.1240  -82.4860  -11.7870 C.3       9 GLL5        0.0000 
     50 CA        -62.0245  -79.4082  -10.2837 C.3       3 GLC5        0.0000 
     51 CA        -61.1680  -77.5510  -10.2190 C.3       6 GLP5        0.0000 
     52 CA        -72.9210  -77.5080  -10.8297 C.3       3 GLC5        0.0000 
     53 CA        -70.6860  -76.7060  -11.0810 C.3       9 GLL5        0.0000 
     54 CA        -74.5620  -78.3020  -10.1760 C.3       6 GLP5        0.0000 
     55 CA        -70.2815  -76.1685  -12.7092 C.3       3 GLC5        0.0000 
     56 CA        -70.8930  -78.4860  -13.2890 C.3       9 GLL5        0.0000 
     57 CA        -70.2950  -74.0770  -12.8060 C.3       6 GLP5        0.0000 
     58 CA        -71.6463  -75.8670  -13.8178 C.3       3 GLC5        0.0000 
     59 CA        -71.9710  -77.6140  -12.9910 C.3       9 GLL5        0.0000 
     60 CA        -70.7640  -74.1080  -14.2570 C.3       6 GLP5        0.0000 
     61 CA        -70.6167  -75.1805  -11.7851 C.3       3 GLC5        0.0000 
     62 CA        -71.8740  -76.7220  -11.8860 C.3       9 GLL5        0.0000 
     63 CA        -73.1130  -78.9900  -12.5785 C.3       3 GLC5        0.0000 
     64 CA        -73.9670  -80.1360  -11.7040 C.3       6 GLP5        0.0000 
@<TRIPOS>BOND
@<TRIPOS>SUBSTRUCTURE
     1 ALC1       10 GROUP        1 X    ALC  0     ROOT ALC X 1
     2 SEC2        4 GROUP        1 X    SEC  0     **** SEC X 2
     3 GLC5        1 GROUP        1 X    GLC  0     **** GLC X 6
     4 ALP1       12 GROUP        1 Y    ALP  0     ROOT ALP Y 8
     5 SEP2        6 GROUP        1 Y    SEP  0     **** SEP Y 9
     6 GLP5        3 GROUP        1 Y    GLP  0     **** GLP Y 13
     7 ALL1       11 GROUP        1 Z    ALL  0     ROOT ALL Z 15
     8 SEL2        5 GROUP        1 Z    SEL  0     **** SEL Z 16
     9 GLL5        2 GROUP        1 Z    GLL  0     **** GLL Z 20
@<TRIPOS>SET

