#    Name: 3r9o_Z71_1_ligand
#    Modification time : Tue Mar 25 11:18:29 2014

@<TRIPOS>MOLECULE
3r9o_Z71_1_ligand
   41    43     1     0     0
SMALL
NO_CHARGES


@<TRIPOS>ATOM
      1 C1        -67.0380  -80.7910  -13.9380 C.2       1 Z71401      0.0000 
      2 C2        -66.5180  -81.5330  -14.9690 C.2       1 Z71401      0.0000 
      3 N3        -65.3600  -82.2210  -14.6460 N.2       1 Z71401      0.0000 
      4 C4        -64.9810  -82.0130  -13.3980 C.2       1 Z71401      0.0000 
      5 S5        -66.0630  -80.9450  -12.4740 S.3       1 Z71401      0.0000 
      6 C6        -68.2420  -79.9240  -13.9240 C.2       1 Z71401      0.0000 
      7 N7        -67.0450  -81.6180  -16.2460 N.pl3     1 Z71401      0.0000 
      8 N8        -63.8170  -82.5640  -12.9120 N.pl3     1 Z71401      0.0000 
      9 O9        -68.8630  -79.7700  -14.9790 O.2       1 Z71401      0.0000 
     10 C10       -61.5270  -82.2010   -9.4740 C.ar      1 Z71401      0.0000 
     11 C11       -61.3650  -83.3590  -10.3100 C.ar      1 Z71401      0.0000 
     12 C12       -62.1630  -83.5020  -11.4700 C.ar      1 Z71401      0.0000 
     13 C13       -63.1240  -82.4860  -11.7870 C.ar      1 Z71401      0.0000 
     14 C14       -63.2770  -81.3360  -10.9250 C.ar      1 Z71401      0.0000 
     15 C15       -62.4850  -81.1950   -9.7720 C.ar      1 Z71401      0.0000 
     16 S16       -60.4940  -81.9970   -8.0680 S.o2      1 Z71401      0.0000 
     17 O17       -59.4260  -81.0740   -8.4640 O.2       1 Z71401      0.0000 
     18 N18       -61.4360  -81.2670   -6.8510 N.pl3     1 Z71401      0.0000 
     19 O19       -60.1260  -83.3660   -7.6150 O.2       1 Z71401      0.0000 
     20 N20       -68.5890  -79.3420  -12.7500 N.am      1 Z71401      0.0000 
     21 C21       -71.8740  -76.7220  -11.8860 C.ar      1 Z71401      0.0000 
     22 C22       -70.6860  -76.7060  -11.0810 C.ar      1 Z71401      0.0000 
     23 C23       -69.5930  -77.5850  -11.3820 C.ar      1 Z71401      0.0000 
     24 C24       -69.6930  -78.4830  -12.4900 C.ar      1 Z71401      0.0000 
     25 C25       -70.8930  -78.4860  -13.2890 C.ar      1 Z71401      0.0000 
     26 C26       -71.9710  -77.6140  -12.9910 C.ar      1 Z71401      0.0000 
     27 F27       -70.5970  -75.8540  -10.0450 F         1 Z71401      0.0000 
     28 F28       -73.0860  -77.6380  -13.7660 F         1 Z71401      0.0000 
     29 H         -66.5665  -82.2255  -16.8800 H         1 Z71401      0.0000 
     30 H         -67.8586  -81.0645  -16.4240 H         1 Z71401      0.0000 
     31 H         -63.3370  -83.2676  -13.6919 H         1 Z71401      0.0000 
     32 H         -60.6801  -84.0640  -10.0615 H         1 Z71401      0.0000 
     33 H         -62.0632  -84.3073  -12.0731 H         1 Z71401      0.0000 
     34 H         -63.9715  -80.6288  -11.1706 H         1 Z71401      0.0000 
     35 H         -62.5901  -80.3949   -9.1617 H         1 Z71401      0.0000 
     36 H         -61.8301  -80.3756   -7.0749 H         1 Z71401      0.0000 
     37 H         -61.5287  -81.7812   -5.9984 H         1 Z71401      0.0000 
     38 H         -67.9617  -79.5410  -11.8855 H         1 Z71401      0.0000 
     39 H         -72.6412  -76.0961  -11.6634 H         1 Z71401      0.0000 
     40 H         -68.7572  -77.5679  -10.8123 H         1 Z71401      0.0000 
     41 H         -70.9580  -79.1302  -14.0802 H         1 Z71401      0.0000 
@<TRIPOS>BOND
     1    2    1 2    
     2    5    1 1    
     3    6    1 1    
     4    3    2 1    
     5    7    2 1    
     6    4    3 2    
     7    5    4 1    
     8    8    4 1    
     9    9    6 2    
    10   20    6 am   
    11   29    7 1    
    12   30    7 1    
    13   13    8 1    
    14   31    8 1    
    15   11   10 ar   
    16   15   10 ar   
    17   16   10 1    
    18   12   11 ar   
    19   32   11 1    
    20   13   12 ar   
    21   33   12 1    
    22   14   13 ar   
    23   15   14 ar   
    24   34   14 1    
    25   35   15 1    
    26   17   16 2    
    27   18   16 1    
    28   19   16 2    
    29   36   18 1    
    30   37   18 1    
    31   24   20 1    
    32   38   20 1    
    33   22   21 ar   
    34   26   21 ar   
    35   39   21 1    
    36   23   22 ar   
    37   27   22 1    
    38   24   23 ar   
    39   40   23 1    
    40   25   24 ar   
    41   26   25 ar   
    42   41   25 1    
    43   28   26 1    
@<TRIPOS>SUBSTRUCTURE
     1 Z71401      1 GROUP   
@<TRIPOS>SET

