#    Name: 3f0q_52V_1_INTS_M
#    Modification time : Tue Mar 25 03:01:33 2014

@<TRIPOS>MOLECULE
3f0q_52V_1_INTS_M
   91     0     9     0     0
SMALL
NO_CHARGES


@<TRIPOS>ATOM
      1 CA        -26.7470   -9.5120   38.4310 C.3       3 GLC5        0.0000 
      2 CA        -27.0680  -10.2880   40.4740 C.3       9 GLL5        0.0000 
      3 CA        -26.4260   -8.7360   36.3880 C.3       6 GLP5        0.0000 
      4 CA        -25.1635   -9.7595   40.4050 C.3       3 GLC5        0.0000 
      5 CA        -23.2590   -9.2310   40.3360 C.3       6 GLP5        0.0000 
      6 CA        -32.6860  -17.3555   38.0960 C.3       3 GLC5        0.0000 
      7 CA        -34.2840  -16.8390   39.2750 C.3       9 GLL5        0.0000 
      8 CA        -31.0880  -17.8720   36.9170 C.3       6 GLP5        0.0000 
      9 CA        -33.9545  -18.9945   39.0830 C.3       3 GLC5        0.0000 
     10 CA        -33.6250  -21.1500   38.8910 C.3       6 GLP5        0.0000 
     11 CA        -35.2780  -16.8895   40.9255 C.3       3 GLC5        0.0000 
     12 CA        -36.2720  -16.9400   42.5760 C.3       6 GLP5        0.0000 
     13 CA        -35.8015  -17.6845   38.0205 C.3       3 GLC5        0.0000 
     14 CA        -37.3190  -18.5300   36.7660 C.3       6 GLP5        0.0000 
     15 CA        -34.9885  -15.0585   38.4090 C.3       3 GLC5        0.0000 
     16 CA        -35.6930  -13.2780   37.5430 C.3       6 GLP5        0.0000 
     17 CA        -26.7260   -8.3535   38.5720 C.3       3 GLC5        0.0000 
     18 CA        -27.0260   -7.9710   40.7560 C.3       9 GLL5        0.0000 
     19 CA        -25.1425   -8.6010   40.5460 C.3       3 GLC5        0.0000 
     20 CA        -26.1360   -7.3885   42.3695 C.3       3 GLC5        0.0000 
     21 CA        -25.2460   -6.8060   43.9830 C.3       6 GLP5        0.0000 
     22 CA        -28.3945   -7.7435   39.8010 C.3       3 GLC5        0.0000 
     23 CA        -29.7630   -7.5160   38.8460 C.3       6 GLP5        0.0000 
     24 CA        -29.0560  -12.9275   45.0030 C.3       3 GLC5        0.0000 
     25 CA        -29.8170  -14.2980   43.7570 C.3       9 GLL5        0.0000 
     26 CA        -28.2950  -11.5570   46.2490 C.3       6 GLP5        0.0000 
     27 CA        -29.8300  -16.4065   41.3395 C.3       3 GLC5        0.0000 
     28 CA        -31.4350  -15.2350   40.8440 C.3       9 GLL5        0.0000 
     29 CA        -28.2250  -17.5780   41.8350 C.3       6 GLP5        0.0000 
     30 CA        -36.1425  -15.3185   42.4310 C.3       3 GLC5        0.0000 
     31 CA        -36.0130  -13.6970   42.2860 C.3       9 GLL5        0.0000 
     32 CA        -35.7705   -8.4045   42.9065 C.3       3 GLC5        0.0000 
     33 CA        -36.2060  -10.0020   41.4950 C.3       9 GLL5        0.0000 
     34 CA        -35.3350   -6.8070   44.3180 C.3       6 GLP5        0.0000 
     35 CA        -31.9555   -9.6180   38.8165 C.3       3 GLC5        0.0000 
     36 CA        -32.6560  -10.3750   40.2700 C.3       9 GLL5        0.0000 
     37 CA        -31.2550   -8.8610   37.3630 C.3       6 GLP5        0.0000 
     38 CA        -31.3815  -11.2205   39.2925 C.3       3 GLC5        0.0000 
     39 CA        -30.1070  -12.0660   38.3150 C.3       6 GLP5        0.0000 
     40 CA        -32.3035  -14.9965   42.4720 C.3       3 GLC5        0.0000 
     41 CA        -32.0400  -13.0720   41.7640 C.3       9 GLL5        0.0000 
     42 CA        -32.5670  -16.9210   43.1800 C.3       6 GLP5        0.0000 
     43 CA        -29.3845  -11.8635   40.0080 C.3       3 GLC5        0.0000 
     44 CA        -28.6620  -11.6610   41.7010 C.3       9 GLL5        0.0000 
     45 CA        -30.1920   -9.9510   44.7095 C.3       3 GLC5        0.0000 
     46 CA        -29.7260   -9.2610   42.9940 C.3       9 GLL5        0.0000 
     47 CA        -30.6580  -10.6410   46.4250 C.3       6 GLP5        0.0000 
     48 CA        -31.3885   -8.4400   43.2470 C.3       3 GLC5        0.0000 
     49 CA        -33.0510   -7.6190   43.5000 C.3       6 GLP5        0.0000 
     50 N         -28.4430   -6.9690   42.2885 N.am      2 SEC2        0.0000 
     51 N         -28.0310   -8.0330   41.6470 N.am      8 SEL2        0.0000 
     52 N         -28.8550   -5.9050   42.9300 N.am      5 SEP2        0.0000 
     53 O         -27.1775   -5.6745   40.9700 O.2       1 ALC1        0.0000 
     54 O         -26.4830   -6.8110   40.4260 O.2       7 ALL1        0.0000 
     55 O         -27.8720   -4.5380   41.5140 O.2       4 ALP1        0.0000 
     56 O         -25.7180   -5.9025   39.5450 O.2       1 ALC1        0.0000 
     57 O         -24.9530   -4.9940   38.6640 O.2       4 ALP1        0.0000 
     58 O         -25.4170  -11.1745   39.1125 O.2       1 ALC1        0.0000 
     59 O         -26.5620  -11.3680   39.8730 O.2       7 ALL1        0.0000 
     60 O         -24.2720  -10.9810   38.3520 O.2       4 ALP1        0.0000 
     61 CA        -28.9923  -15.8850   42.4200 C.3       3 GLC5        0.0000 
     62 CA        -29.7020  -14.0860   42.2530 C.3       9 GLL5        0.0000 
     63 CA        -31.1633  -15.5565   43.0925 C.3       3 GLC5        0.0000 
     64 CA        -29.8350  -13.4232   40.3015 C.3       3 GLC5        0.0000 
     65 CA        -30.2580  -13.4180   38.5000 C.3       6 GLP5        0.0000 
     66 CA        -27.8133  -14.4425   42.7625 C.3       3 GLC5        0.0000 
     67 CA        -25.8670  -14.6930   42.5200 C.3       6 GLP5        0.0000 
     68 CA        -31.2860  -17.0102   39.4617 C.3       3 GLC5        0.0000 
     69 CA        -30.5140  -18.7330   38.3850 C.3       6 GLP5        0.0000 
     70 CA        -32.2710  -15.9642   41.9549 C.3       3 GLC5        0.0000 
     71 CA        -32.6810  -15.3400   40.2330 C.3       9 GLL5        0.0000 
     72 CA        -33.7760  -13.6530   38.8727 C.3       3 GLC5        0.0000 
     73 CA        -34.4060  -12.4890   37.4370 C.3       6 GLP5        0.0000 
     74 CA        -33.7225  -15.1088   42.0980 C.3       3 GLC5        0.0000 
     75 CA        -33.6110  -14.2940   40.3840 C.3       9 GLL5        0.0000 
     76 CA        -33.9830  -16.4980   43.4280 C.3       6 GLP5        0.0000 
     77 CA        -34.1003  -12.5557   39.3267 C.3       3 GLC5        0.0000 
     78 CA        -33.3130  -13.1450   41.1520 C.3       9 GLL5        0.0000 
     79 CA        -36.3015  -12.7052   40.0702 C.3       3 GLC5        0.0000 
     80 CA        -35.5650  -12.3300   41.7970 C.3       9 GLL5        0.0000 
     81 CA        -36.8140  -12.3970   38.0990 C.3       6 GLP5        0.0000 
     82 CA        -36.2324  -11.2990   39.7174 C.3       3 GLC5        0.0000 
     83 CA        -34.9470   -9.7520   40.9700 C.3       9 GLL5        0.0000 
     84 CA        -35.4956   -9.7312   39.3056 C.3       3 GLC5        0.0000 
     85 CA        -36.2040   -9.1350   37.5640 C.3       6 GLP5        0.0000 
     86 CA        -33.8665  -11.5328   39.0015 C.3       3 GLC5        0.0000 
     87 CA        -33.9980  -10.7780   40.8620 C.3       9 GLL5        0.0000 
     88 CA        -33.3076   -8.9695   42.0465 C.3       3 GLC5        0.0000 
     89 CA        -27.2765  -12.7670   42.2455 C.3       3 GLC5        0.0000 
     90 CA        -25.6610  -13.3180   42.6640 C.3       6 GLP5        0.0000 
     91 CA        -28.9237   -8.6463   40.1517 C.3       3 GLC5        0.0000 
@<TRIPOS>BOND
@<TRIPOS>SUBSTRUCTURE
     1 ALC1       53 GROUP        1 X    ALC  0     ROOT ALC X 1
     2 SEC2       50 GROUP        1 X    SEC  0     **** SEC X 2
     3 GLC5        1 GROUP        1 X    GLC  0     **** GLC X 6
     4 ALP1       55 GROUP        1 Y    ALP  0     ROOT ALP Y 8
     5 SEP2       52 GROUP        1 Y    SEP  0     **** SEP Y 9
     6 GLP5        3 GROUP        1 Y    GLP  0     **** GLP Y 13
     7 ALL1       54 GROUP        1 Z    ALL  0     ROOT ALL Z 15
     8 SEL2       51 GROUP        1 Z    SEL  0     **** SEL Z 16
     9 GLL5        2 GROUP        1 Z    GLL  0     **** GLL Z 20
@<TRIPOS>SET

