#    Name: 3f0q_52V_1_ligand
#    Modification time : Tue Mar 25 03:01:33 2014

@<TRIPOS>MOLECULE
3f0q_52V_1_ligand
   55    57     1     0     0
SMALL
NO_CHARGES


@<TRIPOS>ATOM
      1 C1        -27.0680  -10.2880   40.4740 C.ar      1 52V158      0.0000 
      2 C2        -34.2840  -16.8390   39.2750 C.3       1 52V158      0.0000 
      3 C3        -27.0260   -7.9710   40.7560 C.ar      1 52V158      0.0000 
      4 C6        -28.1060  -10.3840   41.3900 C.ar      1 52V158      0.0000 
      5 C12       -29.7020  -14.0860   42.2530 C.3       1 52V158      0.0000 
      6 C13       -29.8170  -14.2980   43.7570 C.3       1 52V158      0.0000 
      7 C14       -31.1030  -14.1150   41.6090 C.ar      1 52V158      0.0000 
      8 C15       -31.4350  -15.2350   40.8440 C.ar      1 52V158      0.0000 
      9 C16       -32.6810  -15.3400   40.2330 C.ar      1 52V158      0.0000 
     10 C17       -33.6110  -14.2940   40.3840 C.ar      1 52V158      0.0000 
     11 C18       -33.3130  -13.1450   41.1520 C.ar      1 52V158      0.0000 
     12 C26       -36.0130  -13.6970   42.2860 C.3       1 52V158      0.0000 
     13 C20       -35.5650  -12.3300   41.7970 C.ar      1 52V158      0.0000 
     14 C21       -36.5030  -11.2980   41.9080 C.ar      1 52V158      0.0000 
     15 C22       -36.2060  -10.0020   41.4950 C.ar      1 52V158      0.0000 
     16 C23       -34.9470   -9.7520   40.9700 C.ar      1 52V158      0.0000 
     17 C24       -33.9980  -10.7780   40.8620 C.ar      1 52V158      0.0000 
     18 C27       -32.6560  -10.3750   40.2700 C.3       1 52V158      0.0000 
     19 C25       -34.2760  -12.1000   41.2810 C.ar      1 52V158      0.0000 
     20 C19       -32.0400  -13.0720   41.7640 C.ar      1 52V158      0.0000 
     21 O17       -32.9090  -16.4780   39.4970 O.3       1 52V158      0.0000 
     22 C11       -29.1220  -12.7710   41.9530 C.1       1 52V158      0.0000 
     23 C10       -28.6620  -11.6610   41.7010 C.1       1 52V158      0.0000 
     24 C5        -28.5820   -9.2170   41.9830 C.ar      1 52V158      0.0000 
     25 C8        -29.7260   -9.2610   42.9940 C.3       1 52V158      0.0000 
     26 N4        -28.0310   -8.0330   41.6470 N.ar      1 52V158      0.0000 
     27 N7        -26.4830   -6.8110   40.4260 N.pl3     1 52V158      0.0000 
     28 N2        -26.5670   -9.0770   40.1760 N.ar      1 52V158      0.0000 
     29 N9        -26.5620  -11.3680   39.8730 N.pl3     1 52V158      0.0000 
     30 H         -29.1200  -14.8652   41.8198 H         1 52V158      0.0000 
     31 H         -30.7443  -15.9956   40.7312 H         1 52V158      0.0000 
     32 H         -34.5327  -14.3651   39.9243 H         1 52V158      0.0000 
     33 H         -37.4368  -11.5053   42.3060 H         1 52V158      0.0000 
     34 H         -36.8960   -9.2599   41.5772 H         1 52V158      0.0000 
     35 H         -34.6993   -8.8010   40.6530 H         1 52V158      0.0000 
     36 H         -31.7965  -12.2491   42.3277 H         1 52V158      0.0000 
     37 H         -26.8801   -6.0008   40.8571 H         1 52V158      0.0000 
     38 H         -25.7246   -6.8494   39.7753 H         1 52V158      0.0000 
     39 H         -25.6007  -11.3117   39.6034 H         1 52V158      0.0000 
     40 H         -27.1900  -12.1360   39.7466 H         1 52V158      0.0000 
     41 H         -34.3655  -17.6777   38.7366 H         1 52V158      0.0000 
     42 H         -34.7707  -16.9941   40.1347 H         1 52V158      0.0000 
     43 H         -34.7805  -16.1247   38.7818 H         1 52V158      0.0000 
     44 H         -28.9221  -14.2867   44.2032 H         1 52V158      0.0000 
     45 H         -30.3699  -13.5868   44.1911 H         1 52V158      0.0000 
     46 H         -30.2431  -15.1756   43.9769 H         1 52V158      0.0000 
     47 H         -35.2956  -14.3847   42.1747 H         1 52V158      0.0000 
     48 H         -36.2575  -13.6828   43.2555 H         1 52V158      0.0000 
     49 H         -36.8144  -14.0259   41.7864 H         1 52V158      0.0000 
     50 H         -32.2075   -9.6664   40.8147 H         1 52V158      0.0000 
     51 H         -32.0249  -11.1491   40.2194 H         1 52V158      0.0000 
     52 H         -32.7526  -10.0144   39.3423 H         1 52V158      0.0000 
     53 H         -29.4967   -9.8210   43.7901 H         1 52V158      0.0000 
     54 H         -29.9567   -8.3492   43.3337 H         1 52V158      0.0000 
     55 H         -30.5591   -9.6449   42.5957 H         1 52V158      0.0000 
@<TRIPOS>BOND
     1    4    1 ar   
     2   28    1 ar   
     3   29    1 1    
     4   21    2 1    
     5   41    2 1    
     6   42    2 1    
     7   43    2 1    
     8   26    3 ar   
     9   27    3 1    
    10   28    3 ar   
    11   23    4 1    
    12   24    4 ar   
    13    6    5 1    
    14    7    5 1    
    15   22    5 1    
    16   30    5 1    
    17   44    6 1    
    18   45    6 1    
    19   46    6 1    
    20    8    7 ar   
    21   20    7 ar   
    22    9    8 ar   
    23   31    8 1    
    24   10    9 ar   
    25   21    9 1    
    26   11   10 ar   
    27   32   10 1    
    28   19   11 1    
    29   20   11 ar   
    30   13   12 1    
    31   47   12 1    
    32   48   12 1    
    33   49   12 1    
    34   14   13 ar   
    35   19   13 ar   
    36   15   14 ar   
    37   33   14 1    
    38   16   15 ar   
    39   34   15 1    
    40   17   16 ar   
    41   35   16 1    
    42   18   17 1    
    43   19   17 ar   
    44   50   18 1    
    45   51   18 1    
    46   52   18 1    
    47   36   20 1    
    48   23   22 3    
    49   25   24 1    
    50   26   24 ar   
    51   53   25 1    
    52   54   25 1    
    53   55   25 1    
    54   37   27 1    
    55   38   27 1    
    56   39   29 1    
    57   40   29 1    
@<TRIPOS>SUBSTRUCTURE
     1 52V158      1 GROUP   
@<TRIPOS>SET

