#    Name: 1mnd_ADP_1_INTS_M
#    Modification time : Mon Apr  7 14:42:02 2014

@<TRIPOS>MOLECULE
1mnd_ADP_1_INTS_M
   54     0    15     0     0
SMALL
NO_CHARGES


@<TRIPOS>ATOM
      1 NZ         64.3410   37.5690  -26.7945 N.4       3 LYC4        0.0000 
      2 NZ         63.9670   38.3050  -25.7380 N.4      13 LYL4        0.0000 
      3 NZ         64.7150   36.8330  -27.8510 N.4       8 LYP4        0.0000 
      4 N          64.3410   37.5690  -26.7945 N.am      2 SEC2        0.0000 
      5 N          63.9670   38.3050  -25.7380 N.am     12 SEL2        0.0000 
      6 N          64.7150   36.8330  -27.8510 N.am      7 SEP2        0.0000 
      7 NZ         65.0045   38.5805  -26.9945 N.4       3 LYC4        0.0000 
      8 NZ         65.2940   40.3280  -26.1380 N.4      13 LYL4        0.0000 
      9 Zn         65.4810   41.0560  -26.8300 Zn        4 ZIC7        0.0000 
     10 Zn         65.2940   40.3280  -26.1380 Zn       14 ZIL7        0.0000 
     11 Zn         65.6680   41.7840  -27.5220 Zn        9 ZIP7        0.0000 
     12 N          66.6500   40.2555  -25.2480 N.am      2 SEC2        0.0000 
     13 N          65.2940   40.3280  -26.1380 N.am     12 SEL2        0.0000 
     14 N          68.0060   40.1830  -24.3580 N.am      7 SEP2        0.0000 
     15 N          61.6190   39.5620  -25.9880 N.am      2 SEC2        0.0000 
     16 N          62.8780   40.3950  -26.5590 N.am     12 SEL2        0.0000 
     17 N          60.3600   38.7290  -25.4170 N.am      7 SEP2        0.0000 
     18 N          66.7115   40.8310  -23.6245 N.am      2 SEC2        0.0000 
     19 N          65.4170   41.4790  -22.8910 N.am     12 SEL2        0.0000 
     20 N          66.9185   41.7870  -22.5700 N.am      2 SEC2        0.0000 
     21 N          68.4200   42.0950  -22.2490 N.am      7 SEP2        0.0000 
     22 N          62.1810   42.6535  -24.2035 N.am      2 SEC2        0.0000 
     23 N          63.6040   42.7260  -23.9950 N.am     12 SEL2        0.0000 
     24 N          60.7580   42.5810  -24.4120 N.am      7 SEP2        0.0000 
     25 N          63.8210   39.1000  -23.1310 N.am      2 SEC2        0.0000 
     26 N          63.6320   40.2040  -24.1840 N.am     12 SEL2        0.0000 
     27 N          64.0100   37.9960  -22.0780 N.am      7 SEP2        0.0000 
     28 CA         61.1030   40.9015  -23.0410 C.3       5 GLC5        0.0000 
     29 CA         62.0130   42.3920  -21.9710 C.3      15 GLL5        0.0000 
     30 CA         60.1930   39.4110  -24.1110 C.3      10 GLP5        0.0000 
     31 CA         60.0685   42.1285  -19.8325 C.3       5 GLC5        0.0000 
     32 CA         61.6150   42.9690  -20.6240 C.3      15 GLL5        0.0000 
     33 CA         58.5220   41.2880  -19.0410 C.3      10 GLP5        0.0000 
     34 N          61.4955   40.8005  -19.2695 N.am      2 SEC2        0.0000 
     35 N          61.7740   42.0060  -19.5380 N.am     12 SEL2        0.0000 
     36 N          61.2170   39.5950  -19.0010 N.am      7 SEP2        0.0000 
     37 CA         64.4960   43.9445  -20.1780 C.3       5 GLC5        0.0000 
     38 CA         62.3250   44.2460  -20.2410 C.3      15 GLL5        0.0000 
     39 CA         66.6670   43.6430  -20.1150 C.3      10 GLP5        0.0000 
     40 CA         60.4295   42.1410  -18.0670 C.3       5 GLC5        0.0000 
     41 CA         62.3310   42.6230  -18.4360 C.3      15 GLL5        0.0000 
     42 CA         58.5280   41.6590  -17.6980 C.3      10 GLP5        0.0000 
     43 CA         66.4330   41.8470  -18.3905 C.3       5 GLC5        0.0000 
     44 CA         65.2470   41.2420  -16.8200 C.3      15 GLL5        0.0000 
     45 CA         67.6190   42.4520  -19.9610 C.3      10 GLP5        0.0000 
     46 O          68.3755   40.1430  -14.7445 O.2       1 ALC1        0.0000 
     47 O          67.0260   40.3400  -15.4090 O.2      11 ALL1        0.0000 
     48 O          69.7250   39.9460  -14.0800 O.2       6 ALP1        0.0000 
     49 CA         64.5315   41.5320  -14.4955 C.3       5 GLC5        0.0000 
     50 CA         65.1320   43.3660  -15.2400 C.3      15 GLL5        0.0000 
     51 CA         63.9310   39.6980  -13.7510 C.3      10 GLP5        0.0000 
     52 CA         65.5435   42.9875  -18.5775 C.3       5 GLC5        0.0000 
     53 CA         64.4200   42.3320  -17.0400 C.3      15 GLL5        0.0000 
     54 CA         64.4938   40.7489  -15.2024 C.3       5 GLC5        0.0000 
@<TRIPOS>BOND
@<TRIPOS>SUBSTRUCTURE
     1 ALC1       46 GROUP        1 X    ALC  0     ROOT ALC X 1
     2 SEC2        4 GROUP        1 X    SEC  0     **** SEC X 2
     3 LYC4        1 GROUP        1 X    LYC  0     **** LYC X 4
     4 ZIC7        9 GROUP        1 X    ZIC  0     **** ZIC X 5
     5 GLC5       28 GROUP        1 X    GLC  0     **** GLC X 6
     6 ALP1       48 GROUP        1 Y    ALP  0     ROOT ALP Y 8
     7 SEP2        6 GROUP        1 Y    SEP  0     **** SEP Y 9
     8 LYP4        3 GROUP        1 Y    LYP  0     **** LYP Y 11
     9 ZIP7       11 GROUP        1 Y    ZIP  0     **** ZIP Y 12
    10 GLP5       30 GROUP        1 Y    GLP  0     **** GLP Y 13
    11 ALL1       47 GROUP        1 Z    ALL  0     ROOT ALL Z 15
    12 SEL2        5 GROUP        1 Z    SEL  0     **** SEL Z 16
    13 LYL4        2 GROUP        1 Z    LYL  0     **** LYL Z 18
    14 ZIL7       10 GROUP        1 Z    ZIL  0     **** ZIL Z 19
    15 GLL5       29 GROUP        1 Z    GLL  0     **** GLL Z 20
@<TRIPOS>SET

