#    Name: 1mnd_ADP_1_ligand
#    Modification time : Mon Apr  7 14:42:02 2014

@<TRIPOS>MOLECULE
1mnd_ADP_1_ligand
   39    41     1     0     0
SMALL
NO_CHARGES


@<TRIPOS>ATOM
      1 PB         63.9610   39.8090  -25.6960 P.3       1 ADP998      0.0000 
      2 O1B        63.9670   38.3050  -25.7380 O.co2     1 ADP998      0.0000 
      3 O2B        65.2940   40.3280  -26.1380 O.co2     1 ADP998      0.0000 
      4 O3B        62.8780   40.3950  -26.5590 O.co2     1 ADP998      0.0000 
      5 PA         63.9590   41.4680  -23.2630 P.3       1 ADP998      0.0000 
      6 O1A        65.4170   41.4790  -22.8910 O.co2     1 ADP998      0.0000 
      7 O2A        63.6040   42.7260  -23.9950 O.co2     1 ADP998      0.0000 
      8 O3A        63.6320   40.2040  -24.1840 O.3       1 ADP998      0.0000 
      9 O5'        63.0860   41.4320  -21.9400 O.3       1 ADP998      0.0000 
     10 C5'        62.0130   42.3920  -21.9710 C.3       1 ADP998      0.0000 
     11 C4'        61.6150   42.9690  -20.6240 C.3       1 ADP998      0.0000 
     12 O4'        61.7740   42.0060  -19.5380 O.3       1 ADP998      0.0000 
     13 C3'        62.3250   44.2460  -20.2410 C.3       1 ADP998      0.0000 
     14 O3'        61.6640   45.3780  -20.8490 O.3       1 ADP998      0.0000 
     15 C2'        62.3870   44.1310  -18.6940 C.3       1 ADP998      0.0000 
     16 O2'        61.3520   44.8420  -17.9850 O.3       1 ADP998      0.0000 
     17 C1'        62.3310   42.6230  -18.4360 C.3       1 ADP998      0.0000 
     18 N9         63.6280   42.0010  -18.1390 N.pl3     1 ADP998      0.0000 
     19 C8         64.1330   40.8360  -18.6150 C.2       1 ADP998      0.0000 
     20 N7         65.0610   40.2850  -17.8080 N.2       1 ADP998      0.0000 
     21 C5         65.2470   41.2420  -16.8200 C.ar      1 ADP998      0.0000 
     22 C6         66.1390   41.2930  -15.7150 C.ar      1 ADP998      0.0000 
     23 N6         67.0260   40.3400  -15.4090 N.pl3     1 ADP998      0.0000 
     24 N1         66.0500   42.3990  -14.9250 N.ar      1 ADP998      0.0000 
     25 C2         65.1320   43.3660  -15.2400 C.ar      1 ADP998      0.0000 
     26 N3         64.2730   43.4050  -16.2210 N.ar      1 ADP998      0.0000 
     27 C4         64.4200   42.3320  -17.0400 C.ar      1 ADP998      0.0000 
     28 H          61.0954   41.9424  -22.4294 H         1 ADP998      0.0000 
     29 H          62.2718   43.2504  -22.6421 H         1 ADP998      0.0000 
     30 H          60.5235   43.2209  -20.6834 H         1 ADP998      0.0000 
     31 H          63.3535   44.1241  -20.6027 H         1 ADP998      0.0000 
     32 H          63.3859   44.4541  -18.4013 H         1 ADP998      0.0000 
     33 H          61.6676   42.4814  -17.5595 H         1 ADP998      0.0000 
     34 H          63.8430   40.4302  -19.4785 H         1 ADP998      0.0000 
     35 H          67.8505   40.6433  -14.9314 H         1 ADP998      0.0000 
     36 H          66.7851   39.4096  -15.6852 H         1 ADP998      0.0000 
     37 H          65.1383   44.2334  -14.5451 H         1 ADP998      0.0000 
     38 H          62.3733   46.0780  -20.9317 H         1 ADP998      0.0000 
     39 H          60.7998   45.2738  -18.6981 H         1 ADP998      0.0000 
@<TRIPOS>BOND
     1    2    1 ar   
     2    3    1 ar   
     3    4    1 ar   
     4    8    1 1    
     5    6    5 ar   
     6    7    5 ar   
     7    8    5 1    
     8    9    5 1    
     9   10    9 1    
    10   11   10 1    
    11   28   10 1    
    12   29   10 1    
    13   12   11 1    
    14   13   11 1    
    15   30   11 1    
    16   17   12 1    
    17   14   13 1    
    18   15   13 1    
    19   31   13 1    
    20   38   14 1    
    21   16   15 1    
    22   17   15 1    
    23   32   15 1    
    24   39   16 1    
    25   18   17 1    
    26   33   17 1    
    27   19   18 1    
    28   27   18 1    
    29   20   19 2    
    30   34   19 1    
    31   21   20 1    
    32   22   21 ar   
    33   27   21 ar   
    34   23   22 1    
    35   24   22 ar   
    36   35   23 1    
    37   36   23 1    
    38   25   24 ar   
    39   26   25 ar   
    40   37   25 1    
    41   27   26 ar   
@<TRIPOS>SUBSTRUCTURE
     1 ADP998      1 GROUP   
@<TRIPOS>SET

