#    Name: 4nr4_2LK_1_INTS_M
#    Modification time : Tue Mar 25 13:18:46 2014

@<TRIPOS>MOLECULE
4nr4_2LK_1_INTS_M
   70     0     6     0     0
SMALL
NO_CHARGES


@<TRIPOS>ATOM
      1 CA         15.7985   40.8435   21.1450 C.3       2 GLC5        0.0000 
      2 CA         13.8360   40.1320   20.5340 C.3       6 GLL5        0.0000 
      3 CA         17.7610   41.5550   21.7560 C.3       4 GLP5        0.0000 
      4 CA         14.8250   39.7870   22.4130 C.3       2 GLC5        0.0000 
      5 CA         15.8140   39.4420   24.2920 C.3       4 GLP5        0.0000 
      6 CA         14.9705   38.8805   20.5955 C.3       2 GLC5        0.0000 
      7 CA         16.1050   37.6290   20.6570 C.3       4 GLP5        0.0000 
      8 CA         14.0575   39.1395   18.8230 C.3       2 GLC5        0.0000 
      9 CA         14.2790   38.1470   17.1120 C.3       4 GLP5        0.0000 
     10 N          12.6905   42.4045   18.3470 N.am      1 SEC2        0.0000 
     11 N          13.8060   42.3820   19.3300 N.am      5 SEL2        0.0000 
     12 N          11.5750   42.4270   17.3640 N.am      3 SEP2        0.0000 
     13 N          12.6030   43.0685   18.5090 N.am      1 SEC2        0.0000 
     14 N          13.6310   43.7100   19.6540 N.am      5 SEL2        0.0000 
     15 CA         11.8475   44.8980   23.2720 C.3       2 GLC5        0.0000 
     16 CA         13.1690   45.1140   21.7210 C.3       6 GLL5        0.0000 
     17 CA         10.5260   44.6820   24.8230 C.3       4 GLP5        0.0000 
     18 CA         12.3820   46.6905   21.0640 C.3       2 GLC5        0.0000 
     19 CA         11.5950   48.2670   20.4070 C.3       4 GLP5        0.0000 
     20 CA         15.0885   44.5460   21.6285 C.3       2 GLC5        0.0000 
     21 CA         17.0080   43.9780   21.5360 C.3       4 GLP5        0.0000 
     22 CA         11.4715   44.3580   20.9855 C.3       2 GLC5        0.0000 
     23 CA          9.7740   43.6020   20.2500 C.3       4 GLP5        0.0000 
     24 CA         14.7510   40.8985   24.7730 C.3       2 GLC5        0.0000 
     25 CA         13.6880   42.3550   25.2540 C.3       6 GLL5        0.0000 
     26 N          14.2745   44.1185   27.2720 N.am      1 SEC2        0.0000 
     27 N          14.2350   42.7630   26.4140 N.am      5 SEL2        0.0000 
     28 N          14.3140   45.4740   28.1300 N.am      3 SEP2        0.0000 
     29 CA         13.0965   39.4335   26.9265 C.3       2 GLC5        0.0000 
     30 CA         11.6670   40.4870   27.6890 C.3       6 GLL5        0.0000 
     31 CA         14.5260   38.3800   26.1640 C.3       4 GLP5        0.0000 
     32 CA         10.7735   43.8675   27.3280 C.3       2 GLC5        0.0000 
     33 CA         10.3270   42.3410   28.6750 C.3       6 GLL5        0.0000 
     34 CA         11.2200   45.3940   25.9810 C.3       4 GLP5        0.0000 
     35 CA          7.4430   45.0545   28.7785 C.3       2 GLC5        0.0000 
     36 CA          6.5000   43.4430   28.1800 C.3       6 GLL5        0.0000 
     37 CA          8.3860   46.6660   29.3770 C.3       4 GLP5        0.0000 
     38 CA          7.6605   44.6615   27.0750 C.3       2 GLC5        0.0000 
     39 CA          8.8210   45.8800   25.9700 C.3       4 GLP5        0.0000 
     40 CA          5.6770   44.1465   26.5960 C.3       2 GLC5        0.0000 
     41 CA          4.8540   44.8500   25.0120 C.3       4 GLP5        0.0000 
     42 CA          6.3605   41.7815   29.2475 C.3       2 GLC5        0.0000 
     43 CA          6.2210   40.1200   30.3150 C.3       4 GLP5        0.0000 
     44 CA         15.2870   43.0335   21.2822 C.3       2 GLC5        0.0000 
     45 CA         13.4500   42.5210   21.5460 C.3       6 GLL5        0.0000 
     46 CA         11.6700   42.8455   20.6392 C.3       2 GLC5        0.0000 
     47 CA         12.0600   43.5722   24.1280 C.3       2 GLC5        0.0000 
     48 CA         13.2340   42.1860   22.8990 C.3       6 GLL5        0.0000 
     49 CA         15.3010   43.2203   22.4845 C.3       2 GLC5        0.0000 
     50 CA         13.9540   42.7390   23.9670 C.3       6 GLL5        0.0000 
     51 CA         11.3142   42.8920   24.3727 C.3       2 GLC5        0.0000 
     52 CA         12.2310   41.2800   23.2540 C.3       6 GLL5        0.0000 
     53 CA         14.3633   40.6566   23.8178 C.3       2 GLC5        0.0000 
     54 CA         10.4693   41.5460   22.9038 C.3       2 GLC5        0.0000 
     55 CA          8.8360   41.9900   21.8850 C.3       4 GLP5        0.0000 
     56 CA         13.4250   39.7987   25.6210 C.3       2 GLC5        0.0000 
     57 CA         11.9740   40.9240   24.5910 C.3       6 GLL5        0.0000 
     58 CA         11.8535   43.3075   25.1163 C.3       2 GLC5        0.0000 
     59 CA         12.6740   41.5110   25.5650 C.3       6 GLL5        0.0000 
     60 CA          8.9390   39.7037   28.7490 C.3       2 GLC5        0.0000 
     61 CA         10.4220   41.2230   27.8270 C.3       6 GLL5        0.0000 
     62 CA          8.0210   38.3810   30.0140 C.3       4 GLP5        0.0000 
     63 CA          8.4650   44.7248   28.8920 C.3       2 GLC5        0.0000 
     64 CA          8.0000   42.5850   28.0270 C.3       6 GLL5        0.0000 
     65 CA          8.8085   43.7292   26.7850 C.3       2 GLC5        0.0000 
     66 CA          9.0880   42.9820   28.7870 C.3       6 GLL5        0.0000 
     67 CA          9.0730   44.6750   25.1630 C.3       4 GLP5        0.0000 
     68 CA          8.8800   42.9172   26.1663 C.3       2 GLC5        0.0000 
     69 CA          8.0820   41.4890   27.1980 C.3       6 GLL5        0.0000 
     70 CA          7.2670   41.1281   29.0588 C.3       2 GLC5        0.0000 
@<TRIPOS>BOND
@<TRIPOS>SUBSTRUCTURE
     1 SEC2       10 GROUP        1 X    SEC  0     ROOT SEC X 2
     2 GLC5        1 GROUP        1 X    GLC  0     **** GLC X 6
     3 SEP2       12 GROUP        1 Y    SEP  0     ROOT SEP Y 9
     4 GLP5        3 GROUP        1 Y    GLP  0     **** GLP Y 13
     5 SEL2       11 GROUP        1 Z    SEL  0     ROOT SEL Z 16
     6 GLL5        2 GROUP        1 Z    GLL  0     **** GLL Z 20
@<TRIPOS>SET

