#    Name: 4nr4_2LK_1_ligand
#    Modification time : Tue Mar 25 13:18:46 2014

@<TRIPOS>MOLECULE
4nr4_2LK_1_ligand
   40    43     1     0     0
SMALL
NO_CHARGES


@<TRIPOS>ATOM
      1 CAU        13.8360   40.1320   20.5340 C.3       1 2LK1201     0.0000 
      2 CAN        13.6820   41.6570   20.5110 C.2       1 2LK1201     0.0000 
      3 OAM        13.8060   42.3820   19.3300 O.3       1 2LK1201     0.0000 
      4 NAL        13.6310   43.7100   19.6540 N.2       1 2LK1201     0.0000 
      5 CAK        13.4160   43.7760   20.9910 C.2       1 2LK1201     0.0000 
      6 CAV        13.1690   45.1140   21.7210 C.3       1 2LK1201     0.0000 
      7 CAJ        13.4500   42.5210   21.5460 C.2       1 2LK1201     0.0000 
      8 CAD        13.2340   42.1860   22.8990 C.ar      1 2LK1201     0.0000 
      9 CAC        13.9540   42.7390   23.9670 C.ar      1 2LK1201     0.0000 
     10 CAE        12.2310   41.2800   23.2540 C.ar      1 2LK1201     0.0000 
     11 CAF        11.9740   40.9240   24.5910 C.ar      1 2LK1201     0.0000 
     12 CAA        12.6740   41.5110   25.5650 C.ar      1 2LK1201     0.0000 
     13 CAB        13.6880   42.3550   25.2540 C.ar      1 2LK1201     0.0000 
     14 NAI        14.2350   42.7630   26.4140 N.2       1 2LK1201     0.0000 
     15 CAH        13.6100   42.1320   27.4180 C.2       1 2LK1201     0.0000 
     16 NAG        12.6520   41.3570   26.9240 N.pl3     1 2LK1201     0.0000 
     17 CAX        11.6670   40.4870   27.6890 C.3       1 2LK1201     0.0000 
     18 CAQ        10.4220   41.2230   27.8270 C.ar      1 2LK1201     0.0000 
     19 CAP        10.3270   42.3410   28.6750 C.ar      1 2LK1201     0.0000 
     20 CAO         9.0880   42.9820   28.7870 C.ar      1 2LK1201     0.0000 
     21 CAT         8.0000   42.5850   28.0270 C.ar      1 2LK1201     0.0000 
     22 CL          6.5000   43.4430   28.1800 Cl        1 2LK1201     0.0000 
     23 CAS         8.0820   41.4890   27.1980 C.ar      1 2LK1201     0.0000 
     24 CAR         9.2920   40.8300   27.1410 C.ar      1 2LK1201     0.0000 
     25 H          14.6865   43.4391   23.7669 H         1 2LK1201     0.0000 
     26 H          11.6497   40.8499   22.5041 H         1 2LK1201     0.0000 
     27 H          11.2503   40.2179   24.7812 H         1 2LK1201     0.0000 
     28 H          13.8311   42.2321   28.3655 H         1 2LK1201     0.0000 
     29 H          12.0960   40.2532   28.6607 H         1 2LK1201     0.0000 
     30 H          11.5191   39.5637   27.1337 H         1 2LK1201     0.0000 
     31 H          11.1337   42.6702   29.1884 H         1 2LK1201     0.0000 
     32 H           8.9886   43.7697   29.4544 H         1 2LK1201     0.0000 
     33 H           7.2868   41.1785   26.6518 H         1 2LK1201     0.0000 
     34 H           9.3579   39.9645   26.5297 H         1 2LK1201     0.0000 
     35 H          14.7376   39.8448   20.2105 H         1 2LK1201     0.0000 
     36 H          13.7236   39.7612   21.4559 H         1 2LK1201     0.0000 
     37 H          13.1587   39.6815   19.9523 H         1 2LK1201     0.0000 
     38 H          13.9391   45.7429   21.6144 H         1 2LK1201     0.0000 
     39 H          12.3573   45.5828   21.3726 H         1 2LK1201     0.0000 
     40 H          13.0323   44.9817   22.7027 H         1 2LK1201     0.0000 
@<TRIPOS>BOND
     1    2    1 1    
     2   35    1 1    
     3   36    1 1    
     4   37    1 1    
     5    3    2 1    
     6    7    2 2    
     7    4    3 1    
     8    5    4 2    
     9    6    5 1    
    10    7    5 1    
    11   38    6 1    
    12   39    6 1    
    13   40    6 1    
    14    8    7 1    
    15    9    8 ar   
    16   10    8 ar   
    17   13    9 ar   
    18   25    9 1    
    19   11   10 ar   
    20   26   10 1    
    21   12   11 ar   
    22   27   11 1    
    23   13   12 ar   
    24   16   12 1    
    25   14   13 1    
    26   15   14 2    
    27   16   15 1    
    28   28   15 1    
    29   17   16 1    
    30   18   17 1    
    31   29   17 1    
    32   30   17 1    
    33   19   18 ar   
    34   24   18 ar   
    35   20   19 ar   
    36   31   19 1    
    37   21   20 ar   
    38   32   20 1    
    39   22   21 1    
    40   23   21 ar   
    41   24   23 ar   
    42   33   23 1    
    43   34   24 1    
@<TRIPOS>SUBSTRUCTURE
     1 2LK1201     1 GROUP   
@<TRIPOS>SET

