#    Name: 3r01_UNE_2_INTS_M
#    Modification time : Tue Mar 25 10:23:49 2014

@<TRIPOS>MOLECULE
3r01_UNE_2_INTS_M
   48     0     9     0     0
SMALL
NO_CHARGES


@<TRIPOS>ATOM
      1 CA         24.1465   32.8185    0.7525 C.3       3 GLC5        0.0000 
      2 CA         22.6210   33.1260    1.9110 C.3       9 GLL5        0.0000 
      3 CA         25.6720   32.5110   -0.4060 C.3       6 GLP5        0.0000 
      4 CA         24.8245   33.1645    2.2335 C.3       3 GLC5        0.0000 
      5 CA         23.1870   34.2310    2.5160 C.3       9 GLL5        0.0000 
      6 CA         26.4620   32.0980    1.9510 C.3       6 GLP5        0.0000 
      7 CA         21.4545   38.5210   -1.2375 C.3       3 GLC5        0.0000 
      8 CA         22.6670   36.8490   -0.7020 C.3       9 GLL5        0.0000 
      9 CA         20.2420   40.1930   -1.7730 C.3       6 GLP5        0.0000 
     10 CA         25.0710   36.4405    3.1840 C.3       3 GLC5        0.0000 
     11 CA         23.5590   36.6820    1.6080 C.3       9 GLL5        0.0000 
     12 CA         26.5830   36.1990    4.7600 C.3       6 GLP5        0.0000 
     13 CA         22.0050   39.6840   -0.8080 C.3       3 GLC5        0.0000 
     14 CA         23.7680   39.1750    0.1570 C.3       9 GLL5        0.0000 
     15 CA         22.1765   38.7495    1.4130 C.3       3 GLC5        0.0000 
     16 CA         20.5850   38.3240    2.6690 C.3       6 GLP5        0.0000 
     17 CA         23.6100   40.7665    0.9510 C.3       3 GLC5        0.0000 
     18 CA         23.4520   42.3580    1.7450 C.3       6 GLP5        0.0000 
     19 CA         25.1235   40.4060   -1.1095 C.3       3 GLC5        0.0000 
     20 CA         26.4790   41.6370   -2.3760 C.3       6 GLP5        0.0000 
     21 CA         20.5820   37.1905   -3.3655 C.3       3 GLC5        0.0000 
     22 CA         21.6890   35.7180   -3.0250 C.3       9 GLL5        0.0000 
     23 CA         19.4750   38.6630   -3.7060 C.3       6 GLP5        0.0000 
     24 CA         20.3165   35.8800   -1.4860 C.3       3 GLC5        0.0000 
     25 CA         18.9440   36.0420    0.0530 C.3       6 GLP5        0.0000 
     26 NZ         20.9490   30.1365    2.0170 N.4       2 LYC4        0.0000 
     27 NZ         21.8660   30.9710    1.6980 N.4       8 LYL4        0.0000 
     28 NZ         20.0320   29.3020    2.3360 N.4       5 LYP4        0.0000 
     29 N          20.9490   30.1365    2.0170 N.am      1 SEC2        0.0000 
     30 N          21.8660   30.9710    1.6980 N.am      7 SEL2        0.0000 
     31 N          20.0320   29.3020    2.3360 N.am      4 SEP2        0.0000 
     32 NZ         21.4630   30.4095    3.0125 N.4       2 LYC4        0.0000 
     33 NZ         22.8940   31.5170    3.6890 N.4       8 LYL4        0.0000 
     34 N          23.9865   30.5480    3.3135 N.am      1 SEC2        0.0000 
     35 N          22.8940   31.5170    3.6890 N.am      7 SEL2        0.0000 
     36 N          25.0790   29.5790    2.9380 N.am      4 SEP2        0.0000 
     37 CA         21.7320   33.8597    3.8323 C.3       3 GLC5        0.0000 
     38 CA         20.5600   34.0410    5.4510 C.3       6 GLP5        0.0000 
     39 CA         21.9633   37.1500    2.1265 C.3       3 GLC5        0.0000 
     40 CA         23.1240   35.2700    1.5600 C.3       9 GLL5        0.0000 
     41 CA         25.1902   36.3465    1.0790 C.3       3 GLC5        0.0000 
     42 CA         27.0390   36.7170    0.5740 C.3       6 GLP5        0.0000 
     43 CA         24.2480   33.7658    0.2945 C.3       3 GLC5        0.0000 
     44 CA         20.7404   36.0181   -0.1857 C.3       3 GLC5        0.0000 
     45 CA         22.5240   34.7710    0.4300 C.3       9 GLL5        0.0000 
     46 CA         21.7820   37.7127    1.2725 C.3       3 GLC5        0.0000 
     47 CA         25.2843   37.4907    0.4397 C.3       3 GLC5        0.0000 
     48 CA         23.2910   37.3540    0.4540 C.3       9 GLL5        0.0000 
@<TRIPOS>BOND
@<TRIPOS>SUBSTRUCTURE
     1 SEC2       29 GROUP        1 X    SEC  0     ROOT SEC X 2
     2 LYC4       26 GROUP        1 X    LYC  0     **** LYC X 4
     3 GLC5        1 GROUP        1 X    GLC  0     **** GLC X 6
     4 SEP2       31 GROUP        1 Y    SEP  0     ROOT SEP Y 9
     5 LYP4       28 GROUP        1 Y    LYP  0     **** LYP Y 11
     6 GLP5        3 GROUP        1 Y    GLP  0     **** GLP Y 13
     7 SEL2       30 GROUP        1 Z    SEL  0     ROOT SEL Z 16
     8 LYL4       27 GROUP        1 Z    LYL  0     **** LYL Z 18
     9 GLL5        2 GROUP        1 Z    GLL  0     **** GLL Z 20
@<TRIPOS>SET

