#    Name: 3r01_UNE_2_ligand
#    Modification time : Tue Mar 25 10:23:49 2014

@<TRIPOS>MOLECULE
3r01_UNE_2_ligand
   21    22     1     0     0
SMALL
NO_CHARGES


@<TRIPOS>ATOM
      1 O01        22.2000   33.4440    0.6570 O.3       1 UNE1        0.0000 
      2 C02        22.6210   33.1260    1.9110 C.2       1 UNE1        0.0000 
      3 C03        23.1870   34.2310    2.5160 C.2       1 UNE1        0.0000 
      4 C04        23.1240   35.2700    1.5600 C.ar      1 UNE1        0.0000 
      5 C05        22.5240   34.7710    0.4300 C.ar      1 UNE1        0.0000 
      6 C06        22.2890   35.5080   -0.7240 C.ar      1 UNE1        0.0000 
      7 C07        22.6670   36.8490   -0.7020 C.ar      1 UNE1        0.0000 
      8 C08        23.2910   37.3540    0.4540 C.ar      1 UNE1        0.0000 
      9 C09        23.5590   36.6820    1.6080 C.ar      1 UNE1        0.0000 
     10 BR10       23.7680   39.1750    0.1570 Br        1 UNE1        0.0000 
     11 O11        21.6800   34.9840   -1.8390 O.3       1 UNE1        0.0000 
     12 C12        21.6890   35.7180   -3.0250 C.3       1 UNE1        0.0000 
     13 C13        22.4320   31.7800    2.4330 C.2       1 UNE1        0.0000 
     14 O14        21.8660   30.9710    1.6980 O.co2     1 UNE1        0.0000 
     15 O15        22.8940   31.5170    3.6890 O.co2     1 UNE1        0.0000 
     16 H          23.5417   34.2975    3.3738 H         1 UNE1        0.0000 
     17 H          22.4987   37.4541   -1.4995 H         1 UNE1        0.0000 
     18 H          23.9840   37.0346    2.4038 H         1 UNE1        0.0000 
     19 H          22.6198   35.9030   -3.3402 H         1 UNE1        0.0000 
     20 H          21.2198   35.2350   -3.7643 H         1 UNE1        0.0000 
     21 H          21.2346   36.6023   -2.9179 H         1 UNE1        0.0000 
@<TRIPOS>BOND
     1    2    1 1    
     2    5    1 1    
     3    3    2 2    
     4   13    2 1    
     5    4    3 1    
     6   16    3 1    
     7    5    4 ar   
     8    9    4 ar   
     9    6    5 ar   
    10    7    6 ar   
    11   11    6 1    
    12    8    7 ar   
    13   17    7 1    
    14    9    8 ar   
    15   10    8 1    
    16   18    9 1    
    17   12   11 1    
    18   19   12 1    
    19   20   12 1    
    20   21   12 1    
    21   14   13 ar   
    22   15   13 ar   
@<TRIPOS>SUBSTRUCTURE
     1 UNE1        1 GROUP   
@<TRIPOS>SET

