#    Name: 3sa3_23X_1_INTS_M
#    Modification time : Mon Apr  7 22:08:53 2014

@<TRIPOS>MOLECULE
3sa3_23X_1_INTS_M
   98     0     9     0     0
SMALL
NO_CHARGES


@<TRIPOS>ATOM
      1 N          22.5730   23.7185   12.6080 N.am      2 SEC2        0.0000 
      2 N          21.6780   24.4120   11.7310 N.am      8 SEL2        0.0000 
      3 N          23.4680   23.0250   13.4850 N.am      5 SEP2        0.0000 
      4 O          21.5190   26.9550    9.3230 O.2       1 ALC1        0.0000 
      5 O          21.5760   26.3940   10.6710 O.2       7 ALL1        0.0000 
      6 O          21.4620   27.5160    7.9750 O.2       4 ALP1        0.0000 
      7 CA         22.4820   26.0140   13.3630 C.3       3 GLC5        0.0000 
      8 CA         22.1220   27.1990   11.7500 C.3       9 GLL5        0.0000 
      9 CA         22.8420   24.8290   14.9760 C.3       6 GLP5        0.0000 
     10 CA         23.8305   29.8955   10.3755 C.3       3 GLC5        0.0000 
     11 CA         23.3510   27.9680   11.2830 C.3       9 GLL5        0.0000 
     12 CA         24.3100   31.8230    9.4680 C.3       6 GLP5        0.0000 
     13 CA         23.9405   27.2490   13.9180 C.3       3 GLC5        0.0000 
     14 CA         24.0180   28.6180   12.4800 C.3       9 GLL5        0.0000 
     15 CA         23.8630   25.8800   15.3560 C.3       6 GLP5        0.0000 
     16 CA         26.0990   29.1580   12.5475 C.3       3 GLC5        0.0000 
     17 CA         28.1800   29.6980   12.6150 C.3       6 GLP5        0.0000 
     18 CA         24.7010   29.7975   13.8370 C.3       3 GLC5        0.0000 
     19 CA         25.3840   30.9770   15.1940 C.3       6 GLP5        0.0000 
     20 CA         24.5775   30.3560   11.5970 C.3       3 GLC5        0.0000 
     21 CA         25.1370   32.0940   10.7140 C.3       6 GLP5        0.0000 
     22 CA         24.3610   25.9175   13.3215 C.3       3 GLC5        0.0000 
     23 CA         24.8590   25.9550   11.2870 C.3       9 GLL5        0.0000 
     24 CA         26.3880   24.7640   11.3490 C.3       3 GLC5        0.0000 
     25 CA         27.9170   23.5730   11.4110 C.3       6 GLP5        0.0000 
     26 CA         20.6515   33.5565   12.8340 C.3       3 GLC5        0.0000 
     27 CA         21.7600   32.1620   14.0550 C.3       9 GLL5        0.0000 
     28 CA         19.5430   34.9510   11.6130 C.3       6 GLP5        0.0000 
     29 CA         22.2905   32.1050   11.8800 C.3       3 GLC5        0.0000 
     30 CA         22.8210   32.0480    9.7050 C.3       6 GLP5        0.0000 
     31 CA         22.9845   34.8750   14.5185 C.3       3 GLC5        0.0000 
     32 CA         22.1500   33.5320   16.0950 C.3       9 GLL5        0.0000 
     33 CA         23.8190   36.2180   12.9420 C.3       6 GLP5        0.0000 
     34 CA         18.0220   30.7230   17.8995 C.3       3 GLC5        0.0000 
     35 CA         18.9380   30.2340   15.9480 C.3       9 GLL5        0.0000 
     36 CA         17.1060   31.2120   19.8510 C.3       6 GLP5        0.0000 
     37 CA         22.8180   32.6750   18.9580 C.3       3 GLC5        0.0000 
     38 CA         22.0740   33.5480   17.5990 C.3       9 GLL5        0.0000 
     39 CA         23.5620   31.8020   20.3170 C.3       6 GLP5        0.0000 
     40 CA         23.6820   34.9710   17.6975 C.3       3 GLC5        0.0000 
     41 CA         25.2900   36.3940   17.7960 C.3       6 GLP5        0.0000 
     42 N          19.3345   27.5850   17.6240 N.am      2 SEC2        0.0000 
     43 N          19.8660   28.0320   16.2900 N.am      8 SEL2        0.0000 
     44 N          18.8030   27.1380   18.9580 N.am      5 SEP2        0.0000 
     45 O          18.6850   27.8340   16.7625 O.2       1 ALC1        0.0000 
     46 O          19.8660   28.0320   16.2900 O.2       7 ALL1        0.0000 
     47 O          17.5040   27.6360   17.2350 O.2       4 ALP1        0.0000 
     48 O          20.2735   26.4460   14.0165 O.2       1 ALC1        0.0000 
     49 O          20.4500   27.8560   13.3770 O.2       7 ALL1        0.0000 
     50 O          20.0970   25.0360   14.6560 O.2       4 ALP1        0.0000 
     51 CA         18.8405   26.2090   15.4880 C.3       3 GLC5        0.0000 
     52 CA         18.0900   27.7610   14.0450 C.3       9 GLL5        0.0000 
     53 CA         19.5910   24.6570   16.9310 C.3       6 GLP5        0.0000 
     54 N          14.4100   34.5355   19.6610 N.am      2 SEC2        0.0000 
     55 N          14.8390   35.1700   18.2830 N.am      8 SEL2        0.0000 
     56 N          13.9810   33.9010   21.0390 N.am      5 SEP2        0.0000 
     57 CA         16.2535   32.7515   18.6305 C.3       3 GLC5        0.0000 
     58 CA         15.4010   34.2910   17.4100 C.3       9 GLL5        0.0000 
     59 CA         13.7400   34.6790   18.7415 C.3       3 GLC5        0.0000 
     60 CA         12.0790   35.0670   20.0730 C.3       6 GLP5        0.0000 
     61 CA         14.1730   34.8655   15.6405 C.3       3 GLC5        0.0000 
     62 CA         12.9450   35.4400   13.8710 C.3       6 GLP5        0.0000 
     63 CA         15.6910   32.5105   13.6525 C.3       3 GLC5        0.0000 
     64 CA         16.8390   32.8770   15.4710 C.3       9 GLL5        0.0000 
     65 CA         14.5430   32.1440   11.8340 C.3       6 GLP5        0.0000 
     66 CA         14.9630   30.3305   16.7455 C.3       3 GLC5        0.0000 
     67 CA         15.8960   32.2240   16.2810 C.3       9 GLL5        0.0000 
     68 CA         14.0300   28.4370   17.2100 C.3       6 GLP5        0.0000 
     69 CA         26.0355   27.5123    9.7778 C.3       3 GLC5        0.0000 
     70 CA         24.3570   27.1320   10.4840 C.3       9 GLL5        0.0000 
     71 CA         27.4630   28.4810    8.6700 C.3       6 GLP5        0.0000 
     72 CA         23.6235   31.9335   15.3186 C.3       3 GLC5        0.0000 
     73 CA         16.0850   29.9080   10.7975 C.3       3 GLC5        0.0000 
     74 CA         16.9090   27.8460   10.4300 C.3       9 GLL5        0.0000 
     75 CA         15.1220   31.7670   10.5130 C.3       6 GLP5        0.0000 
     76 CA         15.5920   26.9465   11.5020 C.3       3 GLC5        0.0000 
     77 CA         17.1870   28.2520   11.7340 C.3       9 GLL5        0.0000 
     78 CA         14.1360   25.8440   11.9220 C.3       6 GLP5        0.0000 
     79 CA         15.8999   28.3551   13.3069 C.3       3 GLC5        0.0000 
     80 CA         14.2450   28.8070   14.0780 C.3       6 GLP5        0.0000 
     81 CA         15.8210   27.3732    8.9055 C.3       3 GLC5        0.0000 
     82 CA         14.5970   27.5520    7.5800 C.3       6 GLP5        0.0000 
     83 CA         18.2272   28.3015    9.4490 C.3       3 GLC5        0.0000 
     84 CA         17.1810   26.5430   10.0320 C.3       9 GLL5        0.0000 
     85 CA         19.3400   29.3070    8.3410 C.3       6 GLP5        0.0000 
     86 CA         15.8023   25.9678   11.1990 C.3       3 GLC5        0.0000 
     87 CA         17.2021   25.3516   13.8666 C.3       3 GLC5        0.0000 
     88 CA         18.0160   26.0520   12.2190 C.3       9 GLL5        0.0000 
     89 CA         16.4350   23.9000   14.9550 C.3       6 GLP5        0.0000 
     90 CA         16.0108   26.2720   12.1732 C.3       3 GLC5        0.0000 
     91 CA         15.1822   36.7665   15.5585 C.3       3 GLC5        0.0000 
     92 CA         16.3260   34.9700   16.6220 C.3       9 GLL5        0.0000 
     93 CA         13.9570   37.7270   14.3450 C.3       6 GLP5        0.0000 
     94 CA         15.7680   31.4495   18.0265 C.3       3 GLC5        0.0000 
     95 CA         15.1840   32.9300   17.2450 C.3       9 GLL5        0.0000 
     96 CA         15.9960   30.3220   19.2900 C.3       6 GLP5        0.0000 
     97 CA         13.7366   32.7821   16.3206 C.3       3 GLC5        0.0000 
     98 CA         11.8790   32.6470   15.8370 C.3       6 GLP5        0.0000 
@<TRIPOS>BOND
@<TRIPOS>SUBSTRUCTURE
     1 ALC1        4 GROUP        1 X    ALC  0     ROOT ALC X 1
     2 SEC2        1 GROUP        1 X    SEC  0     **** SEC X 2
     3 GLC5        7 GROUP        1 X    GLC  0     **** GLC X 6
     4 ALP1        6 GROUP        1 Y    ALP  0     ROOT ALP Y 8
     5 SEP2        3 GROUP        1 Y    SEP  0     **** SEP Y 9
     6 GLP5        9 GROUP        1 Y    GLP  0     **** GLP Y 13
     7 ALL1        5 GROUP        1 Z    ALL  0     ROOT ALL Z 15
     8 SEL2        2 GROUP        1 Z    SEL  0     **** SEL Z 16
     9 GLL5        8 GROUP        1 Z    GLL  0     **** GLL Z 20
@<TRIPOS>SET

