#    Name: 3sa3_23X_1_ligand
#    Modification time : Mon Apr  7 22:08:53 2014

@<TRIPOS>MOLECULE
3sa3_23X_1_ligand
   83    85     1     0     0
SMALL
NO_CHARGES


@<TRIPOS>ATOM
      1 C27        21.4150   25.0750   10.7320 C.2       1 23X101      0.0000 
      2 O27        21.6780   24.4120   11.7310 O.2       1 23X101      0.0000 
      3 C28        20.9190   24.4260    9.4710 C.3       1 23X101      0.0000 
      4 N27        21.5760   26.3940   10.6710 N.am      1 23X101      0.0000 
      5 C22        22.1220   27.1990   11.7500 C.3       1 23X101      0.0000 
      6 C21        21.0950   28.1910   12.2600 C.2       1 23X101      0.0000 
      7 O22        20.8700   29.2160   11.6170 O.2       1 23X101      0.0000 
      8 C23        23.3510   27.9680   11.2830 C.3       1 23X101      0.0000 
      9 C25        24.3570   27.1320   10.4840 C.3       1 23X101      0.0000 
     10 C24        24.0180   28.6180   12.4800 C.3       1 23X101      0.0000 
     11 C26        24.8590   25.9550   11.2870 C.3       1 23X101      0.0000 
     12 N11        19.0700   31.4610   15.1210 N.pl3     1 23X101      0.0000 
     13 C12        19.8870   32.5300   15.7490 C.3       1 23X101      0.0000 
     14 C13        21.3920   32.3340   15.5280 C.3       1 23X101      0.0000 
     15 C14        21.7600   32.1620   14.0550 C.3       1 23X101      0.0000 
     16 C15        22.1500   33.5320   16.0950 C.3       1 23X101      0.0000 
     17 C16        18.9380   30.2340   15.9480 C.3       1 23X101      0.0000 
     18 C17        19.8170   29.1160   15.3670 C.3       1 23X101      0.0000 
     19 C18        22.0740   33.5480   17.5990 C.3       1 23X101      0.0000 
     20 O18        19.8660   28.0320   16.2900 O.3       1 23X101      0.0000 
     21 C19        19.3650   28.6100   13.9890 C.3       1 23X101      0.0000 
     22 N20        20.4500   27.8560   13.3770 N.am      1 23X101      0.0000 
     23 C32        18.0900   27.7610   14.0450 C.3       1 23X101      0.0000 
     24 C33        17.1870   28.2520   11.7340 C.ar      1 23X101      0.0000 
     25 C34        16.9090   27.8460   10.4300 C.ar      1 23X101      0.0000 
     26 C35        17.1810   26.5430   10.0320 C.ar      1 23X101      0.0000 
     27 C36        17.7560   25.6400   10.9200 C.ar      1 23X101      0.0000 
     28 C37        18.0160   26.0520   12.2190 C.ar      1 23X101      0.0000 
     29 C38        17.7550   27.3480   12.6300 C.ar      1 23X101      0.0000 
     30 C1         15.2770   36.4220   18.1390 C.2       1 23X101      0.0000 
     31 N1         14.8390   35.1700   18.2830 N.2       1 23X101      0.0000 
     32 S1         16.4890   36.6420   16.9220 S.3       1 23X101      0.0000 
     33 C2         15.4010   34.2910   17.4100 C.ar      1 23X101      0.0000 
     34 C3         16.3260   34.9700   16.6220 C.ar      1 23X101      0.0000 
     35 C4         17.0410   34.2480   15.6520 C.ar      1 23X101      0.0000 
     36 C5         16.8390   32.8770   15.4710 C.ar      1 23X101      0.0000 
     37 C6         15.8960   32.2240   16.2810 C.ar      1 23X101      0.0000 
     38 C7         15.1840   32.9300   17.2450 C.ar      1 23X101      0.0000 
     39 S8         17.7000   31.9770   14.4080 S.o2      1 23X101      0.0000 
     40 O9         18.1180   32.7390   13.2740 O.2       1 23X101      0.0000 
     41 O10        16.9960   30.8230   14.0120 O.2       1 23X101      0.0000 
     42 H          21.3044   26.9366    9.8037 H         1 23X101      0.0000 
     43 H          22.4220   26.5701   12.5817 H         1 23X101      0.0000 
     44 H          23.0014   28.7884   10.6285 H         1 23X101      0.0000 
     45 H          25.1980   27.7695   10.2001 H         1 23X101      0.0000 
     46 H          23.8727   26.7754    9.5716 H         1 23X101      0.0000 
     47 H          19.6997   32.5632   16.8338 H         1 23X101      0.0000 
     48 H          19.6042   33.5131   15.3410 H         1 23X101      0.0000 
     49 H          21.7107   31.4522   16.0719 H         1 23X101      0.0000 
     50 H          21.7152   34.4485   15.6937 H         1 23X101      0.0000 
     51 H          23.1924   33.4736   15.7787 H         1 23X101      0.0000 
     52 H          17.9051   29.8904   15.9586 H         1 23X101      0.0000 
     53 H          19.2569   30.4272   16.9708 H         1 23X101      0.0000 
     54 H          20.8311   29.5340   15.2444 H         1 23X101      0.0000 
     55 H          19.1518   29.4920   13.3715 H         1 23X101      0.0000 
     56 H          20.7164   26.9659   13.9047 H         1 23X101      0.0000 
     57 H          17.2896   28.3517   14.4560 H         1 23X101      0.0000 
     58 H          18.2717   26.8896   14.6503 H         1 23X101      0.0000 
     59 H          16.9752   29.2089   12.0321 H         1 23X101      0.0000 
     60 H          16.5014   28.5142    9.7621 H         1 23X101      0.0000 
     61 H          16.9552   26.2424    9.0713 H         1 23X101      0.0000 
     62 H          17.9821   24.6911   10.6196 H         1 23X101      0.0000 
     63 H          18.4151   25.3725   12.8969 H         1 23X101      0.0000 
     64 H          15.0652   37.2532   18.5711 H         1 23X101      0.0000 
     65 H          17.7301   34.7439   15.0614 H         1 23X101      0.0000 
     66 H          15.7346   31.2150   16.1559 H         1 23X101      0.0000 
     67 H          14.4969   32.4423   17.8350 H         1 23X101      0.0000 
     68 H          21.5781   23.7672    9.1083 H         1 23X101      0.0000 
     69 H          20.0623   23.9320    9.6197 H         1 23X101      0.0000 
     70 H          20.7487   25.0975    8.7498 H         1 23X101      0.0000 
     71 H          24.3059   27.9413   13.1576 H         1 23X101      0.0000 
     72 H          24.8331   29.1339   12.2163 H         1 23X101      0.0000 
     73 H          23.4050   29.2564   12.9455 H         1 23X101      0.0000 
     74 H          25.5193   25.4085   10.7719 H         1 23X101      0.0000 
     75 H          25.3131   26.2464   12.1290 H         1 23X101      0.0000 
     76 H          24.1148   25.3420   11.5524 H         1 23X101      0.0000 
     77 H          22.7442   32.0363   13.9303 H         1 23X101      0.0000 
     78 H          21.3093   31.3665   13.6500 H         1 23X101      0.0000 
     79 H          21.4949   32.9578   13.5106 H         1 23X101      0.0000 
     80 H          22.4669   32.7203   17.9995 H         1 23X101      0.0000 
     81 H          22.5690   34.3251   17.9876 H         1 23X101      0.0000 
     82 H          21.1298   33.6105   17.9225 H         1 23X101      0.0000 
     83 H          18.9559   27.6193   16.2529 H         1 23X101      0.0000 
@<TRIPOS>BOND
     1    2    1 2    
     2    3    1 1    
     3    4    1 am   
     4   68    3 1    
     5   69    3 1    
     6   70    3 1    
     7    5    4 1    
     8   42    4 1    
     9    6    5 1    
    10    8    5 1    
    11   43    5 1    
    12    7    6 2    
    13   22    6 am   
    14    9    8 1    
    15   10    8 1    
    16   44    8 1    
    17   11    9 1    
    18   45    9 1    
    19   46    9 1    
    20   71   10 1    
    21   72   10 1    
    22   73   10 1    
    23   74   11 1    
    24   75   11 1    
    25   76   11 1    
    26   13   12 1    
    27   17   12 1    
    28   39   12 1    
    29   14   13 1    
    30   47   13 1    
    31   48   13 1    
    32   15   14 1    
    33   16   14 1    
    34   49   14 1    
    35   77   15 1    
    36   78   15 1    
    37   79   15 1    
    38   19   16 1    
    39   50   16 1    
    40   51   16 1    
    41   18   17 1    
    42   52   17 1    
    43   53   17 1    
    44   20   18 1    
    45   21   18 1    
    46   54   18 1    
    47   80   19 1    
    48   81   19 1    
    49   82   19 1    
    50   83   20 1    
    51   22   21 1    
    52   23   21 1    
    53   55   21 1    
    54   56   22 1    
    55   29   23 1    
    56   57   23 1    
    57   58   23 1    
    58   25   24 ar   
    59   29   24 ar   
    60   59   24 1    
    61   26   25 ar   
    62   60   25 1    
    63   27   26 ar   
    64   61   26 1    
    65   28   27 ar   
    66   62   27 1    
    67   29   28 ar   
    68   63   28 1    
    69   31   30 2    
    70   32   30 1    
    71   64   30 1    
    72   33   31 1    
    73   34   32 1    
    74   34   33 ar   
    75   38   33 ar   
    76   35   34 ar   
    77   36   35 ar   
    78   65   35 1    
    79   37   36 ar   
    80   39   36 1    
    81   38   37 ar   
    82   66   37 1    
    83   67   38 1    
    84   40   39 2    
    85   41   39 2    
@<TRIPOS>SUBSTRUCTURE
     1 23X101      1 GROUP   
@<TRIPOS>SET

