#    Name: 4i8p_NAD_1_INTS_M
#    Modification time : Tue Mar 25 02:32:49 2014

@<TRIPOS>MOLECULE
4i8p_NAD_1_INTS_M
  105     0     9     0     0
SMALL
NO_CHARGES


@<TRIPOS>ATOM
      1 N          -4.5635  -14.2150   33.4120 N.am      2 SEC2        0.0000 
      2 N          -5.1520  -14.8520   32.3060 N.am      8 SEL2        0.0000 
      3 N          -3.9750  -13.5780   34.5180 N.am      5 SEP2        0.0000 
      4 N          -4.2965  -15.6580   33.4195 N.am      2 SEC2        0.0000 
      5 N          -3.4410  -16.4640   34.5330 N.am      5 SEP2        0.0000 
      6 N          -4.3175  -15.8900   31.9270 N.am      2 SEC2        0.0000 
      7 N          -3.4830  -16.9280   31.5480 N.am      5 SEP2        0.0000 
      8 CA         -8.5685  -11.5830   31.1635 C.3       3 GLC5        0.0000 
      9 CA         -7.0610  -13.0080   30.5450 C.3       9 GLL5        0.0000 
     10 CA        -10.0760  -10.1580   31.7820 C.3       6 GLP5        0.0000 
     11 CA         -5.9135  -12.3015   31.9585 C.3       3 GLC5        0.0000 
     12 CA         -4.7660  -11.5950   33.3720 C.3       6 GLP5        0.0000 
     13 CA        -10.4485  -12.9235   28.1345 C.3       3 GLC5        0.0000 
     14 CA         -8.5300  -13.3480   28.4350 C.3       9 GLL5        0.0000 
     15 CA        -12.3670  -12.4990   27.8340 C.3       6 GLP5        0.0000 
     16 N          -9.5035  -13.1960   26.0910 N.am      2 SEC2        0.0000 
     17 N          -8.9360  -12.4810   27.3790 N.am      8 SEL2        0.0000 
     18 N         -10.0710  -13.9110   24.8030 N.am      5 SEP2        0.0000 
     19 O          -9.2470  -11.3735   28.2110 O.2       1 ALC1        0.0000 
     20 O          -8.9360  -12.4810   27.3790 O.2       7 ALL1        0.0000 
     21 O          -9.5580  -10.2660   29.0430 O.2       4 ALP1        0.0000 
     22 N          -9.5250  -14.5560   25.8280 N.am      2 SEC2        0.0000 
     23 N          -8.9790  -15.2010   26.8530 N.am      8 SEL2        0.0000 
     24 O         -10.1770  -15.6280   26.9700 O.2       1 ALC1        0.0000 
     25 O          -8.9790  -15.2010   26.8530 O.2       7 ALL1        0.0000 
     26 O         -11.3750  -16.0550   27.0870 O.2       4 ALP1        0.0000 
     27 CA         -6.1345  -12.7520   26.8765 C.3       3 GLC5        0.0000 
     28 CA         -6.7130  -14.4250   27.4160 C.3       9 GLL5        0.0000 
     29 CA         -5.5560  -11.0790   26.3370 C.3       6 GLP5        0.0000 
     30 CA         -2.6725  -17.6290   23.9380 C.3       3 GLC5        0.0000 
     31 CA         -3.0930  -17.3630   25.9920 C.3       9 GLL5        0.0000 
     32 CA         -2.2520  -17.8950   21.8840 C.3       6 GLP5        0.0000 
     33 CA         -1.6525  -18.5575   27.2305 C.3       3 GLC5        0.0000 
     34 CA         -0.2120  -19.7520   28.4690 C.3       6 GLP5        0.0000 
     35 CA         -3.2240  -13.0945   24.5270 C.3       3 GLC5        0.0000 
     36 CA         -3.0850  -15.2250   25.0980 C.3       9 GLL5        0.0000 
     37 CA         -3.3630  -10.9640   23.9560 C.3       6 GLP5        0.0000 
     38 CA         -4.3580  -14.8000   23.7500 C.3       3 GLC5        0.0000 
     39 CA         -5.6310  -14.3750   22.4020 C.3       6 GLP5        0.0000 
     40 CA         -2.7575  -15.8070   23.3740 C.3       3 GLC5        0.0000 
     41 CA         -2.4300  -16.3890   21.6500 C.3       6 GLP5        0.0000 
     42 CA         -1.9470  -14.0955   25.7240 C.3       3 GLC5        0.0000 
     43 CA         -0.8090  -12.9660   26.3500 C.3       6 GLP5        0.0000 
     44 CA         -5.1855  -15.0435   24.4415 C.3       3 GLC5        0.0000 
     45 CA         -4.7400  -15.7120   26.4810 C.3       9 GLL5        0.0000 
     46 N         -10.8090  -14.8400   34.3615 N.am      2 SEC2        0.0000 
     47 N          -9.4010  -15.1900   34.3810 N.am      8 SEL2        0.0000 
     48 N         -12.2170  -14.4900   34.3420 N.am      5 SEP2        0.0000 
     49 CA         -8.9265  -11.5485   34.6090 C.3       3 GLC5        0.0000 
     50 CA         -8.4960  -12.9140   36.0960 C.3       9 GLL5        0.0000 
     51 CA         -9.3570  -10.1830   33.1220 C.3       6 GLP5        0.0000 
     52 CA         -9.5395  -12.7500   37.5580 C.3       3 GLC5        0.0000 
     53 CA        -10.5830  -12.5860   39.0200 C.3       6 GLP5        0.0000 
     54 CA         -5.8960  -12.1315   34.8655 C.3       3 GLC5        0.0000 
     55 CA         -7.0260  -12.6680   36.3590 C.3       9 GLL5        0.0000 
     56 O          -5.2335  -13.8420   39.2535 O.2       1 ALC1        0.0000 
     57 O          -5.3860  -13.3810   38.0310 O.2       7 ALL1        0.0000 
     58 O          -5.0810  -14.3030   40.4760 O.2       4 ALP1        0.0000 
     59 O          -5.6540  -11.7175   40.4570 O.2       1 ALC1        0.0000 
     60 O          -5.7400  -10.9420   39.2980 O.2       7 ALL1        0.0000 
     61 O          -5.5680  -12.4930   41.6160 O.2       4 ALP1        0.0000 
     62 CA         -5.3725  -11.1130   35.1520 C.3       3 GLC5        0.0000 
     63 CA         -5.9790  -10.6310   36.9320 C.3       9 GLL5        0.0000 
     64 CA         -3.1965   -9.0530   36.8305 C.3       3 GLC5        0.0000 
     65 CA         -5.2170   -8.2680   36.9950 C.3       9 GLL5        0.0000 
     66 CA         -1.1760   -9.8380   36.6660 C.3       6 GLP5        0.0000 
     67 CA         -5.8340   -8.0705   38.4470 C.3       3 GLC5        0.0000 
     68 CA         -6.4510   -7.8730   39.8990 C.3       6 GLP5        0.0000 
     69 O          -3.0325   -4.1190   36.7340 O.2       1 ALC1        0.0000 
     70 O          -4.5980   -4.6190   36.9850 O.2       7 ALL1        0.0000 
     71 O          -1.4670   -3.6190   36.4830 O.2       4 ALP1        0.0000 
     72 CA         -7.0120   -8.2755   38.3165 C.3       3 GLC5        0.0000 
     73 CA         -7.5730   -8.6780   36.7340 C.3       9 GLL5        0.0000 
     74 CA         -5.2260  -12.4982   29.5093 C.3       3 GLC5        0.0000 
     75 CA         -3.3090  -12.0730   29.2190 C.3       6 GLP5        0.0000 
     76 CA         -6.7167  -12.0862   27.5407 C.3       3 GLC5        0.0000 
     77 CA         -7.2250  -12.8390   29.0540 C.3       9 GLL5        0.0000 
     78 CA         -8.2205  -13.9415   25.7838 C.3       3 GLC5        0.0000 
     79 CA         -9.0200  -13.3100   23.9150 C.3       6 GLP5        0.0000 
     80 CA         -7.5160  -16.0230   26.3337 C.3       3 GLC5        0.0000 
     81 CA         -8.1290  -14.7210   27.8890 C.3       9 GLL5        0.0000 
     82 CA         -7.6110  -17.4730   25.0150 C.3       6 GLP5        0.0000 
     83 CA         -6.0545  -16.9123   25.8030 C.3       3 GLC5        0.0000 
     84 CA         -3.4991  -16.0652   28.0094 C.3       3 GLC5        0.0000 
     85 CA         -4.2560  -16.9910   26.7010 C.3       9 GLL5        0.0000 
     86 CA         -2.7910  -15.6860   29.6050 C.3       6 GLP5        0.0000 
     87 CA         -5.0585  -13.5035   36.3420 C.3       3 GLC5        0.0000 
     88 CA         -3.2850  -14.3080   35.5880 C.3       6 GLP5        0.0000 
     89 CA         -4.4867  -11.2012   38.6580 C.3       3 GLC5        0.0000 
     90 CA         -6.5980  -11.2460   38.2080 C.3       9 GLL5        0.0000 
     91 CA         -2.6850  -11.4640   39.7460 C.3       6 GLP5        0.0000 
     92 CA         -6.3697   -9.4058   38.7345 C.3       3 GLC5        0.0000 
     93 CA         -8.2520  -11.7707   38.5855 C.3       3 GLC5        0.0000 
     94 CA         -9.7890  -11.5690   39.5190 C.3       6 GLP5        0.0000 
     95 CA         -5.5225   -7.3665   35.3690 C.3       3 GLC5        0.0000 
     96 CA         -5.7170   -7.1500   33.7490 C.3       6 GLP5        0.0000 
     97 CA         -8.1375   -5.6333   35.6345 C.3       3 GLC5        0.0000 
     98 CA         -6.7550   -6.4330   36.8750 C.3       9 GLL5        0.0000 
     99 CA         -8.9880   -4.3870   34.4530 C.3       6 GLP5        0.0000 
    100 CA         -8.3405   -8.3630   35.0382 C.3       3 GLC5        0.0000 
    101 CA         -7.8190   -7.3260   36.7570 C.3       9 GLL5        0.0000 
    102 CA         -8.9850   -8.7240   33.3310 C.3       6 GLP5        0.0000 
    103 CA         -6.9360   -6.5684   38.2190 C.3       3 GLC5        0.0000 
    104 CA         -6.9140   -6.1410   39.5950 C.3       6 GLP5        0.0000 
    105 CA         -6.5735   -7.4644   35.2620 C.3       3 GLC5        0.0000 
@<TRIPOS>BOND
@<TRIPOS>SUBSTRUCTURE
     1 ALC1       19 GROUP        1 X    ALC  0     ROOT ALC X 1
     2 SEC2        1 GROUP        1 X    SEC  0     **** SEC X 2
     3 GLC5        8 GROUP        1 X    GLC  0     **** GLC X 6
     4 ALP1       21 GROUP        1 Y    ALP  0     ROOT ALP Y 8
     5 SEP2        3 GROUP        1 Y    SEP  0     **** SEP Y 9
     6 GLP5       10 GROUP        1 Y    GLP  0     **** GLP Y 13
     7 ALL1       20 GROUP        1 Z    ALL  0     ROOT ALL Z 15
     8 SEL2        2 GROUP        1 Z    SEL  0     **** SEL Z 16
     9 GLL5        9 GROUP        1 Z    GLL  0     **** GLL Z 20
@<TRIPOS>SET

