#    Name: 4i8p_NAD_1_ligand
#    Modification time : Tue Mar 25 02:32:49 2014

@<TRIPOS>MOLECULE
4i8p_NAD_1_ligand
   70    74     1     0     0
SMALL
NO_CHARGES


@<TRIPOS>ATOM
      1 PA         -6.6320  -15.0840   32.1600 P.3       1 NAD601      0.0000 
      2 O1A        -6.9980  -16.5260   32.1540 O.co2     1 NAD601      0.0000 
      3 O2A        -5.1520  -14.8520   32.3060 O.co2     1 NAD601      0.0000 
      4 O5B        -7.1880  -14.4290   30.8360 O.3       1 NAD601      0.0000 
      5 C5B        -7.0610  -13.0080   30.5450 C.3       1 NAD601      0.0000 
      6 C4B        -7.2250  -12.8390   29.0540 C.3       1 NAD601      0.0000 
      7 O4B        -6.1640  -13.5500   28.3800 O.3       1 NAD601      0.0000 
      8 C3B        -8.5300  -13.3480   28.4350 C.3       1 NAD601      0.0000 
      9 O3B        -8.9360  -12.4810   27.3790 O.3       1 NAD601      0.0000 
     10 C2B        -8.1290  -14.7210   27.8890 C.3       1 NAD601      0.0000 
     11 O2B        -8.9790  -15.2010   26.8530 O.3       1 NAD601      0.0000 
     12 C1B        -6.7130  -14.4250   27.4160 C.3       1 NAD601      0.0000 
     13 N9A        -5.8320  -15.5810   27.3040 N.pl3     1 NAD601      0.0000 
     14 C8A        -5.9200  -16.7600   27.9980 C.2       1 NAD601      0.0000 
     15 N7A        -5.0070  -17.6400   27.6690 N.2       1 NAD601      0.0000 
     16 C5A        -4.2560  -16.9910   26.7010 C.ar      1 NAD601      0.0000 
     17 C6A        -3.0930  -17.3630   25.9920 C.ar      1 NAD601      0.0000 
     18 N6A        -2.5590  -18.5890   26.0290 N.pl3     1 NAD601      0.0000 
     19 N1A        -2.5130  -16.4310   25.2010 N.ar      1 NAD601      0.0000 
     20 C2A        -3.0850  -15.2250   25.0980 C.ar      1 NAD601      0.0000 
     21 N3A        -4.1990  -14.7750   25.6850 N.ar      1 NAD601      0.0000 
     22 C4A        -4.7400  -15.7120   26.4810 C.ar      1 NAD601      0.0000 
     23 O3         -7.3520  -14.2560   33.3300 O.3       1 NAD601      0.0000 
     24 PN         -8.8900  -13.9800   33.6920 P.3       1 NAD601      0.0000 
     25 O1N        -9.4010  -15.1900   34.3810 O.co2     1 NAD601      0.0000 
     26 O2N        -9.5920  -13.4810   32.4900 O.co2     1 NAD601      0.0000 
     27 O5D        -8.7750  -12.7500   34.6960 O.3       1 NAD601      0.0000 
     28 C5D        -8.4960  -12.9140   36.0960 C.3       1 NAD601      0.0000 
     29 C4D        -7.0260  -12.6680   36.3590 C.3       1 NAD601      0.0000 
     30 O4D        -6.6930  -11.3140   35.9610 O.3       1 NAD601      0.0000 
     31 C3D        -6.6380  -12.7300   37.8330 C.3       1 NAD601      0.0000 
     32 O3D        -5.3860  -13.3810   38.0310 O.3       1 NAD601      0.0000 
     33 C2D        -6.5980  -11.2460   38.2080 C.3       1 NAD601      0.0000 
     34 O2D        -5.7400  -10.9420   39.2980 O.3       1 NAD601      0.0000 
     35 C1D        -5.9790  -10.6310   36.9320 C.3       1 NAD601      0.0000 
     36 N1N        -6.3140   -9.1440   36.8560 N.pl3     1 NAD601      0.0000 
     37 C2N        -5.2170   -8.2680   36.9950 C.ar      1 NAD601      0.0000 
     38 C3N        -5.4390   -6.8980   36.9830 C.ar      1 NAD601      0.0000 
     39 C7N        -4.3120   -5.8960   37.1540 C.2       1 NAD601      0.0000 
     40 O7N        -3.1410   -6.2980   37.5780 O.2       1 NAD601      0.0000 
     41 N7N        -4.5980   -4.6190   36.9850 N.am      1 NAD601      0.0000 
     42 C4N        -6.7550   -6.4330   36.8750 C.ar      1 NAD601      0.0000 
     43 C5N        -7.8190   -7.3260   36.7570 C.ar      1 NAD601      0.0000 
     44 C6N        -7.5730   -8.6780   36.7340 C.ar      1 NAD601      0.0000 
     45 H          -6.0843  -12.6365   30.8351 H         1 NAD601      0.0000 
     46 H          -7.8318  -12.4363   31.0500 H         1 NAD601      0.0000 
     47 H          -7.1336  -11.7759   28.8026 H         1 NAD601      0.0000 
     48 H          -9.2352  -13.4768   29.1962 H         1 NAD601      0.0000 
     49 H          -8.0464  -15.3799   28.7327 H         1 NAD601      0.0000 
     50 H          -6.7834  -13.9075   26.4632 H         1 NAD601      0.0000 
     51 H          -6.6331  -16.9054   28.6913 H         1 NAD601      0.0000 
     52 H          -3.0065  -19.2457   26.6361 H         1 NAD601      0.0000 
     53 H          -1.7602  -18.7388   25.4463 H         1 NAD601      0.0000 
     54 H          -2.5661  -14.5046   24.4388 H         1 NAD601      0.0000 
     55 H          -8.7404  -13.9279   36.4353 H         1 NAD601      0.0000 
     56 H          -9.0761  -12.2088   36.7036 H         1 NAD601      0.0000 
     57 H          -6.4262  -13.3632   35.8157 H         1 NAD601      0.0000 
     58 H          -7.4504  -13.1737   38.3616 H         1 NAD601      0.0000 
     59 H          -7.5756  -10.8804   38.2871 H         1 NAD601      0.0000 
     60 H          -4.9684  -10.8076   36.9268 H         1 NAD601      0.0000 
     61 H          -4.2764   -8.6469   37.1024 H         1 NAD601      0.0000 
     62 H          -5.5503   -4.4066   36.7659 H         1 NAD601      0.0000 
     63 H          -3.8364   -3.9797   37.0913 H         1 NAD601      0.0000 
     64 H          -6.9368   -5.4178   36.8831 H         1 NAD601      0.0000 
     65 H          -8.7796   -6.9662   36.6881 H         1 NAD601      0.0000 
     66 H          -8.3713   -9.3361   36.6212 H         1 NAD601      0.0000 
     67 H          -9.6110  -11.8693   27.7916 H         1 NAD601      0.0000 
     68 H          -9.8433  -15.4174   27.3070 H         1 NAD601      0.0000 
     69 H          -5.4031  -13.6910   38.9816 H         1 NAD601      0.0000 
     70 H          -5.8715  -11.6910   39.9474 H         1 NAD601      0.0000 
@<TRIPOS>BOND
     1    2    1 ar   
     2    3    1 ar   
     3    4    1 1    
     4   23    1 1    
     5    5    4 1    
     6    6    5 1    
     7   45    5 1    
     8   46    5 1    
     9    7    6 1    
    10    8    6 1    
    11   47    6 1    
    12   12    7 1    
    13    9    8 1    
    14   10    8 1    
    15   48    8 1    
    16   67    9 1    
    17   11   10 1    
    18   12   10 1    
    19   49   10 1    
    20   68   11 1    
    21   13   12 1    
    22   50   12 1    
    23   14   13 1    
    24   22   13 1    
    25   15   14 2    
    26   51   14 1    
    27   16   15 1    
    28   17   16 ar   
    29   22   16 ar   
    30   18   17 1    
    31   19   17 ar   
    32   52   18 1    
    33   53   18 1    
    34   20   19 ar   
    35   21   20 ar   
    36   54   20 1    
    37   22   21 ar   
    38   24   23 1    
    39   25   24 ar   
    40   26   24 ar   
    41   27   24 1    
    42   28   27 1    
    43   29   28 1    
    44   55   28 1    
    45   56   28 1    
    46   30   29 1    
    47   31   29 1    
    48   57   29 1    
    49   35   30 1    
    50   32   31 1    
    51   33   31 1    
    52   58   31 1    
    53   69   32 1    
    54   34   33 1    
    55   35   33 1    
    56   59   33 1    
    57   70   34 1    
    58   36   35 1    
    59   60   35 1    
    60   37   36 ar   
    61   44   36 ar   
    62   38   37 ar   
    63   61   37 1    
    64   39   38 1    
    65   42   38 ar   
    66   40   39 2    
    67   41   39 am   
    68   62   41 1    
    69   63   41 1    
    70   43   42 ar   
    71   64   42 1    
    72   44   43 ar   
    73   65   43 1    
    74   66   44 1    
@<TRIPOS>SUBSTRUCTURE
     1 NAD601      1 GROUP   
@<TRIPOS>SET

