#    Name: 3flw_FLW_1_INTS_M
#    Modification time : Tue Mar 25 06:03:41 2014

@<TRIPOS>MOLECULE
3flw_FLW_1_INTS_M
   75     0     9     0     0
SMALL
NO_CHARGES


@<TRIPOS>ATOM
      1 CA         25.8450    8.8700   35.3130 C.3       3 GLC5        0.0000 
      2 CA         27.1160    8.3200   34.0920 C.3       9 GLL5        0.0000 
      3 CA         24.5740    9.4200   36.5340 C.3       6 GLP5        0.0000 
      4 CA         28.4115    7.6270   29.6730 C.3       3 GLC5        0.0000 
      5 CA         27.0140    8.6080   30.4120 C.3       9 GLL5        0.0000 
      6 CA         29.8090    6.6460   28.9340 C.3       6 GLP5        0.0000 
      7 CA         19.1890   10.7520   34.5910 C.3       3 GLC5        0.0000 
      8 CA         17.8750   10.9100   33.3780 C.3       9 GLL5        0.0000 
      9 CA         20.5030   10.5940   35.8040 C.3       6 GLP5        0.0000 
     10 CA         16.8950    9.7835   35.0200 C.3       3 GLC5        0.0000 
     11 CA         15.9150    8.6570   36.6620 C.3       6 GLP5        0.0000 
     12 CA         12.3830   10.1650   30.2965 C.3       3 GLC5        0.0000 
     13 CA         13.9460   10.3480   30.7830 C.3       9 GLL5        0.0000 
     14 CA         10.8200    9.9820   29.8100 C.3       6 GLP5        0.0000 
     15 CA         15.0150    9.0190   30.1445 C.3       3 GLC5        0.0000 
     16 CA         16.0840    7.6900   29.5060 C.3       6 GLP5        0.0000 
     17 CA         20.1665   12.4540   33.4140 C.3       3 GLC5        0.0000 
     18 CA         20.1320   11.8610   31.4390 C.3       9 GLL5        0.0000 
     19 CA         20.2010   13.0470   35.3890 C.3       6 GLP5        0.0000 
     20 CA         19.1610   10.4995   29.3580 C.3       3 GLC5        0.0000 
     21 CA         20.2050   10.4800   31.2110 C.3       9 GLL5        0.0000 
     22 CA         18.1170   10.5190   27.5050 C.3       6 GLP5        0.0000 
     23 CA         18.7785    9.3585   30.6830 C.3       3 GLC5        0.0000 
     24 CA         17.3520    8.2370   30.1550 C.3       6 GLP5        0.0000 
     25 CA         19.4255    8.3315   30.6115 C.3       3 GLC5        0.0000 
     26 CA         21.4990    8.4260   31.0680 C.3       9 GLL5        0.0000 
     27 CA         21.3960    6.3515   31.4245 C.3       3 GLC5        0.0000 
     28 CA         21.2930    4.2770   31.7810 C.3       6 GLP5        0.0000 
     29 CA         22.1515    7.3120   29.3640 C.3       3 GLC5        0.0000 
     30 CA         22.8040    6.1980   27.6600 C.3       6 GLP5        0.0000 
     31 N          22.9010    6.3805   30.7545 N.am      2 SEC2        0.0000 
     32 N          22.6790    7.7910   31.1640 N.am      8 SEL2        0.0000 
     33 N          23.1230    4.9700   30.3450 N.am      5 SEP2        0.0000 
     34 CA         23.3090    6.9025   32.9650 C.3       3 GLC5        0.0000 
     35 CA         23.8130    8.4780   31.4800 C.3       9 GLL5        0.0000 
     36 CA         22.8050    5.3270   34.4500 C.3       6 GLP5        0.0000 
     37 CA         23.9820    7.2275   29.9205 C.3       3 GLC5        0.0000 
     38 CA         24.1510    5.9770   28.3610 C.3       6 GLP5        0.0000 
     39 O          25.3495    6.5340   31.3460 O.2       1 ALC1        0.0000 
     40 O          24.9910    7.8180   31.5620 O.2       7 ALL1        0.0000 
     41 O          25.7080    5.2500   31.1300 O.2       4 ALP1        0.0000 
     42 CA         27.8750   10.4240   28.4125 C.3       3 GLC5        0.0000 
     43 CA         26.3920    9.6070   29.4390 C.3       9 GLL5        0.0000 
     44 CA         29.3580   11.2410   27.3860 C.3       6 GLP5        0.0000 
     45 CA         25.7525    9.0605   27.7560 C.3       3 GLC5        0.0000 
     46 CA         25.1130    8.5140   26.0730 C.3       6 GLP5        0.0000 
     47 O          27.2435   12.2670   29.9565 O.2       1 ALC1        0.0000 
     48 O          26.4760   10.9270   29.9880 O.2       7 ALL1        0.0000 
     49 O          28.0110   13.6070   29.9250 O.2       4 ALP1        0.0000 
     50 CA         16.4423    9.4955   30.8383 C.3       3 GLC5        0.0000 
     51 CA         15.9000   10.6230   32.1000 C.3       9 GLL5        0.0000 
     52 CA         25.4270    7.5423   29.1432 C.3       3 GLC5        0.0000 
     53 CA         18.4610    9.3438   33.2330 C.3       3 GLC5        0.0000 
     54 CA         19.4000    7.6420   33.6470 C.3       6 GLP5        0.0000 
     55 CA         16.6559   12.0480   33.9470 C.3       3 GLC5        0.0000 
     56 CA         16.1070   13.1900   35.1150 C.3       6 GLP5        0.0000 
     57 CA         13.4881   11.3600   32.0086 C.3       3 GLC5        0.0000 
     58 CA         12.2370   12.1690   32.8650 C.3       6 GLP5        0.0000 
     59 CA         13.9571    9.0805   32.1571 C.3       3 GLC5        0.0000 
     60 CA         13.1750    7.6100   33.1620 C.3       6 GLP5        0.0000 
     61 CA         13.9484   12.3826   29.4847 C.3       3 GLC5        0.0000 
     62 CA         15.1650   10.8850   30.9430 C.3       9 GLL5        0.0000 
     63 CA         12.7750   13.6040   28.5660 C.3       6 GLP5        0.0000 
     64 CA         16.8360   10.1113   30.0910 C.3       3 GLC5        0.0000 
     65 CA         16.9520   12.2650   30.1100 C.3       9 GLL5        0.0000 
     66 CA         16.7088   13.7843   31.7972 C.3       3 GLC5        0.0000 
     67 CA         16.0930   15.4370   32.9100 C.3       6 GLP5        0.0000 
     68 CA         17.5628   11.2554   29.0740 C.3       3 GLC5        0.0000 
     69 CA         17.6970   11.9980   31.2590 C.3       9 GLL5        0.0000 
     70 CA         17.4808    9.8794   31.0970 C.3       3 GLC5        0.0000 
     71 CA         21.2003   11.2572   29.5185 C.3       3 GLC5        0.0000 
     72 CA         22.2320   11.3440   27.7120 C.3       6 GLP5        0.0000 
     73 CA         22.1202   10.7462   29.5857 C.3       3 GLC5        0.0000 
     74 CA         21.4230    9.8020   31.2990 C.3       9 GLL5        0.0000 
     75 CA         20.2782    8.4627   32.4043 C.3       3 GLC5        0.0000 
@<TRIPOS>BOND
@<TRIPOS>SUBSTRUCTURE
     1 ALC1       39 GROUP        1 X    ALC  0     ROOT ALC X 1
     2 SEC2       31 GROUP        1 X    SEC  0     **** SEC X 2
     3 GLC5        1 GROUP        1 X    GLC  0     **** GLC X 6
     4 ALP1       41 GROUP        1 Y    ALP  0     ROOT ALP Y 8
     5 SEP2       33 GROUP        1 Y    SEP  0     **** SEP Y 9
     6 GLP5        3 GROUP        1 Y    GLP  0     **** GLP Y 13
     7 ALL1       40 GROUP        1 Z    ALL  0     ROOT ALL Z 15
     8 SEL2       32 GROUP        1 Z    SEL  0     **** SEL Z 16
     9 GLL5        2 GROUP        1 Z    GLL  0     **** GLL Z 20
@<TRIPOS>SET

