#    Name: 3flw_FLW_1_ligand
#    Modification time : Tue Mar 25 06:03:41 2014

@<TRIPOS>MOLECULE
3flw_FLW_1_ligand
   49    51     1     0     0
SMALL
NO_CHARGES


@<TRIPOS>ATOM
      1 C14        15.9000   10.6230   32.1000 C.ar      1 FLW361      0.0000 
      2 C15        15.1650   10.8850   30.9430 C.ar      1 FLW361      0.0000 
      3 C20        27.1330    7.6970   32.7050 C.3       1 FLW361      0.0000 
      4 C21        27.1160    8.3200   34.0920 C.3       1 FLW361      0.0000 
      5 C23        27.0140    8.6080   30.4120 C.3       1 FLW361      0.0000 
      6 C29        23.7670   12.6340   32.1910 C.3       1 FLW361      0.0000 
      7 F28        17.8750   10.9100   33.3780 F         1 FLW361      0.0000 
      8 C13        17.1690   11.1810   32.2600 C.ar      1 FLW361      0.0000 
      9 F27        13.9460   10.3480   30.7830 F         1 FLW361      0.0000 
     10 C16        15.6880   11.7060   29.9440 C.ar      1 FLW361      0.0000 
     11 C17        16.9520   12.2650   30.1100 C.ar      1 FLW361      0.0000 
     12 C12        17.6970   11.9980   31.2590 C.ar      1 FLW361      0.0000 
     13 O11        18.9430   12.5690   31.3680 O.3       1 FLW361      0.0000 
     14 C9         20.1320   11.8610   31.4390 C.2       1 FLW361      0.0000 
     15 C10        20.2050   10.4800   31.2110 C.2       1 FLW361      0.0000 
     16 C5         21.4230    9.8020   31.2990 C.ar      1 FLW361      0.0000 
     17 C4         21.4990    8.4260   31.0680 C.ar      1 FLW361      0.0000 
     18 N1         22.6790    7.7910   31.1640 N.ar      1 FLW361      0.0000 
     19 C8         21.2930   12.5620   31.7590 C.2       1 FLW361      0.0000 
     20 O26        21.2200   13.7950   31.9640 O.2       1 FLW361      0.0000 
     21 N7         22.5430   11.8910   31.8540 N.am      1 FLW361      0.0000 
     22 C6         22.5940   10.4950   31.6200 C.ar      1 FLW361      0.0000 
     23 N3         23.7650    9.8170   31.7040 N.ar      1 FLW361      0.0000 
     24 C2         23.8130    8.4780   31.4800 C.ar      1 FLW361      0.0000 
     25 N18        24.9910    7.8180   31.5620 N.pl3     1 FLW361      0.0000 
     26 C19        26.2670    8.4950   31.7390 C.3       1 FLW361      0.0000 
     27 C24        26.3920    9.6070   29.4390 C.3       1 FLW361      0.0000 
     28 O25        26.4760   10.9270   29.9880 O.3       1 FLW361      0.0000 
     29 O22        26.8070    7.3130   35.0610 O.3       1 FLW361      0.0000 
     30 H          15.5077   10.0207   32.8323 H         1 FLW361      0.0000 
     31 H          26.7579    6.6746   32.7635 H         1 FLW361      0.0000 
     32 H          28.1577    7.6721   32.3326 H         1 FLW361      0.0000 
     33 H          26.3720    9.1232   34.0934 H         1 FLW361      0.0000 
     34 H          28.0985    8.7676   34.2744 H         1 FLW361      0.0000 
     35 H          27.0464    7.6159   29.9341 H         1 FLW361      0.0000 
     36 H          28.0559    8.9048   30.6121 H         1 FLW361      0.0000 
     37 H          15.1461   11.8950   29.0967 H         1 FLW361      0.0000 
     38 H          17.3410   12.8799   29.3807 H         1 FLW361      0.0000 
     39 H          19.3463    9.9591   30.9751 H         1 FLW361      0.0000 
     40 H          20.6307    7.9165   30.8238 H         1 FLW361      0.0000 
     41 H          25.0315    6.7748   31.5002 H         1 FLW361      0.0000 
     42 H          26.1332    9.4798   32.1413 H         1 FLW361      0.0000 
     43 H          25.3535    9.3058   29.2666 H         1 FLW361      0.0000 
     44 H          26.9297    9.5292   28.4883 H         1 FLW361      0.0000 
     45 H          24.5679   12.0360   32.2218 H         1 FLW361      0.0000 
     46 H          23.9622   13.3511   31.5219 H         1 FLW361      0.0000 
     47 H          23.6980   13.0777   33.0845 H         1 FLW361      0.0000 
     48 H          27.2363   11.3605   29.5042 H         1 FLW361      0.0000 
     49 H          27.6600    6.8070   35.1893 H         1 FLW361      0.0000 
@<TRIPOS>BOND
     1    2    1 ar   
     2    8    1 ar   
     3   30    1 1    
     4    9    2 1    
     5   10    2 ar   
     6    4    3 1    
     7   26    3 1    
     8   31    3 1    
     9   32    3 1    
    10   29    4 1    
    11   33    4 1    
    12   34    4 1    
    13   26    5 1    
    14   27    5 1    
    15   35    5 1    
    16   36    5 1    
    17   21    6 1    
    18   45    6 1    
    19   46    6 1    
    20   47    6 1    
    21    8    7 1    
    22   12    8 ar   
    23   11   10 ar   
    24   37   10 1    
    25   12   11 ar   
    26   38   11 1    
    27   13   12 1    
    28   14   13 1    
    29   15   14 2    
    30   19   14 1    
    31   16   15 1    
    32   39   15 1    
    33   17   16 ar   
    34   22   16 ar   
    35   18   17 ar   
    36   40   17 1    
    37   24   18 ar   
    38   20   19 2    
    39   21   19 am   
    40   22   21 1    
    41   23   22 ar   
    42   24   23 ar   
    43   25   24 1    
    44   26   25 1    
    45   41   25 1    
    46   42   26 1    
    47   28   27 1    
    48   43   27 1    
    49   44   27 1    
    50   48   28 1    
    51   49   29 1    
@<TRIPOS>SUBSTRUCTURE
     1 FLW361      1 GROUP   
@<TRIPOS>SET

