#    Name: 1hxb_ROC_1_INTS_M
#    Modification time : Tue Mar 25 06:30:26 2014

@<TRIPOS>MOLECULE
1hxb_ROC_1_INTS_M
  102     0     9     0     0
SMALL
NO_CHARGES


@<TRIPOS>ATOM
      1 N          21.3815   -2.9240    5.4075 N.am      2 SEC2        0.0000 
      2 N          20.1680   -3.4210    6.0800 N.am      8 SEL2        0.0000 
      3 N          22.5950   -2.4270    4.7350 N.am      5 SEP2        0.0000 
      4 CA         14.7835   -8.6135    9.1890 C.3       3 GLC5        0.0000 
      5 CA         14.8060   -8.2410    7.2430 C.3       9 GLL5        0.0000 
      6 CA         14.7610   -8.9860   11.1350 C.3       6 GLP5        0.0000 
      7 CA         14.1025   -7.3620    9.4750 C.3       3 GLC5        0.0000 
      8 CA         14.2170   -7.0010    7.5160 C.3       9 GLL5        0.0000 
      9 CA         13.9880   -7.7230   11.4340 C.3       6 GLP5        0.0000 
     10 CA         13.8415   -4.3855    6.7095 C.3       3 GLC5        0.0000 
     11 CA         14.9660   -5.8350    7.3930 C.3       9 GLL5        0.0000 
     12 CA         12.7170   -2.9360    6.0260 C.3       6 GLP5        0.0000 
     13 CA         14.6360   -3.9910    8.3890 C.3       3 GLC5        0.0000 
     14 CA         14.3060   -2.1470    9.3850 C.3       6 GLP5        0.0000 
     15 O          16.6560   -2.7000    6.9170 O.2       1 ALC1        0.0000 
     16 O          18.2790   -2.6270    7.0450 O.2       7 ALL1        0.0000 
     17 O          15.0330   -2.7730    6.7890 O.2       4 ALP1        0.0000 
     18 CA         20.8145   -1.2410    7.0405 C.3       3 GLC5        0.0000 
     19 CA         18.7730   -1.2910    7.3000 C.3       9 GLL5        0.0000 
     20 CA         22.8560   -1.1910    6.7810 C.3       6 GLP5        0.0000 
     21 CA         16.6775    0.4760    4.8675 C.3       3 GLC5        0.0000 
     22 CA         18.0410   -0.3040    6.4420 C.3       9 GLL5        0.0000 
     23 CA         15.3140    1.2560    3.2930 C.3       6 GLP5        0.0000 
     24 CA         16.9455    1.4740    6.8340 C.3       3 GLC5        0.0000 
     25 CA         15.8500    3.2520    7.2260 C.3       6 GLP5        0.0000 
     26 N          20.7795   -0.8280    3.5890 N.am      2 SEC2        0.0000 
     27 N          19.6160   -0.6910    4.6750 N.am      8 SEL2        0.0000 
     28 N          21.9430   -0.9650    2.5030 N.am      5 SEP2        0.0000 
     29 O          18.1665   -1.2785    2.5855 O.2       1 ALC1        0.0000 
     30 O          17.5560   -0.7630    4.0770 O.2       7 ALL1        0.0000 
     31 O          18.7770   -1.7940    1.0940 O.2       4 ALP1        0.0000 
     32 N          22.3300   -1.2435   12.1850 N.am      2 SEC2        0.0000 
     33 N          21.8770   -0.5100   11.1080 N.am      8 SEL2        0.0000 
     34 N          22.7830   -1.9770   13.2620 N.am      5 SEP2        0.0000 
     35 O          23.0820    0.1410   10.7520 O.2       1 ALC1        0.0000 
     36 O          21.8770   -0.5100   11.1080 O.2       7 ALL1        0.0000 
     37 O          24.2870    0.7920   10.3960 O.2       4 ALP1        0.0000 
     38 O          22.2925    0.7410   10.4025 O.2       1 ALC1        0.0000 
     39 O          22.7080    1.9920    9.6970 O.2       4 ALP1        0.0000 
     40 O          20.9920   -2.1160    9.2430 O.2       1 ALC1        0.0000 
     41 O          19.5670   -1.3870    9.5690 O.2       7 ALL1        0.0000 
     42 O          22.4170   -2.8450    8.9170 O.2       4 ALP1        0.0000 
     43 CA         20.2565   -4.9600   12.6985 C.3       3 GLC5        0.0000 
     44 CA         19.7250   -4.4940   10.5720 C.3       9 GLL5        0.0000 
     45 CA         20.7880   -5.4260   14.8250 C.3       6 GLP5        0.0000 
     46 CA         15.7325   -6.0120   11.9690 C.3       3 GLC5        0.0000 
     47 CA         16.9950   -4.6560   11.1170 C.3       9 GLL5        0.0000 
     48 CA         14.4700   -7.3680   12.8210 C.3       6 GLP5        0.0000 
     49 CA         15.8040   -6.6815   10.9020 C.3       3 GLC5        0.0000 
     50 CA         17.6200   -5.6400   10.3700 C.3       9 GLL5        0.0000 
     51 CA         21.6040    1.0540   14.4010 C.3       3 GLC5        0.0000 
     52 CA         20.4640    0.8860   12.4880 C.3       9 GLL5        0.0000 
     53 CA         22.7440    1.2220   16.3140 C.3       6 GLP5        0.0000 
     54 CA         16.0970    2.9310   13.6645 C.3       3 GLC5        0.0000 
     55 CA         17.8450    3.3900   13.5940 C.3       9 GLL5        0.0000 
     56 CA         14.3490    2.4720   13.7350 C.3       6 GLP5        0.0000 
     57 CA         16.0110    7.3275   12.3090 C.3       3 GLC5        0.0000 
     58 CA         17.3550    5.6530   12.7550 C.3       9 GLL5        0.0000 
     59 CA         14.6670    9.0020   11.8630 C.3       6 GLP5        0.0000 
     60 CA         16.9205    3.5730    8.8720 C.3       3 GLC5        0.0000 
     61 CA         17.9910    3.8940   10.5180 C.3       9 GLL5        0.0000 
     62 CA         19.6920    0.2300   19.9160 C.3       3 GLC5        0.0000 
     63 CA         19.1540    0.4560   18.0370 C.3       9 GLL5        0.0000 
     64 CA         20.2300    0.0040   21.7950 C.3       6 GLP5        0.0000 
     65 CA         18.6380   -1.5570   18.7315 C.3       3 GLC5        0.0000 
     66 CA         18.1220   -3.5700   19.4260 C.3       6 GLP5        0.0000 
     67 CA         15.5605   -0.3325   15.8340 C.3       3 GLC5        0.0000 
     68 CA         16.8870    0.3020   17.1980 C.3       9 GLL5        0.0000 
     69 CA         14.2340   -0.9670   14.4700 C.3       6 GLP5        0.0000 
     70 CA         16.1255   -0.5090   18.6015 C.3       3 GLC5        0.0000 
     71 CA         15.3640   -1.3200   20.0050 C.3       6 GLP5        0.0000 
     72 CA         16.9990   -2.2510   15.4305 C.3       3 GLC5        0.0000 
     73 CA         18.6330   -1.2900   16.3650 C.3       9 GLL5        0.0000 
     74 CA         15.3650   -3.2120   14.4960 C.3       6 GLP5        0.0000 
     75 CA         18.3775   -2.4300   17.8955 C.3       3 GLC5        0.0000 
     76 CA         19.0025   -3.1075   15.7690 C.3       3 GLC5        0.0000 
     77 CA         19.3720   -4.9250   15.1730 C.3       6 GLP5        0.0000 
     78 CA         15.8338   -3.1315   10.3712 C.3       3 GLC5        0.0000 
     79 CA         17.7280   -3.5760   11.5980 C.3       9 GLL5        0.0000 
     80 CA         16.3633   -3.6640   12.9268 C.3       3 GLC5        0.0000 
     81 CA         18.9901   -4.0839   13.3751 C.3       3 GLC5        0.0000 
     82 CA         21.3255   -5.4735   10.6497 C.3       3 GLC5        0.0000 
     83 CA         23.2970   -5.9200   10.9630 C.3       6 GLP5        0.0000 
     84 CA         19.2555   -6.7152   11.1856 C.3       3 GLC5        0.0000 
     85 CA         20.0240   -8.0970   12.0180 C.3       6 GLP5        0.0000 
     86 CA         15.6040    3.9737   12.9703 C.3       3 GLC5        0.0000 
     87 CA         15.4307    6.2933   10.5977 C.3       3 GLC5        0.0000 
     88 CA         16.3630    5.2980   11.6560 C.3       9 GLL5        0.0000 
     89 CA         14.1440    7.3970   10.2010 C.3       6 GLP5        0.0000 
     90 CA         17.9813    6.7058   11.2268 C.3       3 GLC5        0.0000 
     91 CA         19.2450    8.2220   11.4590 C.3       6 GLP5        0.0000 
     92 CA         15.7072    4.2782    9.6013 C.3       3 GLC5        0.0000 
     93 CA         17.0720    5.0810   10.3330 C.3       9 GLL5        0.0000 
     94 CA         14.6970    3.3670    8.2080 C.3       6 GLP5        0.0000 
     95 CA         19.2482    5.2373    9.8498 C.3       3 GLC5        0.0000 
     96 CA         20.9650    5.9870    9.2740 C.3       6 GLP5        0.0000 
     97 CA         18.8634    6.4476   11.8260 C.3       3 GLC5        0.0000 
     98 CA         19.0660    4.2160   11.5430 C.3       9 GLL5        0.0000 
     99 CA         20.2545    4.8102   10.4585 C.3       3 GLC5        0.0000 
    100 CA         20.6227   -0.3922   16.6265 C.3       3 GLC5        0.0000 
    101 CA         18.3340    0.1420   16.8130 C.3       9 GLL5        0.0000 
    102 CA         22.5570   -0.2890   16.3580 C.3       6 GLP5        0.0000 
@<TRIPOS>BOND
@<TRIPOS>SUBSTRUCTURE
     1 ALC1       15 GROUP        1 X    ALC  0     ROOT ALC X 1
     2 SEC2        1 GROUP        1 X    SEC  0     **** SEC X 2
     3 GLC5        4 GROUP        1 X    GLC  0     **** GLC X 6
     4 ALP1       17 GROUP        1 Y    ALP  0     ROOT ALP Y 8
     5 SEP2        3 GROUP        1 Y    SEP  0     **** SEP Y 9
     6 GLP5        6 GROUP        1 Y    GLP  0     **** GLP Y 13
     7 ALL1       16 GROUP        1 Z    ALL  0     ROOT ALL Z 15
     8 SEL2        2 GROUP        1 Z    SEL  0     **** SEL Z 16
     9 GLL5        5 GROUP        1 Z    GLL  0     **** GLL Z 20
@<TRIPOS>SET

