#    Name: 1hxb_ROC_1_ligand
#    Modification time : Tue Mar 25 06:30:26 2014

@<TRIPOS>MOLECULE
1hxb_ROC_1_ligand
  100   104     1     0     0
SMALL
NO_CHARGES


@<TRIPOS>ATOM
      1 C          19.0260   -3.5990    6.5160 C.2       1 ROC100      0.0000 
      2 O          20.1680   -3.4210    6.0800 O.2       1 ROC100      0.0000 
      3 N1         17.0310   -4.8170    6.8790 N.ar      1 ROC100      0.0000 
      4 C2         18.3400   -4.8180    6.5140 C.ar      1 ROC100      0.0000 
      5 C3         18.9700   -6.0340    6.2250 C.ar      1 ROC100      0.0000 
      6 C4         18.2400   -7.2190    6.3330 C.ar      1 ROC100      0.0000 
      7 C5         16.1460   -8.3330    6.8450 C.ar      1 ROC100      0.0000 
      8 C6         14.8060   -8.2410    7.2430 C.ar      1 ROC100      0.0000 
      9 C7         14.2170   -7.0010    7.5160 C.ar      1 ROC100      0.0000 
     10 C8         14.9660   -5.8350    7.3930 C.ar      1 ROC100      0.0000 
     11 C4A        16.8980   -7.1660    6.7210 C.ar      1 ROC100      0.0000 
     12 C8A        16.2970   -5.9290    6.9950 C.ar      1 ROC100      0.0000 
     13 N          18.2790   -2.6270    7.0450 N.am      1 ROC100      0.0000 
     14 CA         18.7730   -1.2910    7.3000 C.3       1 ROC100      0.0000 
     15 C1         18.6260   -0.8980    8.7610 C.2       1 ROC100      0.0000 
     16 O1         17.7090   -0.1980    9.2080 O.2       1 ROC100      0.0000 
     17 CB         18.0410   -0.3040    6.4420 C.3       1 ROC100      0.0000 
     18 CG         18.4490   -0.5710    5.0140 C.2       1 ROC100      0.0000 
     19 OD1        19.6160   -0.6910    4.6750 O.2       1 ROC100      0.0000 
     20 ND2        17.5560   -0.7630    4.0770 N.am      1 ROC100      0.0000 
     21 C9         20.5870    0.0830   11.1880 C.3       1 ROC100      0.0000 
     22 O2         21.8770   -0.5100   11.1080 O.3       1 ROC100      0.0000 
     23 CA1        19.5590   -1.0490   10.9830 C.3       1 ROC100      0.0000 
     24 N2         19.5670   -1.3870    9.5690 N.am      1 ROC100      0.0000 
     25 CB1        19.8880   -2.3140   11.7920 C.3       1 ROC100      0.0000 
     26 CG1        19.0890   -3.5050   11.3210 C.ar      1 ROC100      0.0000 
     27 CD1        17.7280   -3.5760   11.5980 C.ar      1 ROC100      0.0000 
     28 CD2        19.7250   -4.4940   10.5720 C.ar      1 ROC100      0.0000 
     29 CE1        16.9950   -4.6560   11.1170 C.ar      1 ROC100      0.0000 
     30 CE2        18.9830   -5.5600   10.1010 C.ar      1 ROC100      0.0000 
     31 CZ         17.6200   -5.6400   10.3700 C.ar      1 ROC100      0.0000 
     32 N11        19.4210    1.9070   12.4190 N.4       1 ROC100      0.0000 
     33 CM         20.4640    0.8860   12.4880 C.3       1 ROC100      0.0000 
     34 C21        18.8880    2.2870   13.7380 C.3       1 ROC100      0.0000 
     35 CC         18.2420    1.1880   14.5710 C.2       1 ROC100      0.0000 
     36 O3         17.3660    0.4830   14.0690 O.2       1 ROC100      0.0000 
     37 C31        17.8450    3.3900   13.5940 C.3       1 ROC100      0.0000 
     38 C3A        18.4400    4.6080   12.9310 C.3       1 ROC100      0.0000 
     39 C41        17.3550    5.6530   12.7550 C.3       1 ROC100      0.0000 
     40 C51        16.3630    5.2980   11.6560 C.3       1 ROC100      0.0000 
     41 C61        17.0720    5.0810   10.3330 C.3       1 ROC100      0.0000 
     42 C71        17.9910    3.8940   10.5180 C.3       1 ROC100      0.0000 
     43 C7A        19.0660    4.2160   11.5430 C.3       1 ROC100      0.0000 
     44 C81        20.0220    3.0510   11.7430 C.3       1 ROC100      0.0000 
     45 N3         18.7210    1.1200   15.8140 N.am      1 ROC100      0.0000 
     46 CD         18.3340    0.1420   16.8130 C.3       1 ROC100      0.0000 
     47 C11        19.1540    0.4560   18.0370 C.3       1 ROC100      0.0000 
     48 C22        16.8870    0.3020   17.1980 C.3       1 ROC100      0.0000 
     49 C32        18.6330   -1.2900   16.3650 C.3       1 ROC100      0.0000 
     50 H          19.9485   -6.0523    5.9397 H         1 ROC100      0.0000 
     51 H          18.6820   -8.1180    6.1304 H         1 ROC100      0.0000 
     52 H          16.5627   -9.2429    6.6494 H         1 ROC100      0.0000 
     53 H          14.2441   -9.1023    7.3363 H         1 ROC100      0.0000 
     54 H          13.2339   -6.9559    7.8062 H         1 ROC100      0.0000 
     55 H          14.5475   -4.9260    7.5910 H         1 ROC100      0.0000 
     56 H          17.2723   -2.7954    7.3061 H         1 ROC100      0.0000 
     57 H          19.8345   -1.2295    7.0461 H         1 ROC100      0.0000 
     58 H          18.3194    0.7013    6.7159 H         1 ROC100      0.0000 
     59 H          16.9765   -0.4423    6.5461 H         1 ROC100      0.0000 
     60 H          17.9105   -0.8880    3.1503 H         1 ROC100      0.0000 
     61 H          16.6010   -0.7671    4.3735 H         1 ROC100      0.0000 
     62 H          20.4658    0.7820   10.3446 H         1 ROC100      0.0000 
     63 H          18.5917   -0.6886   11.2716 H         1 ROC100      0.0000 
     64 H          20.3210   -2.0072    9.2445 H         1 ROC100      0.0000 
     65 H          19.6745   -2.1197   12.8473 H         1 ROC100      0.0000 
     66 H          20.9572   -2.5239   11.6935 H         1 ROC100      0.0000 
     67 H          17.2724   -2.8447   12.1475 H         1 ROC100      0.0000 
     68 H          20.7265   -4.4262   10.3771 H         1 ROC100      0.0000 
     69 H          15.9875   -4.7210   11.3181 H         1 ROC100      0.0000 
     70 H          19.4373   -6.3023    9.5470 H         1 ROC100      0.0000 
     71 H          17.0749   -6.4383   10.0094 H         1 ROC100      0.0000 
     72 H          18.6080    1.5308   11.7906 H         1 ROC100      0.0000 
     73 H          21.4456    1.3440   12.6974 H         1 ROC100      0.0000 
     74 H          20.2613    0.1754   13.3072 H         1 ROC100      0.0000 
     75 H          19.6971    2.7285   14.3547 H         1 ROC100      0.0000 
     76 H          17.4703    3.6568   14.5835 H         1 ROC100      0.0000 
     77 H          17.0122    3.0164   12.9960 H         1 ROC100      0.0000 
     78 H          19.2222    5.0054   13.5475 H         1 ROC100      0.0000 
     79 H          17.8198    6.6209   12.5183 H         1 ROC100      0.0000 
     80 H          16.8109    5.7730   13.7029 H         1 ROC100      0.0000 
     81 H          15.6388    6.1076   11.5512 H         1 ROC100      0.0000 
     82 H          15.8288    4.3882   11.9350 H         1 ROC100      0.0000 
     83 H          17.6491    5.9535   10.0847 H         1 ROC100      0.0000 
     84 H          16.3493    4.8664    9.5664 H         1 ROC100      0.0000 
     85 H          18.4627    3.6466    9.5683 H         1 ROC100      0.0000 
     86 H          17.4141    3.0361   10.8598 H         1 ROC100      0.0000 
     87 H          19.6382    5.0758   11.2023 H         1 ROC100      0.0000 
     88 H          20.4113    2.7522   10.7472 H         1 ROC100      0.0000 
     89 H          20.8992    3.4215   12.3137 H         1 ROC100      0.0000 
     90 H          19.4524    1.8239   16.1455 H         1 ROC100      0.0000 
     91 H          20.1349    0.3891   17.8541 H         1 ROC100      0.0000 
     92 H          18.9808    1.3820   18.3725 H         1 ROC100      0.0000 
     93 H          18.9528   -0.1709   18.7897 H         1 ROC100      0.0000 
     94 H          16.6085   -0.3706   17.8836 H         1 ROC100      0.0000 
     95 H          16.7029    1.2064   17.5830 H         1 ROC100      0.0000 
     96 H          16.2789    0.1886   16.4123 H         1 ROC100      0.0000 
     97 H          19.6071   -1.4272   16.1855 H         1 ROC100      0.0000 
     98 H          18.3655   -1.9595   17.0580 H         1 ROC100      0.0000 
     99 H          18.1441   -1.5261   15.5252 H         1 ROC100      0.0000 
    100 H          22.5039    0.2540   10.9556 H         1 ROC100      0.0000 
@<TRIPOS>BOND
     1    2    1 2    
     2    4    1 1    
     3   13    1 am   
     4    4    3 ar   
     5   12    3 ar   
     6    5    4 ar   
     7    6    5 ar   
     8   50    5 1    
     9   11    6 ar   
    10   51    6 1    
    11    8    7 ar   
    12   11    7 ar   
    13   52    7 1    
    14    9    8 ar   
    15   53    8 1    
    16   10    9 ar   
    17   54    9 1    
    18   12   10 ar   
    19   55   10 1    
    20   12   11 ar   
    21   14   13 1    
    22   56   13 1    
    23   15   14 1    
    24   17   14 1    
    25   57   14 1    
    26   16   15 2    
    27   24   15 am   
    28   18   17 1    
    29   58   17 1    
    30   59   17 1    
    31   19   18 2    
    32   20   18 am   
    33   60   20 1    
    34   61   20 1    
    35   22   21 1    
    36   23   21 1    
    37   33   21 1    
    38   62   21 1    
    39  100   22 1    
    40   24   23 1    
    41   25   23 1    
    42   63   23 1    
    43   64   24 1    
    44   26   25 1    
    45   65   25 1    
    46   66   25 1    
    47   27   26 ar   
    48   28   26 ar   
    49   29   27 ar   
    50   67   27 1    
    51   30   28 ar   
    52   68   28 1    
    53   31   29 ar   
    54   69   29 1    
    55   31   30 ar   
    56   70   30 1    
    57   71   31 1    
    58   33   32 1    
    59   34   32 1    
    60   44   32 1    
    61   72   32 1    
    62   73   33 1    
    63   74   33 1    
    64   35   34 1    
    65   37   34 1    
    66   75   34 1    
    67   36   35 2    
    68   45   35 am   
    69   38   37 1    
    70   76   37 1    
    71   77   37 1    
    72   39   38 1    
    73   43   38 1    
    74   78   38 1    
    75   40   39 1    
    76   79   39 1    
    77   80   39 1    
    78   41   40 1    
    79   81   40 1    
    80   82   40 1    
    81   42   41 1    
    82   83   41 1    
    83   84   41 1    
    84   43   42 1    
    85   85   42 1    
    86   86   42 1    
    87   44   43 1    
    88   87   43 1    
    89   88   44 1    
    90   89   44 1    
    91   46   45 1    
    92   90   45 1    
    93   47   46 1    
    94   48   46 1    
    95   49   46 1    
    96   91   47 1    
    97   92   47 1    
    98   93   47 1    
    99   94   48 1    
   100   95   48 1    
   101   96   48 1    
   102   97   49 1    
   103   98   49 1    
   104   99   49 1    
@<TRIPOS>SUBSTRUCTURE
     1 ROC100      1 GROUP   
@<TRIPOS>SET

