#    Name: 3qqh_X0A_1_INTS_M
#    Modification time : Tue Mar 25 10:01:04 2014

@<TRIPOS>MOLECULE
3qqh_X0A_1_INTS_M
   73     0     9     0     0
SMALL
NO_CHARGES


@<TRIPOS>ATOM
      1 O          60.9380   81.8625  -48.9215 O.2       1 ALC1        0.0000 
      2 O          60.9420   81.5570  -47.6620 O.2       7 ALL1        0.0000 
      3 O          60.9340   82.1680  -50.1810 O.2       4 ALP1        0.0000 
      4 O          59.5520   82.1230  -47.5480 O.2       1 ALC1        0.0000 
      5 O          58.1620   82.6890  -47.4340 O.2       4 ALP1        0.0000 
      6 CA         62.8815   78.5580  -48.5490 C.3       3 GLC5        0.0000 
      7 CA         63.8790   79.8520  -48.0400 C.3       9 GLL5        0.0000 
      8 CA         61.8840   77.2640  -49.0580 C.3       6 GLP5        0.0000 
      9 CA         63.5340   81.8860  -46.7590 C.3       3 GLC5        0.0000 
     10 CA         61.9510   80.8520  -47.3780 C.3       9 GLL5        0.0000 
     11 CA         65.1170   82.9200  -46.1400 C.3       6 GLP5        0.0000 
     12 CA         59.7685   80.4855  -47.5170 C.3       3 GLC5        0.0000 
     13 CA         57.5860   80.1190  -47.6560 C.3       6 GLP5        0.0000 
     14 CA         61.9175   79.0580  -48.2180 C.3       3 GLC5        0.0000 
     15 CA         64.1365   81.2920  -46.0080 C.3       3 GLC5        0.0000 
     16 CA         63.1560   79.6640  -45.8760 C.3       9 GLL5        0.0000 
     17 CA         61.7170   78.0900  -45.9140 C.3       3 GLC5        0.0000 
     18 CA         60.2780   76.5160  -45.9520 C.3       6 GLP5        0.0000 
     19 CA         62.5200   78.4640  -47.4670 C.3       3 GLC5        0.0000 
     20 CA         65.5965   80.6590  -44.5890 C.3       3 GLC5        0.0000 
     21 CA         65.5630   78.5220  -44.4710 C.3       9 GLL5        0.0000 
     22 CA         65.6300   82.7960  -44.7070 C.3       6 GLP5        0.0000 
     23 CA         67.1820   79.3920  -45.0115 C.3       3 GLC5        0.0000 
     24 CA         68.8010   80.2620  -45.5520 C.3       6 GLP5        0.0000 
     25 CA         67.9060   78.2330  -44.9030 C.3       3 GLC5        0.0000 
     26 CA         66.4920   77.6010  -43.9120 C.3       9 GLL5        0.0000 
     27 CA         69.3200   78.8650  -45.8940 C.3       6 GLP5        0.0000 
     28 CA         68.0095   75.5560  -42.9105 C.3       3 GLC5        0.0000 
     29 CA         66.0360   76.5720  -43.0480 C.3       9 GLL5        0.0000 
     30 CA         69.9830   74.5400  -42.7730 C.3       6 GLP5        0.0000 
     31 CA         62.0005   76.9460  -44.6275 C.3       3 GLC5        0.0000 
     32 CA         63.7230   77.3760  -43.3030 C.3       9 GLL5        0.0000 
     33 N          62.8460   81.5565  -51.6225 N.am      2 SEC2        0.0000 
     34 N          63.6600   80.9540  -50.6960 N.am      8 SEL2        0.0000 
     35 N          62.0320   82.1590  -52.5490 N.am      5 SEP2        0.0000 
     36 CA         68.7220   78.0660  -47.6490 C.3       3 GLC5        0.0000 
     37 CA         68.1240   77.2670  -49.4040 C.3       9 GLL5        0.0000 
     38 CA         69.6655   77.5225  -50.6470 C.3       3 GLC5        0.0000 
     39 CA         71.2070   77.7780  -51.8900 C.3       6 GLP5        0.0000 
     40 CA         67.1705   76.1020  -50.6285 C.3       3 GLC5        0.0000 
     41 CA         66.2170   74.9370  -51.8530 C.3       6 GLP5        0.0000 
     42 CA         67.0868   80.5220  -50.4960 C.3       3 GLC5        0.0000 
     43 CA         66.8260   78.3360  -49.7630 C.3       9 GLL5        0.0000 
     44 CA         67.4090   82.4360  -50.5770 C.3       6 GLP5        0.0000 
     45 CA         65.1102   77.8465  -50.7130 C.3       3 GLC5        0.0000 
     46 CA         66.7030   78.8800  -51.0670 C.3       9 GLL5        0.0000 
     47 CA         63.4560   77.0850  -51.0110 C.3       6 GLP5        0.0000 
     48 CA         66.4908   76.7725  -51.1340 C.3       3 GLC5        0.0000 
     49 CA         66.0447   78.6750  -52.9892 C.3       3 GLC5        0.0000 
     50 CA         65.9220   78.0280  -54.7590 C.3       6 GLP5        0.0000 
     51 CA         67.5118   79.7880  -52.3787 C.3       3 GLC5        0.0000 
     52 CA         65.6320   79.7640  -51.3720 C.3       9 GLL5        0.0000 
     53 CA         68.8560   80.2540  -53.5380 C.3       6 GLP5        0.0000 
     54 CA         66.2815   81.1863  -50.7245 C.3       3 GLC5        0.0000 
     55 CA         64.5595   81.6882  -52.0640 C.3       3 GLC5        0.0000 
     56 CA         63.9650   83.4400  -53.2560 C.3       6 GLP5        0.0000 
     57 CA         64.3050   78.5108  -50.9415 C.3       3 GLC5        0.0000 
     58 CA         64.7270   81.3118  -47.3388 C.3       3 GLC5        0.0000 
     59 CA         64.7950   79.5550  -49.0350 C.3       9 GLL5        0.0000 
     60 CA         66.9144   79.9846  -47.9749 C.3       3 GLC5        0.0000 
     61 CA         68.2540   80.9410  -46.8030 C.3       6 GLP5        0.0000 
     62 CA         66.3740   80.7735  -49.7357 C.3       3 GLC5        0.0000 
     63 CA         65.8830   78.6670  -48.7540 C.3       9 GLL5        0.0000 
     64 CA         64.3975   78.0980  -49.9527 C.3       3 GLC5        0.0000 
     65 CA         65.6510   79.1453  -42.6893 C.3       3 GLC5        0.0000 
     66 CA         66.4390   79.8230  -41.0580 C.3       6 GLP5        0.0000 
     67 CA         66.3515   78.4547  -42.2690 C.3       3 GLC5        0.0000 
     68 CA         67.7655   77.2378  -41.9435 C.3       3 GLC5        0.0000 
     69 CA         69.2670   77.3890  -40.4070 C.3       6 GLP5        0.0000 
     70 CA         65.3135   78.3708  -42.0407 C.3       3 GLC5        0.0000 
     71 CA         64.6530   76.4610  -42.7440 C.3       9 GLL5        0.0000 
     72 CA         63.9189   75.2171  -43.3423 C.3       3 GLC5        0.0000 
     73 CA         63.3040   73.4880  -43.5850 C.3       6 GLP5        0.0000 
@<TRIPOS>BOND
@<TRIPOS>SUBSTRUCTURE
     1 ALC1        1 GROUP        1 X    ALC  0     ROOT ALC X 1
     2 SEC2       33 GROUP        1 X    SEC  0     **** SEC X 2
     3 GLC5        6 GROUP        1 X    GLC  0     **** GLC X 6
     4 ALP1        3 GROUP        1 Y    ALP  0     ROOT ALP Y 8
     5 SEP2       35 GROUP        1 Y    SEP  0     **** SEP Y 9
     6 GLP5        8 GROUP        1 Y    GLP  0     **** GLP Y 13
     7 ALL1        2 GROUP        1 Z    ALL  0     ROOT ALL Z 15
     8 SEL2       34 GROUP        1 Z    SEL  0     **** SEL Z 16
     9 GLL5        7 GROUP        1 Z    GLL  0     **** GLL Z 20
@<TRIPOS>SET

