#    Name: 3qqh_X0A_1_ligand
#    Modification time : Tue Mar 25 10:01:04 2014

@<TRIPOS>MOLECULE
3qqh_X0A_1_ligand
   34    36     1     0     0
SMALL
NO_CHARGES


@<TRIPOS>ATOM
      1 N01        62.8120   80.6110  -48.3790 N.ar      1 X0A303      0.0000 
      2 N02        62.0590   80.4130  -46.1120 N.ar      1 X0A303      0.0000 
      3 N03        64.1050   79.3470  -46.8010 N.ar      1 X0A303      0.0000 
      4 N04        60.9420   81.5570  -47.6620 N.pl3     1 X0A303      0.0000 
      5 N05        63.2760   79.2370  -44.6480 N.pl3     1 X0A303      0.0000 
      6 C06        66.8260   78.3360  -49.7630 C.ar      1 X0A303      0.0000 
      7 C07        66.7030   78.8800  -51.0670 C.ar      1 X0A303      0.0000 
      8 C08        65.6320   79.7640  -51.3720 C.ar      1 X0A303      0.0000 
      9 C09        64.6760   80.1090  -50.3720 C.ar      1 X0A303      0.0000 
     10 C10        64.7950   79.5550  -49.0350 C.ar      1 X0A303      0.0000 
     11 C11        65.8830   78.6670  -48.7540 C.ar      1 X0A303      0.0000 
     12 C12        63.8790   79.8520  -48.0400 C.ar      1 X0A303      0.0000 
     13 C13        61.9510   80.8520  -47.3780 C.ar      1 X0A303      0.0000 
     14 C14        63.1560   79.6640  -45.8760 C.ar      1 X0A303      0.0000 
     15 C15        64.1630   78.4130  -44.1700 C.ar      1 X0A303      0.0000 
     16 C16        65.5630   78.5220  -44.4710 C.ar      1 X0A303      0.0000 
     17 C17        66.4920   77.6010  -43.9120 C.ar      1 X0A303      0.0000 
     18 C18        66.0360   76.5720  -43.0480 C.ar      1 X0A303      0.0000 
     19 C19        64.6530   76.4610  -42.7440 C.ar      1 X0A303      0.0000 
     20 C20        63.7230   77.3760  -43.3030 C.ar      1 X0A303      0.0000 
     21 O21        63.6600   80.9540  -50.6960 O.3       1 X0A303      0.0000 
     22 CL22       68.1240   77.2670  -49.4040 Cl        1 X0A303      0.0000 
     23 H          61.0610   82.2169  -48.4038 H         1 X0A303      0.0000 
     24 H          60.1200   81.3882  -47.1180 H         1 X0A303      0.0000 
     25 H          62.5291   79.6253  -43.9237 H         1 X0A303      0.0000 
     26 H          67.3821   78.6380  -51.7871 H         1 X0A303      0.0000 
     27 H          65.5456   80.1541  -52.3100 H         1 X0A303      0.0000 
     28 H          65.9770   78.2709  -47.8177 H         1 X0A303      0.0000 
     29 H          65.8863   79.2640  -45.0881 H         1 X0A303      0.0000 
     30 H          67.4823   77.6815  -44.1326 H         1 X0A303      0.0000 
     31 H          66.6998   75.9127  -42.6455 H         1 X0A303      0.0000 
     32 H          64.3275   75.7211  -42.1218 H         1 X0A303      0.0000 
     33 H          62.7292   77.2894  -43.0810 H         1 X0A303      0.0000 
     34 H          63.1130   81.0324  -49.8625 H         1 X0A303      0.0000 
@<TRIPOS>BOND
     1   12    1 ar   
     2   13    1 ar   
     3   13    2 ar   
     4   14    2 ar   
     5   12    3 ar   
     6   14    3 ar   
     7   13    4 1    
     8   23    4 1    
     9   24    4 1    
    10   14    5 1    
    11   15    5 1    
    12   25    5 1    
    13    7    6 ar   
    14   11    6 ar   
    15   22    6 1    
    16    8    7 ar   
    17   26    7 1    
    18    9    8 ar   
    19   27    8 1    
    20   10    9 ar   
    21   21    9 1    
    22   11   10 ar   
    23   12   10 1    
    24   28   11 1    
    25   16   15 ar   
    26   20   15 ar   
    27   17   16 ar   
    28   29   16 1    
    29   18   17 ar   
    30   30   17 1    
    31   19   18 ar   
    32   31   18 1    
    33   20   19 ar   
    34   32   19 1    
    35   33   20 1    
    36   34   21 1    
@<TRIPOS>SUBSTRUCTURE
     1 X0A303      1 GROUP   
@<TRIPOS>SET

