#    Name: 4b68_FAD_1_INTS_M
#    Modification time : Tue Mar 25 06:46:43 2014

@<TRIPOS>MOLECULE
4b68_FAD_1_INTS_M
  113     0     9     0     0
SMALL
NO_CHARGES


@<TRIPOS>ATOM
      1 CA        -17.5640  -26.4790   22.4475 C.3       3 GLC5        0.0000 
      2 CA        -18.9920  -25.5170   23.5740 C.3       9 GLL5        0.0000 
      3 CA        -16.1360  -27.4410   21.3210 C.3       6 GLP5        0.0000 
      4 CA        -18.8560  -24.4820   26.5535 C.3       3 GLC5        0.0000 
      5 CA        -19.4790  -24.4150   24.5050 C.3       9 GLL5        0.0000 
      6 CA        -18.2330  -24.5490   28.6020 C.3       6 GLP5        0.0000 
      7 O         -21.3740  -22.6325   25.5890 O.2       1 ALC1        0.0000 
      8 O         -21.3390  -22.9250   24.2890 O.2       7 ALL1        0.0000 
      9 O         -21.4090  -22.3400   26.8890 O.2       4 ALP1        0.0000 
     10 O         -20.3595  -20.5725   25.1415 O.2       1 ALC1        0.0000 
     11 O         -19.7610  -20.8380   24.0780 O.2       7 ALL1        0.0000 
     12 O         -20.9580  -20.3070   26.2050 O.2       4 ALP1        0.0000 
     13 CA        -18.3130  -23.5170   26.9280 C.3       3 GLC5        0.0000 
     14 CA        -18.3930  -22.4850   25.2540 C.3       9 GLL5        0.0000 
     15 CA        -15.9165  -19.4615   25.3260 C.3       3 GLC5        0.0000 
     16 CA        -15.0650  -21.1410   26.1170 C.3       9 GLL5        0.0000 
     17 CA        -16.7680  -17.7820   24.5350 C.3       6 GLP5        0.0000 
     18 CA        -14.0050  -22.0845   28.5160 C.3       3 GLC5        0.0000 
     19 CA        -14.2470  -20.4720   27.1560 C.3       9 GLL5        0.0000 
     20 CA        -13.7630  -23.6970   29.8760 C.3       6 GLP5        0.0000 
     21 CA        -13.9740  -18.4515   27.1415 C.3       3 GLC5        0.0000 
     22 CA        -13.7010  -16.4310   27.1270 C.3       6 GLP5        0.0000 
     23 CA        -13.3670  -20.5070   29.1580 C.3       3 GLC5        0.0000 
     24 CA        -12.4870  -20.5420   31.1600 C.3       6 GLP5        0.0000 
     25 O         -12.0050  -19.5640   27.9215 O.2       1 ALC1        0.0000 
     26 O         -12.9440  -20.1810   26.9330 O.2       7 ALL1        0.0000 
     27 O         -11.0660  -18.9470   28.9100 O.2       4 ALP1        0.0000 
     28 N         -14.1960  -19.3280   29.2835 N.am      2 SEC2        0.0000 
     29 N         -14.8450  -20.1620   28.3320 N.am      8 SEL2        0.0000 
     30 N         -13.5470  -18.4940   30.2350 N.am      5 SEP2        0.0000 
     31 CA        -14.9535  -22.0725   29.2220 C.3       3 GLC5        0.0000 
     32 CA        -16.1440  -20.4480   28.5680 C.3       9 GLL5        0.0000 
     33 CA        -18.1640  -20.4410   29.1750 C.3       3 GLC5        0.0000 
     34 CA        -20.1840  -20.4340   29.7820 C.3       6 GLP5        0.0000 
     35 CA        -16.9605  -18.9490   27.6750 C.3       3 GLC5        0.0000 
     36 CA        -17.7770  -17.4500   26.7820 C.3       6 GLP5        0.0000 
     37 CA        -15.5725  -18.6175   28.9420 C.3       3 GLC5        0.0000 
     38 CA        -15.0010  -16.7870   29.3160 C.3       6 GLP5        0.0000 
     39 CA        -14.8875  -20.6440   30.3420 C.3       3 GLC5        0.0000 
     40 CA        -13.6310  -20.8400   32.1160 C.3       6 GLP5        0.0000 
     41 N         -18.1415  -19.9230   27.9260 N.am      2 SEC2        0.0000 
     42 N         -16.9450  -21.0510   27.6670 N.am      8 SEL2        0.0000 
     43 N         -19.3380  -18.7950   28.1850 N.am      5 SEP2        0.0000 
     44 CA        -17.3525  -22.9840   27.5235 C.3       3 GLC5        0.0000 
     45 CA        -16.4720  -21.4190   26.4450 C.3       9 GLL5        0.0000 
     46 CA        -17.2065  -19.7800   25.9395 C.3       3 GLC5        0.0000 
     47 CA        -17.9410  -18.1410   25.4340 C.3       6 GLP5        0.0000 
     48 N         -23.9925  -35.3870   17.5460 N.am      2 SEC2        0.0000 
     49 N         -24.6390  -35.2620   16.2190 N.am      8 SEL2        0.0000 
     50 N         -23.3460  -35.5120   18.8730 N.am      5 SEP2        0.0000 
     51 N         -28.1585  -33.1610   12.8795 N.am      2 SEC2        0.0000 
     52 N         -27.3150  -32.5490   13.8370 N.am      8 SEL2        0.0000 
     53 N         -29.0020  -33.7730   11.9220 N.am      5 SEP2        0.0000 
     54 CA        -26.7610  -27.9055   13.5420 C.3       3 GLC5        0.0000 
     55 CA        -24.7390  -28.1980   13.4820 C.3       9 GLL5        0.0000 
     56 CA        -28.7830  -27.6130   13.6020 C.3       6 GLP5        0.0000 
     57 CA        -24.1365  -24.9650   14.4335 C.3       3 GLC5        0.0000 
     58 CA        -24.0350  -25.9340   12.7020 C.3       9 GLL5        0.0000 
     59 CA        -24.2380  -23.9960   16.1650 C.3       6 GLP5        0.0000 
     60 CA        -24.4050  -24.1730   12.1755 C.3       3 GLC5        0.0000 
     61 CA        -24.7750  -22.4120   11.6490 C.3       6 GLP5        0.0000 
     62 CA        -23.9690  -26.6590   10.9680 C.3       3 GLC5        0.0000 
     63 CA        -23.9030  -27.3840    9.2340 C.3       6 GLP5        0.0000 
     64 CA        -22.2165  -25.7435   15.2615 C.3       3 GLC5        0.0000 
     65 CA        -21.2410  -26.5440   13.8170 C.3       9 GLL5        0.0000 
     66 CA        -23.1920  -24.9430   16.7060 C.3       6 GLP5        0.0000 
     67 CA        -19.8220  -25.4825   13.3200 C.3       3 GLC5        0.0000 
     68 CA        -18.4030  -24.4210   12.8230 C.3       6 GLP5        0.0000 
     69 CA        -21.1495  -33.1595   15.4265 C.3       3 GLC5        0.0000 
     70 CA        -21.6450  -31.3370   15.9270 C.3       9 GLL5        0.0000 
     71 CA        -20.6540  -34.9820   14.9260 C.3       6 GLP5        0.0000 
     72 O         -19.7445  -31.7695   17.8795 O.2       1 ALC1        0.0000 
     73 O         -20.0640  -30.5400   17.5120 O.2       7 ALL1        0.0000 
     74 O         -19.4250  -32.9990   18.2470 O.2       4 ALP1        0.0000 
     75 CA        -21.6820  -33.1475   18.1935 C.3       3 GLC5        0.0000 
     76 CA        -22.2470  -31.0980   18.4170 C.3       9 GLL5        0.0000 
     77 CA        -21.1170  -35.1970   17.9700 C.3       6 GLP5        0.0000 
     78 N         -24.4095  -29.6460   18.5950 N.am      2 SEC2        0.0000 
     79 N         -23.6480  -31.1480   18.1220 N.am      8 SEL2        0.0000 
     80 N         -25.1710  -28.1440   19.0680 N.am      5 SEP2        0.0000 
     81 CA        -23.2790  -29.8510   21.1045 C.3       3 GLC5        0.0000 
     82 CA        -22.0890  -30.2590   19.6880 C.3       9 GLL5        0.0000 
     83 CA        -24.4690  -29.4430   22.5210 C.3       6 GLP5        0.0000 
     84 N         -23.5900  -28.5030   19.2205 N.am      2 SEC2        0.0000 
     85 N         -22.0090  -28.8620   19.3730 N.am      8 SEL2        0.0000 
     86 N         -22.0400  -27.7455   18.4820 N.am      2 SEC2        0.0000 
     87 N         -22.0710  -26.6290   17.5910 N.am      5 SEP2        0.0000 
     88 CA        -22.5210  -30.6865   21.8980 C.3       3 GLC5        0.0000 
     89 CA        -20.8820  -30.6820   20.5230 C.3       9 GLL5        0.0000 
     90 CA        -24.1600  -30.6910   23.2730 C.3       6 GLP5        0.0000 
     91 N         -21.1255  -30.1270   24.6810 N.am      2 SEC2        0.0000 
     92 N         -20.2710  -29.0950   23.9780 N.am      8 SEL2        0.0000 
     93 N         -21.9800  -31.1590   25.3840 N.am      5 SEP2        0.0000 
     94 N         -20.1645  -28.6015   25.2390 N.am      2 SEC2        0.0000 
     95 N         -20.0580  -28.1080   26.5000 N.am      5 SEP2        0.0000 
     96 CA        -21.0078  -25.8530   24.7528 C.3       3 GLC5        0.0000 
     97 CA        -22.7800  -26.7400   25.4660 C.3       6 GLP5        0.0000 
     98 CA        -17.3312  -25.4910   24.4163 C.3       3 GLC5        0.0000 
     99 CA        -15.4270  -26.0160   24.7930 C.3       6 GLP5        0.0000 
    100 CA        -18.3398  -20.2150   25.0198 C.3       3 GLC5        0.0000 
    101 CA        -14.9295  -22.8684   26.5484 C.3       3 GLC5        0.0000 
    102 CA        -14.2950  -24.6240   26.5560 C.3       6 GLP5        0.0000 
    103 CA        -23.3925  -29.5640   12.2812 C.3       3 GLC5        0.0000 
    104 CA        -24.4930  -29.4280   14.0870 C.3       9 GLL5        0.0000 
    105 CA        -22.1690  -30.3150   10.7780 C.3       6 GLP5        0.0000 
    106 CA        -23.7713  -26.9703   15.3428 C.3       3 GLC5        0.0000 
    107 CA        -23.3100  -26.2170   17.2590 C.3       6 GLP5        0.0000 
    108 CA        -22.6070  -28.8565   12.2108 C.3       3 GLC5        0.0000 
    109 CA        -23.7260  -27.2490   13.3710 C.3       9 GLL5        0.0000 
    110 CA        -22.3965  -29.7853   12.6790 C.3       3 GLC5        0.0000 
    111 CA        -22.1170  -28.7770   14.5240 C.3       9 GLL5        0.0000 
    112 CA        -22.9979  -27.5825   15.8435 C.3       3 GLC5        0.0000 
    113 CA        -23.1310  -29.7340   14.6360 C.3       9 GLL5        0.0000 
@<TRIPOS>BOND
@<TRIPOS>SUBSTRUCTURE
     1 ALC1        7 GROUP        1 X    ALC  0     ROOT ALC X 1
     2 SEC2       28 GROUP        1 X    SEC  0     **** SEC X 2
     3 GLC5        1 GROUP        1 X    GLC  0     **** GLC X 6
     4 ALP1        9 GROUP        1 Y    ALP  0     ROOT ALP Y 8
     5 SEP2       30 GROUP        1 Y    SEP  0     **** SEP Y 9
     6 GLP5        3 GROUP        1 Y    GLP  0     **** GLP Y 13
     7 ALL1        8 GROUP        1 Z    ALL  0     ROOT ALL Z 15
     8 SEL2       29 GROUP        1 Z    SEL  0     **** SEL Z 16
     9 GLL5        2 GROUP        1 Z    GLL  0     **** GLL Z 20
@<TRIPOS>SET

