#    Name: 4b68_FAD_1_ligand
#    Modification time : Tue Mar 25 06:46:43 2014

@<TRIPOS>MOLECULE
4b68_FAD_1_ligand
   84    89     1     0     0
SMALL
NO_CHARGES


@<TRIPOS>ATOM
      1 PA        -20.1510  -26.8810   21.6400 P.3       1 FAD1492     0.0000 
      2 O1A       -21.5850  -27.2170   21.3250 O.co2     1 FAD1492     0.0000 
      3 O2A       -19.3950  -25.9670   20.7070 O.co2     1 FAD1492     0.0000 
      4 O5B       -20.1120  -26.2710   23.1230 O.3       1 FAD1492     0.0000 
      5 C5B       -18.9920  -25.5170   23.5740 C.3       1 FAD1492     0.0000 
      6 C4B       -19.4790  -24.4150   24.5050 C.3       1 FAD1492     0.0000 
      7 O4B       -18.3830  -23.9150   25.2730 O.3       1 FAD1492     0.0000 
      8 C3B       -20.0570  -23.2380   23.7330 C.3       1 FAD1492     0.0000 
      9 O3B       -21.3390  -22.9250   24.2890 O.3       1 FAD1492     0.0000 
     10 C2B       -19.0840  -22.0930   23.9570 C.3       1 FAD1492     0.0000 
     11 O2B       -19.7610  -20.8380   24.0780 O.3       1 FAD1492     0.0000 
     12 C1B       -18.3930  -22.4850   25.2540 C.3       1 FAD1492     0.0000 
     13 N9A       -16.9930  -22.0110   25.3650 N.pl3     1 FAD1492     0.0000 
     14 C8A       -16.0340  -22.1250   24.4270 C.2       1 FAD1492     0.0000 
     15 N7A       -14.8640  -21.5990   24.8670 N.2       1 FAD1492     0.0000 
     16 C5A       -15.0650  -21.1410   26.1170 C.ar      1 FAD1492     0.0000 
     17 C6A       -14.2470  -20.4720   27.1560 C.ar      1 FAD1492     0.0000 
     18 N6A       -12.9440  -20.1810   26.9330 N.pl3     1 FAD1492     0.0000 
     19 N1A       -14.8450  -20.1620   28.3320 N.ar      1 FAD1492     0.0000 
     20 C2A       -16.1440  -20.4480   28.5680 C.ar      1 FAD1492     0.0000 
     21 N3A       -16.9450  -21.0510   27.6670 N.ar      1 FAD1492     0.0000 
     22 C4A       -16.4720  -21.4190   26.4450 C.ar      1 FAD1492     0.0000 
     23 N1        -23.6970  -33.2880   15.6400 N.2       1 FAD1492     0.0000 
     24 C2        -24.7860  -34.1490   15.6630 C.2       1 FAD1492     0.0000 
     25 O2        -24.6390  -35.2620   16.2190 O.2       1 FAD1492     0.0000 
     26 N3        -26.0080  -33.8570   15.1320 N.am      1 FAD1492     0.0000 
     27 C4        -26.2650  -32.6980   14.5050 C.2       1 FAD1492     0.0000 
     28 O4        -27.3150  -32.5490   13.8370 O.2       1 FAD1492     0.0000 
     29 C4X       -25.2420  -31.6210   14.5770 C.2       1 FAD1492     0.0000 
     30 N5        -25.4970  -30.3350   14.1700 N.2       1 FAD1492     0.0000 
     31 C5X       -24.4930  -29.4280   14.0870 C.ar      1 FAD1492     0.0000 
     32 C6        -24.7390  -28.1980   13.4820 C.ar      1 FAD1492     0.0000 
     33 C7        -23.7260  -27.2490   13.3710 C.ar      1 FAD1492     0.0000 
     34 C7M       -24.0350  -25.9340   12.7020 C.3       1 FAD1492     0.0000 
     35 C8        -22.3640  -27.5470   13.9160 C.ar      1 FAD1492     0.0000 
     36 C8M       -21.2410  -26.5440   13.8170 C.3       1 FAD1492     0.0000 
     37 C9        -22.1170  -28.7770   14.5240 C.ar      1 FAD1492     0.0000 
     38 C9A       -23.1310  -29.7340   14.6360 C.ar      1 FAD1492     0.0000 
     39 N10       -22.9100  -30.9940   15.2570 N.pl3     1 FAD1492     0.0000 
     40 C10       -23.9200  -31.9740   15.1620 C.2       1 FAD1492     0.0000 
     41 C1'       -21.6450  -31.3370   15.9270 C.3       1 FAD1492     0.0000 
     42 C2'       -21.4640  -30.5420   17.2200 C.3       1 FAD1492     0.0000 
     43 O2'       -20.0640  -30.5400   17.5120 O.3       1 FAD1492     0.0000 
     44 C3'       -22.2470  -31.0980   18.4170 C.3       1 FAD1492     0.0000 
     45 O3'       -23.6480  -31.1480   18.1220 O.3       1 FAD1492     0.0000 
     46 C4'       -22.0890  -30.2590   19.6880 C.3       1 FAD1492     0.0000 
     47 O4'       -22.0090  -28.8620   19.3730 O.3       1 FAD1492     0.0000 
     48 C5'       -20.8820  -30.6820   20.5230 C.3       1 FAD1492     0.0000 
     49 O5'       -21.0170  -30.1000   21.8150 O.3       1 FAD1492     0.0000 
     50 P         -19.7540  -29.5310   22.6320 P.3       1 FAD1492     0.0000 
     51 O1P       -18.6300  -30.5360   22.5570 O.co2     1 FAD1492     0.0000 
     52 O2P       -20.2710  -29.0950   23.9780 O.co2     1 FAD1492     0.0000 
     53 O3P       -19.2920  -28.2400   21.7800 O.3       1 FAD1492     0.0000 
     54 H         -18.4577  -25.0442   22.7444 H         1 FAD1492     0.0000 
     55 H         -18.2805  -26.1357   24.1291 H         1 FAD1492     0.0000 
     56 H         -20.2458  -24.8101   25.1460 H         1 FAD1492     0.0000 
     57 H         -20.0889  -23.4812   22.7125 H         1 FAD1492     0.0000 
     58 H         -18.3604  -22.1158   23.1777 H         1 FAD1492     0.0000 
     59 H         -18.9798  -22.1153   26.0775 H         1 FAD1492     0.0000 
     60 H         -16.1590  -22.5322   23.5439 H         1 FAD1492     0.0000 
     61 H         -12.4603  -19.7269   27.6812 H         1 FAD1492     0.0000 
     62 H         -12.5806  -20.4459   26.0398 H         1 FAD1492     0.0000 
     63 H         -16.5548  -20.1832   29.5140 H         1 FAD1492     0.0000 
     64 H         -26.7774  -34.5780   15.2225 H         1 FAD1492     0.0000 
     65 H         -25.6791  -27.9883   13.1132 H         1 FAD1492     0.0000 
     66 H         -21.1781  -28.9854   14.8955 H         1 FAD1492     0.0000 
     67 H         -20.7914  -31.1250   15.2702 H         1 FAD1492     0.0000 
     68 H         -21.6173  -32.4063   16.1736 H         1 FAD1492     0.0000 
     69 H         -21.7998  -29.5233   17.0332 H         1 FAD1492     0.0000 
     70 H         -21.8790  -32.0975   18.6348 H         1 FAD1492     0.0000 
     71 H         -22.9872  -30.4414   20.3076 H         1 FAD1492     0.0000 
     72 H         -19.9842  -30.3381   20.0107 H         1 FAD1492     0.0000 
     73 H         -20.8687  -31.7706   20.5635 H         1 FAD1492     0.0000 
     74 H         -23.2355  -25.3339   12.6754 H         1 FAD1492     0.0000 
     75 H         -24.3384  -26.0601   11.7575 H         1 FAD1492     0.0000 
     76 H         -24.7595  -25.4360   13.1786 H         1 FAD1492     0.0000 
     77 H         -20.3960  -26.8912   14.2238 H         1 FAD1492     0.0000 
     78 H         -21.0344  -26.3104   12.8669 H         1 FAD1492     0.0000 
     79 H         -21.4634  -25.6899   14.2872 H         1 FAD1492     0.0000 
     80 H         -21.1694  -22.7781   25.2635 H         1 FAD1492     0.0000 
     81 H         -20.4979  -21.0037   24.7334 H         1 FAD1492     0.0000 
     82 H         -19.9388  -31.2699   18.1839 H         1 FAD1492     0.0000 
     83 H         -23.7066  -31.0544   17.1281 H         1 FAD1492     0.0000 
     84 H         -21.3560  -28.4856   20.0303 H         1 FAD1492     0.0000 
@<TRIPOS>BOND
     1    2    1 ar   
     2    3    1 ar   
     3    4    1 1    
     4   53    1 1    
     5    5    4 1    
     6    6    5 1    
     7   54    5 1    
     8   55    5 1    
     9    7    6 1    
    10    8    6 1    
    11   56    6 1    
    12   12    7 1    
    13    9    8 1    
    14   10    8 1    
    15   57    8 1    
    16   80    9 1    
    17   11   10 1    
    18   12   10 1    
    19   58   10 1    
    20   81   11 1    
    21   13   12 1    
    22   59   12 1    
    23   14   13 1    
    24   22   13 1    
    25   15   14 2    
    26   60   14 1    
    27   16   15 1    
    28   17   16 ar   
    29   22   16 ar   
    30   18   17 1    
    31   19   17 ar   
    32   61   18 1    
    33   62   18 1    
    34   20   19 ar   
    35   21   20 ar   
    36   63   20 1    
    37   22   21 ar   
    38   24   23 1    
    39   40   23 2    
    40   25   24 2    
    41   26   24 am   
    42   27   26 am   
    43   64   26 1    
    44   28   27 2    
    45   29   27 1    
    46   30   29 2    
    47   40   29 1    
    48   31   30 1    
    49   32   31 ar   
    50   38   31 ar   
    51   33   32 ar   
    52   65   32 1    
    53   34   33 1    
    54   35   33 ar   
    55   74   34 1    
    56   75   34 1    
    57   76   34 1    
    58   36   35 1    
    59   37   35 ar   
    60   77   36 1    
    61   78   36 1    
    62   79   36 1    
    63   38   37 ar   
    64   66   37 1    
    65   39   38 1    
    66   40   39 1    
    67   41   39 1    
    68   42   41 1    
    69   67   41 1    
    70   68   41 1    
    71   43   42 1    
    72   44   42 1    
    73   69   42 1    
    74   82   43 1    
    75   45   44 1    
    76   46   44 1    
    77   70   44 1    
    78   83   45 1    
    79   47   46 1    
    80   48   46 1    
    81   71   46 1    
    82   84   47 1    
    83   49   48 1    
    84   72   48 1    
    85   73   48 1    
    86   50   49 1    
    87   51   50 ar   
    88   52   50 ar   
    89   53   50 1    
@<TRIPOS>SUBSTRUCTURE
     1 FAD1492     1 GROUP   
@<TRIPOS>SET

