#    Name: 3K30_1_CAVITY_N1_6.mol2
#    Modification time : Tue Mar 11 05:48:37 2014

@<TRIPOS>MOLECULE
3K30_1_CAVITY_N1_6.mol2
   46     0     6     0     0
SMALL
NO_CHARGES


@<TRIPOS>ATOM
      1 OG         34.2053   -2.7447   16.6356 O.2       1 SER1        0.0000 
      2 OG         35.0508   -3.0162   15.4267 O.2       1 SER1        0.0000 
      3 O          35.8963   -3.2877   14.2178 O.2       2 ALA2        0.0000 
      4 O          36.7417   -3.5592   13.0089 O.2       2 ALA2        0.0000 
      5 O          33.0442   -2.4075   15.7478 O.2       2 ALA2        0.0000 
      6 NZ         33.8897   -2.6789   14.5389 N.2       3 LYS4        0.0000 
      7 N          34.7352   -2.9504   13.3300 N.2       2 ALA2        0.0000 
      8 O          32.7286   -2.3417   13.6512 O.2       2 ALA2        0.0000 
      9 NZ         33.5741   -2.6132   12.4422 N.2       3 LYS4        0.0000 
     10 O          38.7678   -1.0242   13.8565 O.2       2 ALA2        0.0000 
     11 OG         39.6133   -1.2957   12.6476 O.2       1 SER1        0.0000 
     12 CZ         35.0703    0.1276   16.5955 C.ar      4 PHE5        0.0000 
     13 CZ         35.9158   -0.1439   15.3866 C.ar      4 PHE5        0.0000 
     14 CZ         36.7613   -0.4154   14.1777 C.ar      4 PHE5        0.0000 
     15 O          37.6068   -0.6869   12.9688 O.2       2 ALA2        0.0000 
     16 N          38.4522   -0.9584   11.7599 N.2       2 ALA2        0.0000 
     17 NZ         32.2183    1.0078   18.1256 N.2       3 LYS4        0.0000 
     18 NZ         33.0638    0.7363   16.9167 N.2       3 LYS4        0.0000 
     19 CA         33.9093    0.4648   15.7078 C.3       5 GLY6        0.0000 
     20 CA         34.7547    0.1934   14.4988 C.3       5 GLY6        0.0000 
     21 O          35.6002   -0.0781   13.2899 O.2       2 ALA2        0.0000 
     22 CA         36.4457   -0.3496   12.0810 C.3       5 GLY6        0.0000 
     23 CA         32.7482    0.8021   14.8200 C.3       5 GLY6        0.0000 
     24 O          38.0393    0.7493   12.9487 O.2       2 ALA2        0.0000 
     25 OG         38.8847    0.4778   11.7398 O.2       1 SER1        0.0000 
     26 CA         36.8782    1.0865   12.0610 C.3       5 GLY6        0.0000 
     27 CZ         36.6444   -1.9174   16.2944 C.ar      4 PHE5        0.0000 
     28 O          37.4899   -2.1888   15.0855 O.2       2 ALA2        0.0000 
     29 N          38.3353   -2.4603   13.8766 N.2       2 ALA2        0.0000 
     30 NZ         39.1808   -2.7318   12.6677 N.2       3 LYS4        0.0000 
     31 CZ         33.7924   -1.0371   17.8245 C.ar      4 PHE5        0.0000 
     32 CZ         34.6378   -1.3086   16.6156 C.ar      4 PHE5        0.0000 
     33 DU         35.4833   -1.5801   15.4066 H         6 CUB7        0.0000 
     34 DU         36.3288   -1.8516   14.1977 H         6 CUB7        0.0000 
     35 N          37.1742   -2.1231   12.9888 N.2       2 ALA2        0.0000 
     36 N          38.0197   -2.3945   11.7799 N.2       2 ALA2        0.0000 
     37 O          31.7858   -0.4283   18.1456 O.2       2 ALA2        0.0000 
     38 O          32.6313   -0.6998   16.9367 O.2       2 ALA2        0.0000 
     39 O          33.4767   -0.9713   15.7278 O.2       2 ALA2        0.0000 
     40 DU         34.3222   -1.2428   14.5189 H         6 CUB7        0.0000 
     41 N          35.1677   -1.5143   13.3100 N.2       2 ALA2        0.0000 
     42 CA         31.4702   -0.3625   16.0489 C.3       5 GLY6        0.0000 
     43 CA         32.3157   -0.6340   14.8400 C.3       5 GLY6        0.0000 
     44 O          33.1611   -0.9055   13.6311 O.2       2 ALA2        0.0000 
     45 CA         34.0066   -1.1770   12.4222 C.3       5 GLY6        0.0000 
     46 NZ         33.4572   -4.1151   14.5590 N.2       3 LYS4        0.0000 
@<TRIPOS>BOND
@<TRIPOS>SUBSTRUCTURE
     1 SER1        1 GROUP   
     2 ALA2        3 GROUP   
     3 LYS4        6 GROUP   
     4 PHE5       12 GROUP   
     5 GLY6       19 GROUP   
     6 CUB7       33 GROUP   
@<TRIPOS>SET

