#    Name: 3k30_FMN_1_INTS_M
#    Modification time : Mon Mar 24 18:07:42 2014

@<TRIPOS>MOLECULE
3k30_FMN_1_INTS_M
   87     0    12     0     0
SMALL
NO_CHARGES


@<TRIPOS>ATOM
      1 N          36.0240   -5.3480   12.3200 N.am      2 SEC2        0.0000 
      2 N          34.9960   -5.0610   13.3210 N.am     10 SEL2        0.0000 
      3 N          37.0520   -5.6350   11.3190 N.am      6 SEP2        0.0000 
      4 O          32.9415   -4.1305   12.9590 O.2       1 ALC1        0.0000 
      5 O          33.9230   -3.0750   13.2650 O.2       9 ALL1        0.0000 
      6 O          31.9600   -5.1860   12.6530 O.2       5 ALP1        0.0000 
      7 N          31.3685   -1.8185   13.1980 N.am      2 SEC2        0.0000 
      8 N          32.8710   -1.1750   13.6510 N.am     10 SEL2        0.0000 
      9 N          29.8660   -2.4620   12.7450 N.am      6 SEP2        0.0000 
     10 N          34.5800    0.9175   12.4850 N.am      2 SEC2        0.0000 
     11 N          35.3560    0.2650   13.5060 N.am     10 SEL2        0.0000 
     12 N          33.8040    1.5700   11.4640 N.am      6 SEP2        0.0000 
     13 CA         38.5985    6.0110   11.2745 C.3       4 GLC5        0.0000 
     14 CA         37.3200    4.5140   12.0230 C.3      12 GLL5        0.0000 
     15 CA         39.8770    7.5080   10.5260 C.3       8 GLP5        0.0000 
     16 CA         38.1665    5.6435   13.4145 C.3       4 GLC5        0.0000 
     17 CA         39.0130    6.7730   14.8060 C.3       8 GLP5        0.0000 
     18 CA         36.4145    5.8960   10.5000 C.3       4 GLC5        0.0000 
     19 CA         35.5090    7.2780    8.9770 C.3       8 GLP5        0.0000 
     20 CA         41.0505    3.2260   10.2320 C.3       4 GLC5        0.0000 
     21 CA         39.7860    2.9230   11.2180 C.3      12 GLL5        0.0000 
     22 CA         42.3150    3.5290    9.2460 C.3       8 GLP5        0.0000 
     23 CA         39.1650    3.7655    9.3965 C.3       4 GLC5        0.0000 
     24 CA         38.5440    4.6080    7.5750 C.3       8 GLP5        0.0000 
     25 CA         40.5850    4.7440   11.0380 C.3       4 GLC5        0.0000 
     26 CA         41.3840    6.5650   10.8580 C.3       8 GLP5        0.0000 
     27 CA         39.4285   -1.3230   14.6935 C.3       4 GLC5        0.0000 
     28 CA         38.7730   -1.9990   12.6740 C.3      12 GLL5        0.0000 
     29 CA         40.0840   -0.6470   16.7130 C.3       8 GLP5        0.0000 
     30 CA         37.4440   -0.8300   10.1725 C.3       4 GLC5        0.0000 
     31 CA         38.8860   -2.2080   11.1610 C.3      12 GLL5        0.0000 
     32 CA         36.0020    0.5480    9.1840 C.3       8 GLP5        0.0000 
     33 N          37.4445   -4.3450   10.9950 N.am      2 SEC2        0.0000 
     34 N          37.8370   -3.0550   10.6710 N.am     10 SEL2        0.0000 
     35 O          36.7995   -2.8260   10.2885 O.2       1 ALC1        0.0000 
     36 O          37.8370   -3.0550   10.6710 O.2       9 ALL1        0.0000 
     37 O          35.7620   -2.5970    9.9060 O.2       5 ALP1        0.0000 
     38 N          39.5690   -5.2510   10.6500 N.am      2 SEC2        0.0000 
     39 N          40.2850   -4.1420   11.2010 N.am     10 SEL2        0.0000 
     40 N          38.8530   -6.3600   10.0990 N.am      6 SEP2        0.0000 
     41 O          40.7105   -4.2560   12.3905 O.2       1 ALC1        0.0000 
     42 O          40.2850   -4.1420   11.2010 O.2       9 ALL1        0.0000 
     43 O          41.1360   -4.3700   13.5800 O.2       5 ALP1        0.0000 
     44 N          41.4960   -0.1110   12.5865 N.am      2 SEC2        0.0000 
     45 N          41.1110   -0.5470   11.2070 N.am     10 SEL2        0.0000 
     46 N          41.8810    0.3250   13.9660 N.am      6 SEP2        0.0000 
     47 CA         43.0595   -4.1900   10.1310 C.3       4 GLC5        0.0000 
     48 CA         42.7400   -2.4090   10.7610 C.3      12 GLL5        0.0000 
     49 CA         43.3790   -5.9710    9.5010 C.3       8 GLP5        0.0000 
     50 NZ         45.3175   -0.2380    9.8310 N.4       3 LYC4        0.0000 
     51 NZ         44.9070   -1.1540    8.7440 N.4      11 LYL4        0.0000 
     52 NZ         45.1010    1.8420   11.0600 N.4       7 LYP4        0.0000 
     53 N          46.0020   -1.6945    8.0975 N.am      2 SEC2        0.0000 
     54 N          44.9070   -1.1540    8.7440 N.am     10 SEL2        0.0000 
     55 N          47.0970   -2.2350    7.4510 N.am      6 SEP2        0.0000 
     56 N          45.3175   -0.2380    9.8310 N.am      2 SEC2        0.0000 
     57 N          45.7280    0.6780   10.9180 N.am      6 SEP2        0.0000 
     58 NZ         44.2535    0.3935   10.0690 N.4       3 LYC4        0.0000 
     59 NZ         42.7790    0.1090    9.2200 N.4      11 LYL4        0.0000 
     60 N          42.0825    0.8695    8.0960 N.am      2 SEC2        0.0000 
     61 N          42.7790    0.1090    9.2200 N.am     10 SEL2        0.0000 
     62 N          41.3860    1.6300    6.9720 N.am      6 SEP2        0.0000 
     63 N          43.4260    1.1265    9.7455 N.am      2 SEC2        0.0000 
     64 N          44.0730    2.1440   10.2710 N.am      6 SEP2        0.0000 
     65 N          44.2535    0.3935   10.0690 N.am      2 SEC2        0.0000 
     66 N          41.8580   -1.2160    6.6080 N.am      2 SEC2        0.0000 
     67 N          42.9760   -1.3780    7.1450 N.am     10 SEL2        0.0000 
     68 N          40.7400   -1.0540    6.0710 N.am      6 SEP2        0.0000 
     69 N          42.1810    0.1260    7.0585 N.am      2 SEC2        0.0000 
     70 CA         35.6010    0.7985   11.4178 C.3       4 GLC5        0.0000 
     71 CA         36.4080    0.9080   12.9280 C.3      12 GLL5        0.0000 
     72 CA         34.7830   -0.0140    9.9450 C.3       8 GLP5        0.0000 
     73 CA         37.0395    1.6118   10.6732 C.3       4 GLC5        0.0000 
     74 CA         37.5290    3.0530   12.3830 C.3      12 GLL5        0.0000 
     75 CA         36.4304    3.1749   12.9078 C.3       4 GLC5        0.0000 
     76 CA         34.8360    3.3090   13.7430 C.3       8 GLP5        0.0000 
     77 CA         39.6728    3.7436   13.2411 C.3       4 GLC5        0.0000 
     78 CA         40.4140    4.6880   14.7920 C.3       8 GLP5        0.0000 
     79 CA         37.0915    0.5795   10.9195 C.3       4 GLC5        0.0000 
     80 CA         38.7410    0.9770   12.4320 C.3      12 GLL5        0.0000 
     81 CA         35.9280    2.1185   13.3136 C.3       4 GLC5        0.0000 
     82 CA         37.6210    0.2450   12.8780 C.3      12 GLL5        0.0000 
     83 CA         38.9860   -3.2230    9.0617 C.3       4 GLC5        0.0000 
     84 CA         38.4150   -3.9480    7.1630 C.3       8 GLP5        0.0000 
     85 CA         40.0547   -1.2745    9.6236 C.3       4 GLC5        0.0000 
     86 CA         40.2280   -2.7880   10.7600 C.3      12 GLL5        0.0000 
     87 CA         39.6380   -0.3180    8.0950 C.3       8 GLP5        0.0000 
@<TRIPOS>BOND
@<TRIPOS>SUBSTRUCTURE
     1 ALC1        4 GROUP        1 X    ALC  0     ROOT ALC X 1
     2 SEC2        1 GROUP        1 X    SEC  0     **** SEC X 2
     3 LYC4       50 GROUP        1 X    LYC  0     **** LYC X 4
     4 GLC5       13 GROUP        1 X    GLC  0     **** GLC X 6
     5 ALP1        6 GROUP        1 Y    ALP  0     ROOT ALP Y 8
     6 SEP2        3 GROUP        1 Y    SEP  0     **** SEP Y 9
     7 LYP4       52 GROUP        1 Y    LYP  0     **** LYP Y 11
     8 GLP5       15 GROUP        1 Y    GLP  0     **** GLP Y 13
     9 ALL1        5 GROUP        1 Z    ALL  0     ROOT ALL Z 15
    10 SEL2        2 GROUP        1 Z    SEL  0     **** SEL Z 16
    11 LYL4       51 GROUP        1 Z    LYL  0     **** LYL Z 18
    12 GLL5       14 GROUP        1 Z    GLL  0     **** GLL Z 20
@<TRIPOS>SET

