#    Name: 3k30_FMN_1_ligand
#    Modification time : Mon Mar 24 18:07:42 2014

@<TRIPOS>MOLECULE
3k30_FMN_1_ligand
   50    52     1     0     0
SMALL
NO_CHARGES


@<TRIPOS>ATOM
      1 N1         36.2250   -3.1840   13.0110 N.2       1 FMN802      0.0000 
      2 C2         35.0610   -3.8060   13.3200 C.2       1 FMN802      0.0000 
      3 O2         34.9960   -5.0610   13.3210 O.2       1 FMN802      0.0000 
      4 N3         33.9230   -3.0750   13.2650 N.am      1 FMN802      0.0000 
      5 C4         33.9680   -1.7510   13.5070 C.2       1 FMN802      0.0000 
      6 O4         32.8710   -1.1750   13.6510 O.2       1 FMN802      0.0000 
      7 C4A        35.2190   -1.0940   13.4980 C.2       1 FMN802      0.0000 
      8 N5         35.3560    0.2650   13.5060 N.2       1 FMN802      0.0000 
      9 C5A        36.4080    0.9080   12.9280 C.ar      1 FMN802      0.0000 
     10 C6         36.4300    2.3140   12.8530 C.ar      1 FMN802      0.0000 
     11 C7         37.5290    3.0530   12.3830 C.ar      1 FMN802      0.0000 
     12 C7M        37.3200    4.5140   12.0230 C.3       1 FMN802      0.0000 
     13 C8         38.6250    2.2980   11.9420 C.ar      1 FMN802      0.0000 
     14 C8M        39.7860    2.9230   11.2180 C.3       1 FMN802      0.0000 
     15 C9         38.7410    0.9770   12.4320 C.ar      1 FMN802      0.0000 
     16 C9A        37.6210    0.2450   12.8780 C.ar      1 FMN802      0.0000 
     17 N10        37.5790   -1.1810   12.9440 N.pl3     1 FMN802      0.0000 
     18 C10        36.3240   -1.8340   13.0860 C.2       1 FMN802      0.0000 
     19 C1'        38.7730   -1.9990   12.6740 C.3       1 FMN802      0.0000 
     20 C2'        38.8860   -2.2080   11.1610 C.3       1 FMN802      0.0000 
     21 O2'        37.8370   -3.0550   10.6710 O.3       1 FMN802      0.0000 
     22 C3'        40.2280   -2.7880   10.7600 C.3       1 FMN802      0.0000 
     23 O3'        40.2850   -4.1420   11.2010 O.3       1 FMN802      0.0000 
     24 C4'        41.3860   -1.9640   11.3440 C.3       1 FMN802      0.0000 
     25 O4'        41.1110   -0.5470   11.2070 O.3       1 FMN802      0.0000 
     26 C5'        42.7400   -2.4090   10.7610 C.3       1 FMN802      0.0000 
     27 O5'        42.7300   -2.3850    9.3390 O.3       1 FMN802      0.0000 
     28 P          43.3990   -1.1260    8.5630 P.3       1 FMN802      0.0000 
     29 O1P        44.9070   -1.1540    8.7440 O.co2     1 FMN802      0.0000 
     30 O2P        42.7790    0.1090    9.2200 O.co2     1 FMN802      0.0000 
     31 O3P        42.9760   -1.3780    7.1450 O.co2     1 FMN802      0.0000 
     32 H          33.0198   -3.5366   13.0367 H         1 FMN802      0.0000 
     33 H          35.5767    2.8387   13.1661 H         1 FMN802      0.0000 
     34 H          39.6765    0.5350   12.4638 H         1 FMN802      0.0000 
     35 H          38.6926   -2.9703   13.1507 H         1 FMN802      0.0000 
     36 H          39.6713   -1.4988   13.0205 H         1 FMN802      0.0000 
     37 H          38.8061   -1.2158   10.6879 H         1 FMN802      0.0000 
     38 H          40.2990   -2.7369    9.6743 H         1 FMN802      0.0000 
     39 H          41.4129   -2.2204   12.4336 H         1 FMN802      0.0000 
     40 H          42.9480   -3.4188   11.1539 H         1 FMN802      0.0000 
     41 H          43.5107   -1.7387   11.1783 H         1 FMN802      0.0000 
     42 H          38.1645    4.9415   11.7004 H         1 FMN802      0.0000 
     43 H          36.6402    4.6243   11.2980 H         1 FMN802      0.0000 
     44 H          37.0021    5.0478   12.8066 H         1 FMN802      0.0000 
     45 H          40.2415    3.6169   11.7757 H         1 FMN802      0.0000 
     46 H          40.4782    2.2449   10.9709 H         1 FMN802      0.0000 
     47 H          39.4983    3.3702   10.3711 H         1 FMN802      0.0000 
     48 H          36.9903   -2.5666   10.8821 H         1 FMN802      0.0000 
     49 H          41.0301   -4.1658   11.8675 H         1 FMN802      0.0000 
     50 H          41.7026   -0.2396   10.4617 H         1 FMN802      0.0000 
@<TRIPOS>BOND
     1    2    1 1    
     2   18    1 2    
     3    3    2 2    
     4    4    2 am   
     5    5    4 am   
     6   32    4 1    
     7    6    5 2    
     8    7    5 1    
     9    8    7 2    
    10   18    7 1    
    11    9    8 1    
    12   10    9 ar   
    13   16    9 ar   
    14   11   10 ar   
    15   33   10 1    
    16   12   11 1    
    17   13   11 ar   
    18   42   12 1    
    19   43   12 1    
    20   44   12 1    
    21   14   13 1    
    22   15   13 ar   
    23   45   14 1    
    24   46   14 1    
    25   47   14 1    
    26   16   15 ar   
    27   34   15 1    
    28   17   16 1    
    29   18   17 1    
    30   19   17 1    
    31   20   19 1    
    32   35   19 1    
    33   36   19 1    
    34   21   20 1    
    35   22   20 1    
    36   37   20 1    
    37   48   21 1    
    38   23   22 1    
    39   24   22 1    
    40   38   22 1    
    41   49   23 1    
    42   25   24 1    
    43   26   24 1    
    44   39   24 1    
    45   50   25 1    
    46   27   26 1    
    47   40   26 1    
    48   41   26 1    
    49   28   27 1    
    50   29   28 ar   
    51   30   28 ar   
    52   31   28 ar   
@<TRIPOS>SUBSTRUCTURE
     1 FMN802      1 GROUP   
@<TRIPOS>SET

