#    Name: 3qwc_98P_1_INTS_M
#    Modification time : Tue Mar 25 10:15:12 2014

@<TRIPOS>MOLECULE
3qwc_98P_1_INTS_M
   66     0     9     0     0
SMALL
NO_CHARGES


@<TRIPOS>ATOM
      1 O          15.3050  -14.6000   23.8585 O.2       1 ALC1        0.0000 
      2 O          16.3970  -15.3470   23.1690 O.2       7 ALL1        0.0000 
      3 O          14.2130  -13.8530   24.5480 O.2       4 ALP1        0.0000 
      4 N          15.4790  -11.9170   24.0260 N.am      2 SEC2        0.0000 
      5 N          16.3610  -12.5520   23.0190 N.am      8 SEL2        0.0000 
      6 N          14.5970  -11.2820   25.0330 N.am      5 SEP2        0.0000 
      7 CA         17.4780  -13.0405   26.2300 C.3       3 GLC5        0.0000 
      8 CA         18.0050  -14.4560   24.7780 C.3       9 GLL5        0.0000 
      9 CA         16.9510  -11.6250   27.6820 C.3       6 GLP5        0.0000 
     10 CA         16.6795  -15.1535   26.3770 C.3       3 GLC5        0.0000 
     11 CA         15.3540  -15.8510   27.9760 C.3       6 GLP5        0.0000 
     12 CA         22.6040  -11.3880   23.9890 C.3       3 GLC5        0.0000 
     13 CA         22.0540  -13.0480   25.1400 C.3       9 GLL5        0.0000 
     14 CA         23.1540   -9.7280   22.8380 C.3       6 GLP5        0.0000 
     15 CA         17.6930  -10.7530   22.9640 C.3       3 GLC5        0.0000 
     16 CA         18.0340  -11.4370   21.1770 C.3       9 GLL5        0.0000 
     17 CA         17.3520  -10.0690   24.7510 C.3       6 GLP5        0.0000 
     18 CA         14.9605   -8.4815   18.8410 C.3       3 GLC5        0.0000 
     19 CA         14.5970  -10.2330   20.0690 C.3       9 GLL5        0.0000 
     20 CA         15.3240   -6.7300   17.6130 C.3       6 GLP5        0.0000 
     21 CA         12.3685  -11.9215   18.9145 C.3       3 GLC5        0.0000 
     22 CA         13.4330  -12.3730   20.7490 C.3       9 GLL5        0.0000 
     23 CA         11.3040  -11.4700   17.0800 C.3       6 GLP5        0.0000 
     24 CA         11.3890  -15.5795   22.7995 C.3       3 GLC5        0.0000 
     25 CA         12.3950  -14.4910   21.3050 C.3       9 GLL5        0.0000 
     26 CA         10.3830  -16.6680   24.2940 C.3       6 GLP5        0.0000 
     27 CA         10.4985  -14.1575   21.2340 C.3       3 GLC5        0.0000 
     28 CA          8.6020  -13.8240   21.1630 C.3       6 GLP5        0.0000 
     29 CA         10.2185  -13.1275   21.8080 C.3       3 GLC5        0.0000 
     30 CA         11.8350  -12.4310   22.4530 C.3       9 GLL5        0.0000 
     31 O          16.4750   -9.2025   21.4855 O.2       1 ALC1        0.0000 
     32 O          15.9190  -10.3750   20.6700 O.2       7 ALL1        0.0000 
     33 O          17.0310   -8.0300   22.3010 O.2       4 ALP1        0.0000 
     34 CA         11.1070   -7.7250   22.1870 C.3       3 GLC5        0.0000 
     35 CA         13.0960   -8.6210   22.1220 C.3       9 GLL5        0.0000 
     36 CA          9.1180   -6.8290   22.2520 C.3       6 GLP5        0.0000 
     37 CA         12.8135   -7.0660   21.8550 C.3       3 GLC5        0.0000 
     38 CA         12.5310   -5.5110   21.5880 C.3       6 GLP5        0.0000 
     39 CA         14.5475   -9.0375   23.2400 C.3       3 GLC5        0.0000 
     40 CA         15.9990   -9.4540   24.3580 C.3       6 GLP5        0.0000 
     41 CA         19.1112  -14.3112   26.8145 C.3       3 GLC5        0.0000 
     42 CA         19.5040  -14.4130   28.7900 C.3       6 GLP5        0.0000 
     43 CA         20.5145  -10.9170   24.3280 C.3       3 GLC5        0.0000 
     44 CA         19.6990  -12.7720   25.5610 C.3       9 GLL5        0.0000 
     45 CA         20.6780   -9.2930   23.0370 C.3       6 GLP5        0.0000 
     46 CA         19.9275  -13.4770   27.2045 C.3       3 GLC5        0.0000 
     47 CA         21.0030  -12.3100   25.6770 C.3       9 GLL5        0.0000 
     48 CA         22.8507  -11.8100   26.6037 C.3       3 GLC5        0.0000 
     49 CA         24.1730  -10.9410   27.7990 C.3       6 GLP5        0.0000 
     50 CA         18.8181  -11.4539   25.1024 C.3       3 GLC5        0.0000 
     51 CA         18.9027   -9.8490   19.4555 C.3       3 GLC5        0.0000 
     52 CA         19.2060   -8.3320   18.2390 C.3       6 GLP5        0.0000 
     53 CA         21.6860  -13.2067   20.4460 C.3       3 GLC5        0.0000 
     54 CA         20.2070  -12.3360   20.5570 C.3       9 GLL5        0.0000 
     55 CA         23.5390  -13.5390   19.9500 C.3       6 GLP5        0.0000 
     56 CA         20.0406  -10.5720   21.8257 C.3       3 GLC5        0.0000 
     57 CA         19.1517  -13.5901   19.2467 C.3       3 GLC5        0.0000 
     58 CA         19.1650  -11.2950   20.1670 C.3       9 GLL5        0.0000 
     59 CA         18.7310  -14.5660   17.6490 C.3       6 GLP5        0.0000 
     60 CA         14.6193  -10.0715   22.8798 C.3       3 GLC5        0.0000 
     61 CA         13.6110  -11.0090   20.9210 C.3       9 GLL5        0.0000 
     62 CA         10.6639  -10.8217   21.0933 C.3       3 GLC5        0.0000 
     63 CA         11.9720  -11.0690   22.6730 C.3       9 GLL5        0.0000 
     64 CA          8.9420  -10.5840   19.9640 C.3       6 GLP5        0.0000 
     65 CA         12.9794  -11.5012   24.0137 C.3       3 GLC5        0.0000 
     66 CA         13.5730  -11.9430   25.8050 C.3       6 GLP5        0.0000 
@<TRIPOS>BOND
@<TRIPOS>SUBSTRUCTURE
     1 ALC1        1 GROUP        1 X    ALC  0     ROOT ALC X 1
     2 SEC2        4 GROUP        1 X    SEC  0     **** SEC X 2
     3 GLC5        7 GROUP        1 X    GLC  0     **** GLC X 6
     4 ALP1        3 GROUP        1 Y    ALP  0     ROOT ALP Y 8
     5 SEP2        6 GROUP        1 Y    SEP  0     **** SEP Y 9
     6 GLP5        9 GROUP        1 Y    GLP  0     **** GLP Y 13
     7 ALL1        2 GROUP        1 Z    ALL  0     ROOT ALL Z 15
     8 SEL2        5 GROUP        1 Z    SEL  0     **** SEL Z 16
     9 GLL5        8 GROUP        1 Z    GLL  0     **** GLL Z 20
@<TRIPOS>SET

