#    Name: 3qwc_98P_1_ligand
#    Modification time : Tue Mar 25 10:15:12 2014

@<TRIPOS>MOLECULE
3qwc_98P_1_ligand
   55    57     1     0     0
SMALL
NO_CHARGES


@<TRIPOS>ATOM
      1 N22        16.3970  -15.3470   23.1690 N.4       1 98P2001     0.0000 
      2 C3         17.6100  -14.5520   23.2980 C.3       1 98P2001     0.0000 
      3 C4         17.3580  -13.1950   22.6970 C.2       1 98P2001     0.0000 
      4 O26        16.3610  -12.5520   23.0190 O.2       1 98P2001     0.0000 
      5 C2         18.0050  -14.4560   24.7780 C.3       1 98P2001     0.0000 
      6 C1         19.4320  -13.9630   24.9000 C.ar      1 98P2001     0.0000 
      7 C5         20.4820  -14.7060   24.3680 C.ar      1 98P2001     0.0000 
      8 C9         19.6990  -12.7720   25.5610 C.ar      1 98P2001     0.0000 
      9 C6         21.7910  -14.2420   24.4870 C.ar      1 98P2001     0.0000 
     10 C8         21.0030  -12.3100   25.6770 C.ar      1 98P2001     0.0000 
     11 C7         22.0540  -13.0480   25.1400 C.ar      1 98P2001     0.0000 
     12 N23        18.2460  -12.7420   21.8050 N.am      1 98P2001     0.0000 
     13 C10        18.0340  -11.4370   21.1770 C.3       1 98P2001     0.0000 
     14 C11        16.7110  -11.4310   20.4770 C.2       1 98P2001     0.0000 
     15 O27        16.3900  -12.3850   19.7730 O.2       1 98P2001     0.0000 
     16 C14        19.1650  -11.2950   20.1670 C.3       1 98P2001     0.0000 
     17 C15        20.2070  -12.3360   20.5570 C.3       1 98P2001     0.0000 
     18 C16        19.4590  -13.4130   21.3270 C.3       1 98P2001     0.0000 
     19 C12        14.5970  -10.2330   20.0690 C.3       1 98P2001     0.0000 
     20 C13        13.6110  -11.0090   20.9210 C.ar      1 98P2001     0.0000 
     21 C17        13.4330  -12.3730   20.7490 C.ar      1 98P2001     0.0000 
     22 C18        12.3950  -14.4910   21.3050 C.3       1 98P2001     0.0000 
     23 C19        11.8350  -12.4310   22.4530 C.ar      1 98P2001     0.0000 
     24 C20        11.9720  -11.0690   22.6730 C.ar      1 98P2001     0.0000 
     25 C21        12.8680  -10.3690   21.8820 C.ar      1 98P2001     0.0000 
     26 N24        15.9190  -10.3750   20.6700 N.am      1 98P2001     0.0000 
     27 N25        12.5620  -13.0480   21.5090 N.pl3     1 98P2001     0.0000 
     28 CL28       13.0960   -8.6210   22.1220 Cl        1 98P2001     0.0000 
     29 H          18.4189  -15.0277   22.7620 H         1 98P2001     0.0000 
     30 H          17.9156  -15.4382   25.2316 H         1 98P2001     0.0000 
     31 H          17.3336  -13.7652   25.2784 H         1 98P2001     0.0000 
     32 H          20.2936  -15.5941   23.8888 H         1 98P2001     0.0000 
     33 H          18.9237  -12.2266   25.9687 H         1 98P2001     0.0000 
     34 H          22.5651  -14.7922   24.0861 H         1 98P2001     0.0000 
     35 H          21.1944  -11.4220   26.1597 H         1 98P2001     0.0000 
     36 H          23.0183  -12.7073   25.2286 H         1 98P2001     0.0000 
     37 H          18.0988  -10.6619   21.8840 H         1 98P2001     0.0000 
     38 H          19.5900  -10.3159   20.2359 H         1 98P2001     0.0000 
     39 H          18.7990  -11.5019   19.1835 H         1 98P2001     0.0000 
     40 H          20.9462  -11.8869   21.1878 H         1 98P2001     0.0000 
     41 H          20.6425  -12.7577   19.6747 H         1 98P2001     0.0000 
     42 H          19.2207  -14.2162   20.6606 H         1 98P2001     0.0000 
     43 H          20.0669  -13.7433   22.1439 H         1 98P2001     0.0000 
     44 H          14.2905   -9.1916   20.0428 H         1 98P2001     0.0000 
     45 H          14.5812  -10.6382   19.0616 H         1 98P2001     0.0000 
     46 H          13.9924  -12.8580   20.0157 H         1 98P2001     0.0000 
     47 H          11.1557  -12.9631   23.0367 H         1 98P2001     0.0000 
     48 H          11.4309  -10.5989   23.3932 H         1 98P2001     0.0000 
     49 H          16.2187   -9.5710   21.2825 H         1 98P2001     0.0000 
     50 H          16.1286  -15.4626   22.2126 H         1 98P2001     0.0000 
     51 H          16.5104  -16.2628   23.5543 H         1 98P2001     0.0000 
     52 H          15.6237  -14.9240   23.6413 H         1 98P2001     0.0000 
     53 H          13.2510  -14.9878   21.4478 H         1 98P2001     0.0000 
     54 H          11.7221  -14.8796   21.9344 H         1 98P2001     0.0000 
     55 H          12.0851  -14.7016   20.3779 H         1 98P2001     0.0000 
@<TRIPOS>BOND
     1    2    1 1    
     2   50    1 1    
     3   51    1 1    
     4   52    1 1    
     5    3    2 1    
     6    5    2 1    
     7   29    2 1    
     8    4    3 2    
     9   12    3 am   
    10    6    5 1    
    11   30    5 1    
    12   31    5 1    
    13    7    6 ar   
    14    8    6 ar   
    15    9    7 ar   
    16   32    7 1    
    17   10    8 ar   
    18   33    8 1    
    19   11    9 ar   
    20   34    9 1    
    21   11   10 ar   
    22   35   10 1    
    23   36   11 1    
    24   13   12 1    
    25   18   12 1    
    26   14   13 1    
    27   16   13 1    
    28   37   13 1    
    29   15   14 2    
    30   26   14 am   
    31   17   16 1    
    32   38   16 1    
    33   39   16 1    
    34   18   17 1    
    35   40   17 1    
    36   41   17 1    
    37   42   18 1    
    38   43   18 1    
    39   20   19 1    
    40   26   19 1    
    41   44   19 1    
    42   45   19 1    
    43   21   20 ar   
    44   25   20 ar   
    45   27   21 ar   
    46   46   21 1    
    47   27   22 1    
    48   53   22 1    
    49   54   22 1    
    50   55   22 1    
    51   24   23 ar   
    52   27   23 ar   
    53   47   23 1    
    54   25   24 ar   
    55   48   24 1    
    56   28   25 1    
    57   49   26 1    
@<TRIPOS>SUBSTRUCTURE
     1 98P2001     1 GROUP   
@<TRIPOS>SET

