#    Name: 2xls_FAD_5_INTS_M
#    Modification time : Tue Mar 25 06:21:19 2014

@<TRIPOS>MOLECULE
2xls_FAD_5_INTS_M
  128     0     9     0     0
SMALL
NO_CHARGES


@<TRIPOS>ATOM
      1 N          43.1210   76.4315   -2.9745 N.am      2 SEC2        0.0000 
      2 N          42.8010   76.6360   -4.2000 N.am      8 SEL2        0.0000 
      3 N          43.4410   76.2270   -1.7490 N.am      5 SEP2        0.0000 
      4 N          41.5515   79.3695   -3.9580 N.am      2 SEC2        0.0000 
      5 N          41.1690   78.4030   -5.0740 N.am      8 SEL2        0.0000 
      6 N          41.9340   80.3360   -2.8420 N.am      5 SEP2        0.0000 
      7 CA         41.6130   74.0135   -4.5555 C.3       3 GLC5        0.0000 
      8 CA         40.2910   75.1210   -3.1510 C.3       9 GLL5        0.0000 
      9 CA         42.9350   72.9060   -5.9600 C.3       6 GLP5        0.0000 
     10 CA         37.9140   73.9905   -1.4780 C.3       3 GLC5        0.0000 
     11 CA         39.5310   75.1060   -1.8430 C.3       9 GLL5        0.0000 
     12 CA         36.2970   72.8750   -1.1130 C.3       6 GLP5        0.0000 
     13 CA         41.8500   76.5410   -0.7270 C.3       3 GLC5        0.0000 
     14 CA         40.1040   76.0380   -0.7930 C.3       9 GLL5        0.0000 
     15 CA         43.5960   77.0440   -0.6610 C.3       6 GLP5        0.0000 
     16 O          37.9230   76.3150    0.3830 O.2       1 ALC1        0.0000 
     17 O          39.0300   76.8020   -0.3150 O.2       7 ALL1        0.0000 
     18 O          36.8160   75.8280    1.0810 O.2       4 ALP1        0.0000 
     19 CA         42.3100   75.7020    0.3400 C.3       3 GLC5        0.0000 
     20 CA         40.5990   75.1360    0.3150 C.3       9 GLL5        0.0000 
     21 CA         44.0210   76.2680    0.3650 C.3       6 GLP5        0.0000 
     22 N          40.6700   77.2660    1.7665 N.am      2 SEC2        0.0000 
     23 N          40.4330   75.7380    1.5720 N.am      8 SEL2        0.0000 
     24 N          40.9070   78.7940    1.9610 N.am      5 SEP2        0.0000 
     25 O          39.4130   76.0105    2.0825 O.2       1 ALC1        0.0000 
     26 O          40.4330   75.7380    1.5720 O.2       7 ALL1        0.0000 
     27 O          38.3930   76.2830    2.5930 O.2       4 ALP1        0.0000 
     28 CA         38.0085   73.4005   -0.4895 C.3       3 GLC5        0.0000 
     29 CA         39.7200   73.9260    0.1340 C.3       9 GLL5        0.0000 
     30 CA         41.8335   72.0850    2.8160 C.3       3 GLC5        0.0000 
     31 CA         40.6890   70.8880    1.8630 C.3       9 GLL5        0.0000 
     32 CA         42.9780   73.2820    3.7690 C.3       6 GLP5        0.0000 
     33 CA         41.2945   71.4630    3.9060 C.3       3 GLC5        0.0000 
     34 CA         40.4310   69.8880    2.8090 C.3       9 GLL5        0.0000 
     35 CA         42.1580   73.0380    5.0030 C.3       6 GLP5        0.0000 
     36 CA         39.1550   68.2170    3.1205 C.3       3 GLC5        0.0000 
     37 CA         37.8790   66.5460    3.4320 C.3       6 GLP5        0.0000 
     38 N          38.8155   68.9455    4.4545 N.am      2 SEC2        0.0000 
     39 N          39.2910   69.9130    3.5410 N.am      8 SEL2        0.0000 
     40 N          38.3400   67.9780    5.3680 N.am      5 SEP2        0.0000 
     41 CA         37.0085   72.4245    3.4565 C.3       3 GLC5        0.0000 
     42 CA         38.4190   70.9540    3.3050 C.3       9 GLL5        0.0000 
     43 CA         35.5980   73.8950    3.6080 C.3       6 GLP5        0.0000 
     44 CA         39.1455   72.1290    4.6200 C.3       3 GLC5        0.0000 
     45 CA         39.8720   73.3040    5.9350 C.3       6 GLP5        0.0000 
     46 CA         38.5125   70.3135    5.2065 C.3       3 GLC5        0.0000 
     47 CA         38.6060   69.6730    7.1080 C.3       6 GLP5        0.0000 
     48 CA         37.5320   69.1185    3.2145 C.3       3 GLC5        0.0000 
     49 CA         36.6450   67.2830    3.1240 C.3       6 GLP5        0.0000 
     50 N          38.2015   72.9665    3.5550 N.am      2 SEC2        0.0000 
     51 N          38.6600   71.9290    2.3540 N.am      8 SEL2        0.0000 
     52 N          37.7430   74.0040    4.7560 N.am      5 SEP2        0.0000 
     53 CA         40.2875   72.7675    3.2215 C.3       3 GLC5        0.0000 
     54 CA         39.7950   71.9040    1.6390 C.3       9 GLL5        0.0000 
     55 CA         40.7800   73.6310    4.8040 C.3       6 GLP5        0.0000 
     56 N          41.8580   82.8575  -13.6190 N.am      2 SEC2        0.0000 
     57 N          42.7210   83.5150  -13.1110 N.am      8 SEL2        0.0000 
     58 N          40.9950   82.2000  -14.1270 N.am      5 SEP2        0.0000 
     59 N          45.9805   87.3185  -11.9135 N.am      2 SEC2        0.0000 
     60 N          45.5710   86.2630  -10.9860 N.am      8 SEL2        0.0000 
     61 N          46.3900   88.3740  -12.8410 N.am      5 SEP2        0.0000 
     62 CA         48.1780   85.2295   -6.7600 C.3       3 GLC5        0.0000 
     63 CA         47.9810   83.5010   -7.7060 C.3       9 GLL5        0.0000 
     64 CA         48.3750   86.9580   -5.8140 C.3       6 GLP5        0.0000 
     65 CA         49.6635   81.4800   -4.3480 C.3       3 GLC5        0.0000 
     66 CA         49.5470   82.7740   -5.8820 C.3       9 GLL5        0.0000 
     67 CA         49.7800   80.1860   -2.8140 C.3       6 GLP5        0.0000 
     68 CA         48.0235   83.6080   -4.8245 C.3       3 GLC5        0.0000 
     69 CA         46.5000   84.4420   -3.7670 C.3       6 GLP5        0.0000 
     70 CA         50.8745   84.4625   -5.3660 C.3       3 GLC5        0.0000 
     71 CA         52.2020   86.1510   -4.8500 C.3       6 GLP5        0.0000 
     72 CA         48.9610   84.8660   -5.8480 C.3       3 GLC5        0.0000 
     73 CA         49.1375   80.1415   -4.5065 C.3       3 GLC5        0.0000 
     74 CA         48.4950   80.0970   -6.1990 C.3       9 GLL5        0.0000 
     75 CA         48.3170   78.3265   -6.4590 C.3       3 GLC5        0.0000 
     76 CA         48.1390   76.5560   -6.7190 C.3       6 GLP5        0.0000 
     77 CA         45.9395   78.6230  -10.2530 C.3       3 GLC5        0.0000 
     78 CA         44.8340   80.4540  -10.0910 C.3       9 GLL5        0.0000 
     79 CA         47.0450   76.7920  -10.4150 C.3       6 GLP5        0.0000 
     80 CA         44.1995   79.8595   -6.8650 C.3       3 GLC5        0.0000 
     81 CA         43.9090   79.9180   -9.0500 C.3       9 GLL5        0.0000 
     82 CA         44.4900   79.8010   -4.6800 C.3       6 GLP5        0.0000 
     83 CA         45.4790   78.4205   -9.0165 C.3       3 GLC5        0.0000 
     84 CA         47.0490   76.9230   -8.9830 C.3       6 GLP5        0.0000 
     85 O          44.1035   78.2410  -10.3960 O.2       1 ALC1        0.0000 
     86 O          44.2140   78.5650   -8.9860 O.2       7 ALL1        0.0000 
     87 O          43.9930   77.9170  -11.8060 O.2       4 ALP1        0.0000 
     88 CA         41.2290   78.7955  -10.6845 C.3       3 GLC5        0.0000 
     89 CA         42.4690   80.0560   -9.5020 C.3       9 GLL5        0.0000 
     90 CA         39.9890   77.5350  -11.8670 C.3       6 GLP5        0.0000 
     91 N          41.6125   82.2785   -8.3960 N.am      2 SEC2        0.0000 
     92 N          42.1860   81.4320   -9.7250 N.am      8 SEL2        0.0000 
     93 N          41.0390   83.1250   -7.0670 N.am      5 SEP2        0.0000 
     94 N          41.5290   81.5145   -7.1035 N.am      2 SEC2        0.0000 
     95 N          42.0190   79.9040   -7.1400 N.am      8 SEL2        0.0000 
     96 N          37.3875   76.6400   -6.9365 N.am      2 SEC2        0.0000 
     97 N          38.6670   76.3860   -6.2070 N.am      8 SEL2        0.0000 
     98 N          36.1080   76.8940   -7.6660 N.am      5 SEP2        0.0000 
     99 N          38.3060   75.7675   -7.4830 N.am      2 SEC2        0.0000 
    100 N          37.9450   75.1490   -8.7590 N.am      5 SEP2        0.0000 
    101 N          40.1025   73.9170   -7.6990 N.am      2 SEC2        0.0000 
    102 N          40.1510   75.3820   -8.0310 N.am      8 SEL2        0.0000 
    103 N          40.0540   72.4520   -7.3670 N.am      5 SEP2        0.0000 
    104 CA         38.5005   76.5607   -3.0780 C.3       3 GLC5        0.0000 
    105 CA         37.0900   78.0080   -3.6590 C.3       6 GLP5        0.0000 
    106 CA         40.2295   73.2182   -2.9990 C.3       3 GLC5        0.0000 
    107 CA         40.5480   71.3230   -3.5010 C.3       6 GLP5        0.0000 
    108 CA         39.8582   77.5600   -1.5965 C.3       3 GLC5        0.0000 
    109 CA         39.8990   79.5480   -1.8750 C.3       6 GLP5        0.0000 
    110 CA         39.9475   70.5250   -0.0220 C.3       3 GLC5        0.0000 
    111 CA         39.6530   69.6540   -1.7950 C.3       6 GLP5        0.0000 
    112 CA         46.2535   83.8970   -7.1518 C.3       3 GLC5        0.0000 
    113 CA         46.9910   83.2590   -8.6590 C.3       9 GLL5        0.0000 
    114 CA         45.0210   84.4140   -6.1210 C.3       6 GLP5        0.0000 
    115 CA         46.6227   83.1317   -6.5430 C.3       3 GLC5        0.0000 
    116 CA         47.9710   81.2140   -7.0400 C.3       9 GLL5        0.0000 
    117 CA         46.0455   80.3089   -5.9916 C.3       3 GLC5        0.0000 
    118 CA         45.8685   82.9490   -7.2613 C.3       3 GLC5        0.0000 
    119 CA         46.9690   80.9780   -7.9870 C.3       9 GLL5        0.0000 
    120 CA         48.1370   81.2281   -9.8426 C.3       3 GLC5        0.0000 
    121 CA         49.4260   80.6550  -11.3230 C.3       6 GLP5        0.0000 
    122 CA         40.4920   81.2740   -9.6840 C.3       3 GLC5        0.0000 
    123 CA         38.9990   82.7360  -10.4020 C.3       6 GLP5        0.0000 
    124 CA         39.7237   79.6940   -7.7905 C.3       3 GLC5        0.0000 
    125 CA         41.5010   79.5680   -8.4300 C.3       9 GLL5        0.0000 
    126 CA         38.1040   80.5540   -7.0820 C.3       6 GLP5        0.0000 
    127 CA         40.1822   78.4965   -9.8415 C.3       3 GLC5        0.0000 
    128 CA         39.0210   78.1590  -11.1840 C.3       6 GLP5        0.0000 
@<TRIPOS>BOND
@<TRIPOS>SUBSTRUCTURE
     1 ALC1       16 GROUP        1 X    ALC  0     ROOT ALC X 1
     2 SEC2        1 GROUP        1 X    SEC  0     **** SEC X 2
     3 GLC5        7 GROUP        1 X    GLC  0     **** GLC X 6
     4 ALP1       18 GROUP        1 Y    ALP  0     ROOT ALP Y 8
     5 SEP2        3 GROUP        1 Y    SEP  0     **** SEP Y 9
     6 GLP5        9 GROUP        1 Y    GLP  0     **** GLP Y 13
     7 ALL1       17 GROUP        1 Z    ALL  0     ROOT ALL Z 15
     8 SEL2        2 GROUP        1 Z    SEL  0     **** SEL Z 16
     9 GLL5        8 GROUP        1 Z    GLL  0     **** GLL Z 20
@<TRIPOS>SET

