#    Name: 2xls_FAD_5_ligand
#    Modification time : Tue Mar 25 06:21:20 2014

@<TRIPOS>MOLECULE
2xls_FAD_5_ligand
   84    89     1     0     0
SMALL
NO_CHARGES


@<TRIPOS>ATOM
      1 PA         41.3890   76.9710   -4.6740 P.3       1 FAD500      0.0000 
      2 O1A        42.8010   76.6360   -4.2000 O.co2     1 FAD500      0.0000 
      3 O2A        41.1690   78.4030   -5.0740 O.co2     1 FAD500      0.0000 
      4 O5B        40.3610   76.4580   -3.5480 O.3       1 FAD500      0.0000 
      5 C5B        40.2910   75.1210   -3.1510 C.3       1 FAD500      0.0000 
      6 C4B        39.5310   75.1060   -1.8430 C.3       1 FAD500      0.0000 
      7 O4B        39.5840   73.8180   -1.2670 O.3       1 FAD500      0.0000 
      8 C3B        40.1040   76.0380   -0.7930 C.3       1 FAD500      0.0000 
      9 O3B        39.0300   76.8020   -0.3150 O.3       1 FAD500      0.0000 
     10 C2B        40.5990   75.1360    0.3150 C.3       1 FAD500      0.0000 
     11 O2B        40.4330   75.7380    1.5720 O.3       1 FAD500      0.0000 
     12 C1B        39.7200   73.9260    0.1340 C.3       1 FAD500      0.0000 
     13 N9A        40.3300   72.7230    0.6830 N.pl3     1 FAD500      0.0000 
     14 C8A        41.5070   72.2100    0.2790 C.2       1 FAD500      0.0000 
     15 N7A        41.7240   71.1020    1.0110 N.2       1 FAD500      0.0000 
     16 C5A        40.6890   70.8880    1.8630 C.ar      1 FAD500      0.0000 
     17 C6A        40.4310   69.8880    2.8090 C.ar      1 FAD500      0.0000 
     18 N6A        41.2700   68.8750    2.9730 N.pl3     1 FAD500      0.0000 
     19 N1A        39.2910   69.9130    3.5410 N.ar      1 FAD500      0.0000 
     20 C2A        38.4190   70.9540    3.3050 C.ar      1 FAD500      0.0000 
     21 N3A        38.6600   71.9290    2.3540 N.ar      1 FAD500      0.0000 
     22 C4A        39.7950   71.9040    1.6390 C.ar      1 FAD500      0.0000 
     23 N1         44.0320   82.6580  -11.4910 N.2       1 FAD500      0.0000 
     24 C2         43.5900   83.6940  -12.2570 C.2       1 FAD500      0.0000 
     25 O2         42.7210   83.5150  -13.1110 O.2       1 FAD500      0.0000 
     26 N3         44.1170   84.9340  -12.0580 N.am      1 FAD500      0.0000 
     27 C4         45.0800   85.1460  -11.1170 C.2       1 FAD500      0.0000 
     28 O4         45.5710   86.2630  -10.9860 O.2       1 FAD500      0.0000 
     29 C4X        45.5380   84.1040  -10.3500 C.2       1 FAD500      0.0000 
     30 N5         46.5300   84.3060   -9.4220 N.2       1 FAD500      0.0000 
     31 C5X        46.9910   83.2590   -8.6590 C.ar      1 FAD500      0.0000 
     32 C6         47.9810   83.5010   -7.7060 C.ar      1 FAD500      0.0000 
     33 C7         48.4780   82.4850   -6.8900 C.ar      1 FAD500      0.0000 
     34 C7M        49.5470   82.7740   -5.8820 C.3       1 FAD500      0.0000 
     35 C8         47.9710   81.2140   -7.0400 C.ar      1 FAD500      0.0000 
     36 C8M        48.4950   80.0970   -6.1990 C.3       1 FAD500      0.0000 
     37 C9         46.9690   80.9780   -7.9870 C.ar      1 FAD500      0.0000 
     38 C9A        46.4630   81.9900   -8.8160 C.ar      1 FAD500      0.0000 
     39 N10        45.4620   81.7850   -9.7710 N.pl3     1 FAD500      0.0000 
     40 C10        45.0100   82.8510  -10.5350 C.2       1 FAD500      0.0000 
     41 C1'        44.8340   80.4540  -10.0910 C.3       1 FAD500      0.0000 
     42 C2'        43.9090   79.9180   -9.0500 C.3       1 FAD500      0.0000 
     43 O2'        44.2140   78.5650   -8.9860 O.3       1 FAD500      0.0000 
     44 C3'        42.4690   80.0560   -9.5020 C.3       1 FAD500      0.0000 
     45 O3'        42.1860   81.4320   -9.7250 O.3       1 FAD500      0.0000 
     46 C4'        41.5010   79.5680   -8.4300 C.3       1 FAD500      0.0000 
     47 O4'        42.0190   79.9040   -7.1400 O.3       1 FAD500      0.0000 
     48 C5'        41.1860   78.1000   -8.5680 C.3       1 FAD500      0.0000 
     49 O5'        40.2610   77.8970   -7.5440 O.3       1 FAD500      0.0000 
     50 P          39.9610   76.4330   -6.9680 P.3       1 FAD500      0.0000 
     51 O1P        38.6670   76.3860   -6.2070 O.co2     1 FAD500      0.0000 
     52 O2P        40.1510   75.3820   -8.0310 O.co2     1 FAD500      0.0000 
     53 O3P        41.0700   76.0500   -5.9100 O.3       1 FAD500      0.0000 
     54 H          41.2713   74.6839   -2.9737 H         1 FAD500      0.0000 
     55 H          39.7484   74.5003   -3.8607 H         1 FAD500      0.0000 
     56 H          38.5044   75.3948   -2.0216 H         1 FAD500      0.0000 
     57 H          40.8846   76.5836   -1.1966 H         1 FAD500      0.0000 
     58 H          41.5993   74.8583    0.0843 H         1 FAD500      0.0000 
     59 H          38.7746   74.1315    0.5917 H         1 FAD500      0.0000 
     60 H          42.0807   72.5661   -0.4003 H         1 FAD500      0.0000 
     61 H          41.0224   68.2079    3.6756 H         1 FAD500      0.0000 
     62 H          42.0746   68.8696    2.3793 H         1 FAD500      0.0000 
     63 H          37.5350   71.0110    3.8692 H         1 FAD500      0.0000 
     64 H          43.7780   85.7360  -12.6357 H         1 FAD500      0.0000 
     65 H          48.3578   84.4638   -7.6017 H         1 FAD500      0.0000 
     66 H          46.5827   80.0144   -8.0815 H         1 FAD500      0.0000 
     67 H          45.6450   79.7126  -10.2778 H         1 FAD500      0.0000 
     68 H          44.2868   80.5410  -11.0582 H         1 FAD500      0.0000 
     69 H          44.0574   80.4181   -8.1412 H         1 FAD500      0.0000 
     70 H          42.3172   79.4792  -10.3885 H         1 FAD500      0.0000 
     71 H          40.5535   80.1280   -8.5946 H         1 FAD500      0.0000 
     72 H          42.0944   77.5452   -8.4292 H         1 FAD500      0.0000 
     73 H          40.7738   77.9334   -9.5451 H         1 FAD500      0.0000 
     74 H          50.3798   83.1213   -6.3131 H         1 FAD500      0.0000 
     75 H          49.2538   83.4599   -5.2160 H         1 FAD500      0.0000 
     76 H          49.8028   81.9559   -5.3670 H         1 FAD500      0.0000 
     77 H          49.4755   79.9569   -6.3367 H         1 FAD500      0.0000 
     78 H          48.3578   80.2704   -5.2238 H         1 FAD500      0.0000 
     79 H          48.0427   79.2302   -6.4090 H         1 FAD500      0.0000 
     80 H          38.4399   76.1496    0.1605 H         1 FAD500      0.0000 
     81 H          39.5659   75.3797    1.9180 H         1 FAD500      0.0000 
     82 H          44.1925   78.2498   -9.9348 H         1 FAD500      0.0000 
     83 H          42.8099   81.7093  -10.4556 H         1 FAD500      0.0000 
     84 H          41.6169   79.2331   -6.5170 H         1 FAD500      0.0000 
@<TRIPOS>BOND
     1    2    1 ar   
     2    3    1 ar   
     3    4    1 1    
     4   53    1 1    
     5    5    4 1    
     6    6    5 1    
     7   54    5 1    
     8   55    5 1    
     9    7    6 1    
    10    8    6 1    
    11   56    6 1    
    12   12    7 1    
    13    9    8 1    
    14   10    8 1    
    15   57    8 1    
    16   80    9 1    
    17   11   10 1    
    18   12   10 1    
    19   58   10 1    
    20   81   11 1    
    21   13   12 1    
    22   59   12 1    
    23   14   13 1    
    24   22   13 1    
    25   15   14 2    
    26   60   14 1    
    27   16   15 1    
    28   17   16 ar   
    29   22   16 ar   
    30   18   17 1    
    31   19   17 ar   
    32   61   18 1    
    33   62   18 1    
    34   20   19 ar   
    35   21   20 ar   
    36   63   20 1    
    37   22   21 ar   
    38   24   23 1    
    39   40   23 2    
    40   25   24 2    
    41   26   24 am   
    42   27   26 am   
    43   64   26 1    
    44   28   27 2    
    45   29   27 1    
    46   30   29 2    
    47   40   29 1    
    48   31   30 1    
    49   32   31 ar   
    50   38   31 ar   
    51   33   32 ar   
    52   65   32 1    
    53   34   33 1    
    54   35   33 ar   
    55   74   34 1    
    56   75   34 1    
    57   76   34 1    
    58   36   35 1    
    59   37   35 ar   
    60   77   36 1    
    61   78   36 1    
    62   79   36 1    
    63   38   37 ar   
    64   66   37 1    
    65   39   38 1    
    66   40   39 1    
    67   41   39 1    
    68   42   41 1    
    69   67   41 1    
    70   68   41 1    
    71   43   42 1    
    72   44   42 1    
    73   69   42 1    
    74   82   43 1    
    75   45   44 1    
    76   46   44 1    
    77   70   44 1    
    78   83   45 1    
    79   47   46 1    
    80   48   46 1    
    81   71   46 1    
    82   84   47 1    
    83   49   48 1    
    84   72   48 1    
    85   73   48 1    
    86   50   49 1    
    87   51   50 ar   
    88   52   50 ar   
    89   53   50 1    
@<TRIPOS>SUBSTRUCTURE
     1 FAD500      1 GROUP   
@<TRIPOS>SET

