#    Name: 1B5J_1_CAVITY_N1_ALL.mol2
#    Modification time : Mon Mar 10 14:18:32 2014

@<TRIPOS>MOLECULE
1B5J_1_CAVITY_N1_ALL.mol2
   36     0     4     0     0
SMALL
NO_CHARGES


@<TRIPOS>ATOM
      1 CZ         -2.8796   22.5536   14.5542 C.ar      3 PHE5        0.0000 
      2 O          -3.1312   21.6704   15.7402 O.2       2 ALA2        0.0000 
      3 O          -4.2772   21.0266   15.0176 O.2       2 ALA2        0.0000 
      4 CZ         -1.0506   21.2868   15.8959 C.ar      3 PHE5        0.0000 
      5 O          -1.3022   20.4035   17.0819 O.2       2 ALA2        0.0000 
      6 CZ         -1.9451   21.5263   13.9874 C.ar      3 PHE5        0.0000 
      7 O          -2.1967   20.6430   15.1733 O.2       2 ALA2        0.0000 
      8 O          -2.4483   19.7598   16.3593 O.2       2 ALA2        0.0000 
      9 OG         -3.0911   20.8826   13.2648 O.2       1 SER1        0.0000 
     10 N          -3.3427   19.9993   14.4507 N.2       2 ALA2        0.0000 
     11 OG         -3.5943   19.1160   15.6367 O.2       1 SER1        0.0000 
     12 CZ          1.0299   20.9032   16.0517 C.ar      3 PHE5        0.0000 
     13 CZ         -0.1161   20.2595   15.3291 C.ar      3 PHE5        0.0000 
     14 N          -0.3677   19.3762   16.5150 N.2       2 ALA2        0.0000 
     15 OG         -1.0106   20.4990   13.4205 O.2       1 SER1        0.0000 
     16 OG         -1.2622   19.6157   14.6065 O.2       1 SER1        0.0000 
     17 OG         -1.5138   18.7324   15.7924 O.2       1 SER1        0.0000 
     18 OG         -2.4082   18.9720   13.8839 O.2       1 SER1        0.0000 
     19 OG         -2.6598   18.0887   15.0698 O.2       1 SER1        0.0000 
     20 N          -3.5543   18.3282   13.1613 N.2       2 ALA2        0.0000 
     21 N          -3.8059   17.4449   14.3472 N.2       2 ALA2        0.0000 
     22 N           1.9644   19.8759   15.4848 N.2       2 ALA2        0.0000 
     23 O           1.0700   20.1154   13.5762 O.2       2 ALA2        0.0000 
     24 CA          0.8184   19.2322   14.7622 C.3       4 GLY6        0.0000 
     25 N           0.5667   18.3489   15.9482 N.2       2 ALA2        0.0000 
     26 CA         -0.0761   19.4717   12.8536 C.3       4 GLY6        0.0000 
     27 CA         -0.3277   18.5884   14.0396 C.3       4 GLY6        0.0000 
     28 CA         -0.5793   17.7051   15.2256 C.3       4 GLY6        0.0000 
     29 OG         -0.8309   16.8218   16.4115 O.2       1 SER1        0.0000 
     30 OG         -1.4737   17.9446   13.3170 O.2       1 SER1        0.0000 
     31 CA         -1.7253   17.0614   14.5030 C.3       4 GLY6        0.0000 
     32 OG         -2.6198   17.3009   12.5944 O.2       1 SER1        0.0000 
     33 CZ         -2.8714   16.4176   13.7804 C.ar      3 PHE5        0.0000 
     34 CA          2.8989   18.8486   14.9179 C.3       4 GLY6        0.0000 
     35 N           2.6473   17.9653   16.1039 N.2       2 ALA2        0.0000 
     36 CA          1.5012   17.3216   15.3813 C.3       4 GLY6        0.0000 
@<TRIPOS>BOND
@<TRIPOS>SUBSTRUCTURE
     1 SER1        9 GROUP   
     2 ALA2        2 GROUP   
     3 PHE5        1 GROUP   
     4 GLY6       24 GROUP   
@<TRIPOS>SET

