#    Name: 1b5j_LYS_GLN_LYS_1_INTS_M
#    Modification time : Mon Mar 24 19:24:01 2014

@<TRIPOS>MOLECULE
1b5j_LYS_GLN_LYS_1_INTS_M
   99     0    12     0     0
SMALL
NO_CHARGES


@<TRIPOS>ATOM
      1 OD1         7.6625   15.7935   14.1635 O.co2     3 ASC3        0.0000 
      2 OD1         6.9140   16.4940   15.1200 O.co2    11 ASL3        0.0000 
      3 OD1         8.4110   15.0930   13.2070 O.co2     7 ASP3        0.0000 
      4 OD1         8.4440   15.8620   14.9370 O.co2     3 ASC3        0.0000 
      5 OD1         9.9740   15.2300   14.7540 O.co2     7 ASP3        0.0000 
      6 O           6.2525   15.3265   15.3465 O.2       1 ALC1        0.0000 
      7 O           6.9140   16.4940   15.1200 O.2       9 ALL1        0.0000 
      8 O           5.5910   14.1590   15.5730 O.2       5 ALP1        0.0000 
      9 O           7.6625   15.7935   14.1635 O.2       1 ALC1        0.0000 
     10 O           8.4110   15.0930   13.2070 O.2       5 ALP1        0.0000 
     11 O           8.4440   15.8620   14.9370 O.2       1 ALC1        0.0000 
     12 O           9.9740   15.2300   14.7540 O.2       5 ALP1        0.0000 
     13 CA          8.5095   18.1095   14.4365 C.3       4 GLC5        0.0000 
     14 CA          6.4250   17.7690   14.5330 C.3      12 GLL5        0.0000 
     15 CA         10.5940   18.4500   14.3400 C.3       8 GLP5        0.0000 
     16 CA          6.9770   18.2380   16.2700 C.3       4 GLC5        0.0000 
     17 CA          7.5290   18.7070   18.0070 C.3       8 GLP5        0.0000 
     18 N           3.8840   16.2455   16.3445 N.am      2 SEC2        0.0000 
     19 N           4.4250   17.4650   15.8020 N.am     10 SEL2        0.0000 
     20 N           3.3430   15.0260   16.8870 N.am      6 SEP2        0.0000 
     21 CA          5.5105   19.7380   12.5890 C.3       4 GLC5        0.0000 
     22 CA          6.2210   17.6860   13.0080 C.3      12 GLL5        0.0000 
     23 CA          4.8000   21.7900   12.1700 C.3       8 GLP5        0.0000 
     24 CA          3.9520   15.3770   13.6140 C.3       4 GLC5        0.0000 
     25 CA          5.2760   16.5630   12.5730 C.3      12 GLL5        0.0000 
     26 CA          2.6280   14.1910   14.6550 C.3       8 GLP5        0.0000 
     27 CA          8.5310   15.7500   10.6265 C.3       4 GLC5        0.0000 
     28 CA          6.4310   15.8590   10.4010 C.3      12 GLL5        0.0000 
     29 CA         10.6310   15.6410   10.8520 C.3       8 GLP5        0.0000 
     30 OD1         7.5495   14.7765   12.0305 O.co2     3 ASC3        0.0000 
     31 OD1         6.6880   14.4600   10.8540 O.co2    11 ASL3        0.0000 
     32 O           7.5495   14.7765   12.0305 O.2       1 ALC1        0.0000 
     33 O           6.6880   14.4600   10.8540 O.2       9 ALL1        0.0000 
     34 O           5.9380   20.2745   14.5095 O.2       1 ALC1        0.0000 
     35 O           5.0240   19.5860   15.2760 O.2       9 ALL1        0.0000 
     36 O           6.8520   20.9630   13.7430 O.2       5 ALP1        0.0000 
     37 CA          5.1545   19.1425   17.2895 C.3       4 GLC5        0.0000 
     38 CA          3.8710   20.2000   15.9420 C.3      12 GLL5        0.0000 
     39 CA          6.4380   18.0850   18.6370 C.3       8 GLP5        0.0000 
     40 N           2.7965   20.2890   12.6300 N.am      2 SEC2        0.0000 
     41 N           2.4670   20.2870   13.9640 N.am     10 SEL2        0.0000 
     42 N           3.1260   20.2910   11.2960 N.am      6 SEP2        0.0000 
     43 CA          2.4475   22.5510   15.4395 C.3       4 GLC5        0.0000 
     44 CA          4.1160   21.7310   16.0430 C.3      12 GLL5        0.0000 
     45 CA          0.7790   23.3710   14.8360 C.3       8 GLP5        0.0000 
     46 CA          6.4315   20.3585   17.4665 C.3       4 GLC5        0.0000 
     47 CA          5.3340   22.0100   16.9260 C.3      12 GLL5        0.0000 
     48 O           7.2340   23.2725   18.1930 O.2       1 ALC1        0.0000 
     49 O           6.3900   22.0720   19.0740 O.2       9 ALL1        0.0000 
     50 O           8.0780   24.4730   17.3120 O.2       5 ALP1        0.0000 
     51 O           6.7405   21.6430   20.2370 O.2       1 ALC1        0.0000 
     52 O           7.0910   21.2140   21.4000 O.2       5 ALP1        0.0000 
     53 O           1.7260   19.2145   17.2730 O.2       1 ALC1        0.0000 
     54 O           1.5280   19.6590   15.9010 O.2       9 ALL1        0.0000 
     55 O           1.9240   18.7700   18.6450 O.2       5 ALP1        0.0000 
     56 CA          0.4950   21.4305   15.0935 C.3       4 GLC5        0.0000 
     57 CA          0.2110   19.4900   15.3510 C.3      12 GLL5        0.0000 
     58 CA         -0.0755   18.1060   17.7765 C.3       4 GLC5        0.0000 
     59 CA         -0.1970   18.0150   15.5780 C.3      12 GLL5        0.0000 
     60 CA          0.0460   18.1970   19.9750 C.3       8 GLP5        0.0000 
     61 CA         -2.6645   17.0270   16.4730 C.3       4 GLC5        0.0000 
     62 CA         -1.6010   17.7200   15.1130 C.3      12 GLL5        0.0000 
     63 CA         -3.7280   16.3340   17.8330 C.3       8 GLP5        0.0000 
     64 CA          0.0980   17.4835   12.7350 C.3       4 GLC5        0.0000 
     65 CA         -1.6070   17.3160   13.6490 C.3      12 GLL5        0.0000 
     66 CA          1.8030   17.6510   11.8210 C.3       8 GLP5        0.0000 
     67 CA         -1.6335   15.2505   12.8370 C.3       4 GLC5        0.0000 
     68 CA         -1.6600   13.1850   12.0250 C.3       8 GLP5        0.0000 
     69 CA         -3.1520   18.4220   11.6350 C.3       4 GLC5        0.0000 
     70 CA         -3.0610   16.9250   13.2890 C.3      12 GLL5        0.0000 
     71 CA         -3.2430   19.9190    9.9810 C.3       8 GLP5        0.0000 
     72 CA         -2.9400   15.0190   13.0255 C.3       4 GLC5        0.0000 
     73 CA         -2.8190   13.1130   12.7620 C.3       8 GLP5        0.0000 
     74 CA         -3.8295   16.4705   15.0575 C.3       4 GLC5        0.0000 
     75 CA         -4.5980   16.0160   16.8260 C.3       8 GLP5        0.0000 
     76 O          -2.6040   18.3615   11.2770 O.2       1 ALC1        0.0000 
     77 O          -3.1060   16.9290   11.7960 O.2       9 ALL1        0.0000 
     78 O          -2.1020   19.7940   10.7580 O.2       5 ALP1        0.0000 
     79 O          -4.6955   16.6180   11.7525 O.2       1 ALC1        0.0000 
     80 O          -6.2850   16.3070   11.7090 O.2       5 ALP1        0.0000 
     81 O          -2.2050   15.6635   11.6150 O.2       1 ALC1        0.0000 
     82 O          -1.3040   14.3980   11.4340 O.2       5 ALP1        0.0000 
     83 N          -1.5930   21.7000   17.8355 N.am      2 SEC2        0.0000 
     84 N          -0.6160   20.7860   17.2430 N.am     10 SEL2        0.0000 
     85 N          -2.5700   22.6140   18.4280 N.am      6 SEP2        0.0000 
     86 N          -1.6780   20.6000   18.2060 N.am      2 SEC2        0.0000 
     87 N          -2.7400   20.4140   19.1690 N.am      6 SEP2        0.0000 
     88 CA          3.5168   17.0815   11.8165 C.3       4 GLC5        0.0000 
     89 CA          5.9150   17.3525    9.2315 C.3       4 GLC5        0.0000 
     90 CA          5.1850   16.4610   11.0510 C.3      12 GLL5        0.0000 
     91 CA          6.0220   18.5450    7.7370 C.3       8 GLP5        0.0000 
     92 CA          4.3967   21.3777   14.0813 C.3       4 GLC5        0.0000 
     93 CA          6.1540   23.0282   15.7257 C.3       4 GLC5        0.0000 
     94 CA          7.5830   24.1860   14.9670 C.3       8 GLP5        0.0000 
     95 CA          4.1120   23.6748   16.8992 C.3       4 GLC5        0.0000 
     96 CA          3.4990   25.4790   17.3140 C.3       8 GLP5        0.0000 
     97 CA          0.9050   18.2017   13.6427 C.3       4 GLC5        0.0000 
     98 CA         -0.1890   16.1284   14.5946 C.3       4 GLC5        0.0000 
     99 CA          0.8750   14.6650   14.6920 C.3       8 GLP5        0.0000 
@<TRIPOS>BOND
@<TRIPOS>SUBSTRUCTURE
     1 ALC1        6 GROUP        1 X    ALC  0     ROOT ALC X 1
     2 SEC2       18 GROUP        1 X    SEC  0     **** SEC X 2
     3 ASC3        1 GROUP        1 X    ASC  0     **** ASC X 3
     4 GLC5       13 GROUP        1 X    GLC  0     **** GLC X 6
     5 ALP1        8 GROUP        1 Y    ALP  0     ROOT ALP Y 8
     6 SEP2       20 GROUP        1 Y    SEP  0     **** SEP Y 9
     7 ASP3        3 GROUP        1 Y    ASP  0     **** ASP Y 10
     8 GLP5       15 GROUP        1 Y    GLP  0     **** GLP Y 13
     9 ALL1        7 GROUP        1 Z    ALL  0     ROOT ALL Z 15
    10 SEL2       19 GROUP        1 Z    SEL  0     **** SEL Z 16
    11 ASL3        2 GROUP        1 Z    ASL  0     **** ASL Z 17
    12 GLL5       14 GROUP        1 Z    GLL  0     **** GLL Z 20
@<TRIPOS>SET

