#    Name: 1b5j_LYS_GLN_LYS_1_ligand
#    Modification time : Mon Mar 24 19:24:01 2014

@<TRIPOS>MOLECULE
1b5j_LYS_GLN_LYS_1_ligand
   65    64     3     0     0
SMALL
NO_CHARGES


@<TRIPOS>ATOM
      1 N           6.9140   16.4940   15.1200 N.4       1 LYS1        0.0000
      2 CA          6.4250   17.7690   14.5330 C.3       1 LYS1        0.0000
      3 C           5.1810   18.2630   15.2420 C.2       1 LYS1        0.0000
      4 O           4.4250   17.4650   15.8020 O.2       1 LYS1        0.0000
      5 CB          6.2210   17.6860   13.0080 C.3       1 LYS1        0.0000
      6 CG          5.2760   16.5630   12.5730 C.3       1 LYS1        0.0000
      7 CD          5.1850   16.4610   11.0510 C.3       1 LYS1        0.0000
      8 CE          6.4310   15.8590   10.4010 C.3       1 LYS1        0.0000
      9 NZ          6.6880   14.4600   10.8540 N.4       1 LYS1        0.0000
     10 HA          7.2152   18.5435   14.6997 H         1 LYS1        0.0000
     11 HB2         7.1997   17.5380   12.5291 H         1 LYS1        0.0000
     12 HB3         5.8239   18.6479   12.6527 H         1 LYS1        0.0000
     13 HG2         4.2814   16.7548   12.9805 H         1 LYS1        0.0000
     14 HG3         5.6381   15.6149   12.9758 H         1 LYS1        0.0000
     15 HD2         5.0149   17.4658   10.6346 H         1 LYS1        0.0000
     16 HD3         4.3112   15.8465   10.7852 H         1 LYS1        0.0000
     17 HE2         7.2933   16.4959   10.6433 H         1 LYS1        0.0000
     18 HE3         6.3010   15.8819    9.3098 H         1 LYS1        0.0000
     19 HNCA        7.1474   16.5957   16.0871 H         1 LYS1        0.0000
     20 H           6.2274   15.7696   15.0589 H         1 LYS1        0.0000
     21 H           7.7337   16.1609   14.6541 H         1 LYS1        0.0000
     22 HZ1         5.8400   13.9824   11.0839 H         1 LYS1        0.0000
     23 HZ2         7.1468   13.9196   10.1487 H         1 LYS1        0.0000
     24 HZ3         7.2689   14.4338   11.6675 H         1 LYS1        0.0000
     25 N           5.0240   19.5860   15.2760 N.am      2 GLN2        0.0000
     26 CA          3.8710   20.2000   15.9420 C.3       2 GLN2        0.0000
     27 C           2.5810   20.0540   15.1670 C.2       2 GLN2        0.0000
     28 O           2.4670   20.2870   13.9640 O.2       2 GLN2        0.0000
     29 CB          4.1160   21.7310   16.0430 C.3       2 GLN2        0.0000
     30 CG          5.3340   22.0100   16.9260 C.3       2 GLN2        0.0000
     31 CD          5.3010   21.7160   18.3800 C.2       2 GLN2        0.0000
     32 OE1         4.3940   21.1620   18.9820 O.2       2 GLN2        0.0000
     33 NE2         6.3900   22.0720   19.0740 N.am      2 GLN2        0.0000
     34 HNCA        5.6974   20.2426   14.8406 H         2 GLN2        0.0000
     35 HA          3.7375   19.8381   16.9331 H         2 GLN2        0.0000
     36 HB2         3.2388   22.1960   16.4740 H         2 GLN2        0.0000
     37 HB3         4.2890   22.1220   15.0487 H         2 GLN2        0.0000
     38 HG2         5.6149   23.1029   16.7761 H         2 GLN2        0.0000
     39 HG3         6.2193   21.4676   16.4592 H         2 GLN2        0.0000
     40 HE21        6.3788   21.8578   20.0507 H         2 GLN2        0.0000
     41 HE22        7.1166   22.5201   18.5532 H         2 GLN2        0.0000
     42 N           1.5280   19.6590   15.9010 N.am      3 LYS3        0.0000
     43 CA          0.2110   19.4900   15.3510 C.3       3 LYS3        0.0000
     44 C          -0.8060   20.3950   16.0690 C.2       3 LYS3        0.0000
     45 O          -1.8000   20.6880   15.3750 O.2       3 LYS3        0.0000
     46 CB         -0.1970   18.0150   15.5780 C.3       3 LYS3        0.0000
     47 CG         -1.6010   17.7200   15.1130 C.3       3 LYS3        0.0000
     48 CD         -1.6070   17.3160   13.6490 C.3       3 LYS3        0.0000
     49 CE         -3.0610   16.9250   13.2890 C.3       3 LYS3        0.0000
     50 NZ         -3.1060   16.9290   11.7960 N.4       3 LYS3        0.0000
     51 OXT        -0.6160   20.7860   17.2430 O.3       3 LYS3        0.0000
     52 HNCA        1.6310   19.4548   16.9259 H         3 LYS3        0.0000
     53 HA          0.1796   19.6841   14.3086 H         3 LYS3        0.0000
     54 HB2        -0.1052   17.7933   16.6486 H         3 LYS3        0.0000
     55 HB3         0.5148   17.3746   15.0423 H         3 LYS3        0.0000
     56 HG2        -2.2236   18.6067   15.2428 H         3 LYS3        0.0000
     57 HG3        -2.0218   16.9095   15.7103 H         3 LYS3        0.0000
     58 HD2        -0.9705   16.4663   13.4980 H         3 LYS3        0.0000
     59 HD3        -1.3073   18.1436   13.0365 H         3 LYS3        0.0000
     60 HE2        -3.7223   17.6592   13.6919 H         3 LYS3        0.0000
     61 HE3        -3.2578   15.9492   13.6733 H         3 LYS3        0.0000
     62 HZ1        -2.4598   16.2747   11.4032 H         3 LYS3        0.0000
     63 HZ2        -4.0132   16.6880   11.4511 H         3 LYS3        0.0000
     64 HZ3        -2.8786   17.8273   11.4200 H         3 LYS3        0.0000
     65 H           0.3531   21.0299   17.2808 H         3 LYS3        0.0000
@<TRIPOS>BOND
     1    2    1 1
     2   19    1 1
     3   20    1 1
     4   21    1 1
     5    3    2 1
     6    5    2 1
     7   10    2 1
     8    4    3 2
     9    6    5 1
    10   11    5 1
    11   12    5 1
    12    7    6 1
    13   13    6 1
    14   14    6 1
    15    8    7 1
    16   15    7 1
    17   16    7 1
    18    9    8 1
    19   17    8 1
    20   18    8 1
    21   22    9 1
    22   23    9 1
    23   24    9 1
    24   26   25 1
    25   34   25 1
    26   27   26 1
    27   29   26 1
    28   35   26 1
    29   28   27 2
    30   30   29 1
    31   36   29 1
    32   37   29 1
    33   31   30 1
    34   38   30 1
    35   39   30 1
    36   32   31 2
    37   33   31 am
    38   40   33 1
    39   41   33 1
    40   43   42 1
    41   52   42 1
    42   44   43 1
    43   46   43 1
    44   53   43 1
    45   45   44 2
    46   51   44 1
    47   47   46 1
    48   54   46 1
    49   55   46 1
    50   48   47 1
    51   56   47 1
    52   57   47 1
    53   49   48 1
    54   58   48 1
    55   59   48 1
    56   50   49 1
    57   60   49 1
    58   61   49 1
    59   62   50 1
    60   63   50 1
    61   64   50 1
    62   65   51 1
    63   25    3 am
    64   42   27 am
@<TRIPOS>SUBSTRUCTURE
     1 LYS1        1 RESIDUE
     2 GLN2       25 RESIDUE
     3 LYS3       42 RESIDUE
@<TRIPOS>SET

