#    Name: 1s3y_TQT_1_INTS_M
#    Modification time : Tue Mar 25 01:57:27 2014

@<TRIPOS>MOLECULE
1s3y_TQT_1_INTS_M
   55     0     6     0     0
SMALL
NO_CHARGES


@<TRIPOS>ATOM
      1 CA          8.3360    3.5800   12.8695 C.3       2 GLC5        0.0000 
      2 CA         10.2400    2.9830   12.4790 C.3       6 GLL5        0.0000 
      3 CA          6.4320    4.1770   13.2600 C.3       4 GLP5        0.0000 
      4 CA          9.7255    2.5740   14.3715 C.3       2 GLC5        0.0000 
      5 CA          9.2110    2.1650   16.2640 C.3       4 GLP5        0.0000 
      6 CA         11.3370    1.4720   13.0360 C.3       2 GLC5        0.0000 
      7 CA         12.4340   -0.0390   13.5930 C.3       4 GLP5        0.0000 
      8 CA          9.6910    4.7630   11.7140 C.3       2 GLC5        0.0000 
      9 CA          9.1420    6.5430   10.9490 C.3       4 GLP5        0.0000 
     10 CA          8.5495    4.5195   13.5480 C.3       2 GLC5        0.0000 
     11 CA         10.6670    4.8620   13.8360 C.3       6 GLL5        0.0000 
     12 CA          9.9390    3.5135   15.0500 C.3       2 GLC5        0.0000 
     13 CA         12.0055    7.8055   10.9595 C.3       2 GLC5        0.0000 
     14 CA         13.5710    6.7630   11.8280 C.3       6 GLL5        0.0000 
     15 CA         10.4400    8.8480   10.0910 C.3       4 GLP5        0.0000 
     16 CA         15.0370    7.1715   14.0170 C.3       2 GLC5        0.0000 
     17 CA         14.5560    8.0040   12.0860 C.3       6 GLL5        0.0000 
     18 CA         15.5180    6.3390   15.9480 C.3       4 GLP5        0.0000 
     19 CA         12.6140    8.9295    9.8645 C.3       2 GLC5        0.0000 
     20 CA         14.7880    9.0110    9.6380 C.3       6 GLL5        0.0000 
     21 CA         16.8495   10.4735    7.2205 C.3       2 GLC5        0.0000 
     22 CA         16.0290    9.2150    8.7020 C.3       6 GLL5        0.0000 
     23 CA         17.6700   11.7320    5.7390 C.3       4 GLP5        0.0000 
     24 OD1        11.6065    2.4140   10.7510 O.co2     1 ASC3        0.0000 
     25 OD1        11.2750    3.2140   11.7560 O.co2     5 ASL3        0.0000 
     26 OD1        11.9380    1.6140    9.7460 O.co2     3 ASP3        0.0000 
     27 OD1        10.6730    1.8540   10.8050 O.co2     1 ASC3        0.0000 
     28 OD1        10.0710    0.4940    9.8540 O.co2     3 ASP3        0.0000 
     29 CA         11.0620    6.9980   12.4920 C.3       2 GLC5        0.0000 
     30 CA         12.8850    6.3380   13.1840 C.3       6 GLL5        0.0000 
     31 CA          9.2390    7.6580   11.8000 C.3       4 GLP5        0.0000 
     32 CA         14.2015    6.3385   14.5660 C.3       2 GLC5        0.0000 
     33 CA         11.4405    4.8255    9.8430 C.3       2 GLC5        0.0000 
     34 CA         13.2910    4.2790   10.9280 C.3       6 GLL5        0.0000 
     35 CA          9.5900    5.3720    8.7580 C.3       4 GLP5        0.0000 
     36 CA         14.4042    4.5640    9.4520 C.3       2 GLC5        0.0000 
     37 CA         15.0110    4.2330    7.8560 C.3       4 GLP5        0.0000 
     38 CA         10.4322    5.5826   11.8038 C.3       2 GLC5        0.0000 
     39 CA         12.1470    4.2350   11.9190 C.3       6 GLL5        0.0000 
     40 CA         14.5693    7.7670    7.6525 C.3       2 GLC5        0.0000 
     41 CA         13.7300    6.4210    6.1350 C.3       4 GLP5        0.0000 
     42 CA         16.9855    9.9370   11.9418 C.3       2 GLC5        0.0000 
     43 CA         16.7620    8.2100   10.7920 C.3       6 GLL5        0.0000 
     44 CA         16.7340   11.9240   12.6400 C.3       4 GLP5        0.0000 
     45 CA         19.9132    9.7390   10.0195 C.3       2 GLC5        0.0000 
     46 CA         19.2100    7.6560   11.2230 C.3       6 GLL5        0.0000 
     47 CA         20.4700   11.5730    9.4580 C.3       4 GLP5        0.0000 
     48 CA         19.5845    6.0947   11.3055 C.3       2 GLC5        0.0000 
     49 CA         19.5030    8.1540    9.9390 C.3       6 GLL5        0.0000 
     50 CA         20.1870    4.2760   11.9120 C.3       4 GLP5        0.0000 
     51 CA         19.1487   10.1235    9.3905 C.3       2 GLC5        0.0000 
     52 CA         18.5000    8.6580    9.1050 C.3       6 GLL5        0.0000 
     53 CA         16.9015   10.9633    9.7668 C.3       2 GLC5        0.0000 
     54 CA         17.1550    8.6900    9.5410 C.3       6 GLL5        0.0000 
     55 CA         17.2110   12.9740   10.4120 C.3       4 GLP5        0.0000 
@<TRIPOS>BOND
@<TRIPOS>SUBSTRUCTURE
     1 ASC3       24 GROUP        1 X    ASC  0     ROOT ASC X 3
     2 GLC5        1 GROUP        1 X    GLC  0     **** GLC X 6
     3 ASP3       26 GROUP        1 Y    ASP  0     ROOT ASP Y 10
     4 GLP5        3 GROUP        1 Y    GLP  0     **** GLP Y 13
     5 ASL3       25 GROUP        1 Z    ASL  0     ROOT ASL Z 17
     6 GLL5        2 GROUP        1 Z    GLL  0     **** GLL Z 20
@<TRIPOS>SET

