#    Name: 1s3y_TQT_1_ligand
#    Modification time : Tue Mar 25 01:57:27 2014

@<TRIPOS>MOLECULE
1s3y_TQT_1_ligand
   50    53     1     0     0
SMALL
NO_CHARGES


@<TRIPOS>ATOM
      1 C2'        10.2400    2.9830   12.4790 C.3       1 TQT208      0.0000 
      2 C4'        10.6670    4.8620   13.8360 C.3       1 TQT208      0.0000 
      3 C4B        11.9290    5.1570   12.9600 C.3       1 TQT208      0.0000 
      4 C6'        13.5710    6.7630   11.8280 C.3       1 TQT208      0.0000 
      5 C7'        14.3040    5.5110   11.1680 C.3       1 TQT208      0.0000 
      6 C8B        12.1470    4.2350   11.9190 C.3       1 TQT208      0.0000 
      7 C9'        14.5560    8.0040   12.0860 C.3       1 TQT208      0.0000 
      8 C'0        14.7880    9.0110    9.6380 C.3       1 TQT208      0.0000 
      9 C'1        16.7620    8.2100   10.7920 C.3       1 TQT208      0.0000 
     10 C'2        17.7120    7.6900   11.6950 C.3       1 TQT208      0.0000 
     11 C'3        19.2100    7.6560   11.2230 C.3       1 TQT208      0.0000 
     12 C'4        19.5030    8.1540    9.9390 C.3       1 TQT208      0.0000 
     13 C'5        18.5000    8.6580    9.1050 C.3       1 TQT208      0.0000 
     14 C'6        17.1550    8.6900    9.5410 C.3       1 TQT208      0.0000 
     15 C'7        16.0290    9.2150    8.7020 C.3       1 TQT208      0.0000 
     16 N1'        11.2750    3.2140   11.7560 N.4       1 TQT208      0.0000 
     17 N2'         9.4120    1.8290   12.1440 N.3       1 TQT208      0.0000 
     18 N3'         9.9240    3.8130   13.5300 N.3       1 TQT208      0.0000 
     19 N4'        10.3610    5.7370   14.9270 N.3       1 TQT208      0.0000 
     20 C5'        12.8850    6.3380   13.1840 C.3       1 TQT208      0.0000 
     21 C8'        13.2910    4.2790   10.9280 C.3       1 TQT208      0.0000 
     22 N'0        15.3020    8.4110   10.8670 N.4       1 TQT208      0.0000 
     23 H          11.0144    2.1422   13.3609 H         1 TQT208      0.0000 
     24 H          11.5099    4.0643   14.6981 H         1 TQT208      0.0000 
     25 H          11.1091    5.9638   12.0860 H         1 TQT208      0.0000 
     26 H          12.7945    7.0929   11.1559 H         1 TQT208      0.0000 
     27 H          15.0883    5.1779   11.8267 H         1 TQT208      0.0000 
     28 H          14.7075    5.8052   10.2138 H         1 TQT208      0.0000 
     29 H          12.9544    3.4063   12.7838 H         1 TQT208      0.0000 
     30 H          15.2383    7.6995   12.8859 H         1 TQT208      0.0000 
     31 H          13.9344    8.8224   12.4629 H         1 TQT208      0.0000 
     32 H          14.1018    8.3604    9.1304 H         1 TQT208      0.0000 
     33 H          14.3521    9.9758    9.8143 H         1 TQT208      0.0000 
     34 H          16.5357    6.9247   10.1795 H         1 TQT208      0.0000 
     35 H          17.4664    6.6328   11.9992 H         1 TQT208      0.0000 
     36 H          17.7149    8.2536   12.6711 H         1 TQT208      0.0000 
     37 H          19.5394    6.5822   11.3417 H         1 TQT208      0.0000 
     38 H          19.7915    8.1973   12.0257 H         1 TQT208      0.0000 
     39 H          20.0951    7.3388    9.3578 H         1 TQT208      0.0000 
     40 H          20.3397    8.9555   10.0407 H         1 TQT208      0.0000 
     41 H          18.5408    8.1028    8.0899 H         1 TQT208      0.0000 
     42 H          18.7969    9.7228    8.7609 H         1 TQT208      0.0000 
     43 H          17.3256   10.0086   10.0971 H         1 TQT208      0.0000 
     44 H          16.1402   10.2467    8.5165 H         1 TQT208      0.0000 
     45 H          15.8929    8.6293    7.8362 H         1 TQT208      0.0000 
     46 H          13.6618    6.0554   13.8817 H         1 TQT208      0.0000 
     47 H          12.3363    7.1882   13.5661 H         1 TQT208      0.0000 
     48 H          13.8874    3.3643   10.9866 H         1 TQT208      0.0000 
     49 H          12.9129    4.3760    9.9065 H         1 TQT208      0.0000 
     50 H          15.5475    9.7261   11.4107 H         1 TQT208      0.0000 
@<TRIPOS>BOND
     1   16    1 1    
     2   17    1 1    
     3   18    1 1    
     4   23    1 1    
     5    3    2 1    
     6   18    2 1    
     7   19    2 1    
     8   24    2 1    
     9    6    3 1    
    10   20    3 1    
    11   25    3 1    
    12    5    4 1    
    13    7    4 1    
    14   20    4 1    
    15   26    4 1    
    16   21    5 1    
    17   27    5 1    
    18   28    5 1    
    19   16    6 1    
    20   21    6 1    
    21   29    6 1    
    22   22    7 1    
    23   30    7 1    
    24   31    7 1    
    25   15    8 1    
    26   22    8 1    
    27   32    8 1    
    28   33    8 1    
    29   10    9 1    
    30   14    9 1    
    31   22    9 1    
    32   34    9 1    
    33   11   10 1    
    34   35   10 1    
    35   36   10 1    
    36   12   11 1    
    37   37   11 1    
    38   38   11 1    
    39   13   12 1    
    40   39   12 1    
    41   40   12 1    
    42   14   13 1    
    43   41   13 1    
    44   42   13 1    
    45   15   14 1    
    46   43   14 1    
    47   44   15 1    
    48   45   15 1    
    49   46   20 1    
    50   47   20 1    
    51   48   21 1    
    52   49   21 1    
    53   50   22 1    
@<TRIPOS>SUBSTRUCTURE
     1 TQT208      1 GROUP   
@<TRIPOS>SET

