#    Name: 3mj5_GRM_2_INTS_M
#    Modification time : Mon Mar 24 23:16:11 2014

@<TRIPOS>MOLECULE
3mj5_GRM_2_INTS_M
   82     0     9     0     0
SMALL
NO_CHARGES


@<TRIPOS>ATOM
      1 CA        -12.9975   35.1640  -44.6965 C.3       3 GLC5        0.0000 
      2 CA        -12.6710   36.3100  -43.1830 C.3       9 GLL5        0.0000 
      3 CA        -13.3240   34.0180  -46.2100 C.3       6 GLP5        0.0000 
      4 CA        -11.0440   34.6440  -44.4565 C.3       3 GLC5        0.0000 
      5 CA        -11.1390   36.0160  -42.9970 C.3       9 GLL5        0.0000 
      6 CA        -10.9490   33.2720  -45.9160 C.3       6 GLP5        0.0000 
      7 CA        -10.8475   34.1840  -42.2400 C.3       3 GLC5        0.0000 
      8 CA        -10.5560   32.3520  -41.4830 C.3       6 GLP5        0.0000 
      9 OD1       -12.8165   36.0235  -40.6180 O.co2     2 ASC3        0.0000 
     10 OD1       -13.7070   35.6760  -42.1340 O.co2     8 ASL3        0.0000 
     11 OD1       -11.9260   36.3710  -39.1020 O.co2     5 ASP3        0.0000 
     12 CA        -15.4505   37.8605  -41.0105 C.3       3 GLC5        0.0000 
     13 CA        -14.1170   36.4430  -40.8840 C.3       9 GLL5        0.0000 
     14 CA        -16.7840   39.2780  -41.1370 C.3       6 GLP5        0.0000 
     15 CA        -16.5945   37.4775  -40.2590 C.3       3 GLC5        0.0000 
     16 CA        -15.5830   36.0850  -40.4060 C.3       9 GLL5        0.0000 
     17 CA        -17.6060   38.8700  -40.1120 C.3       6 GLP5        0.0000 
     18 CA        -13.0570   32.5340  -41.0205 C.3       3 GLC5        0.0000 
     19 CA        -14.6710   33.7290  -40.6760 C.3       9 GLL5        0.0000 
     20 CA        -11.4430   31.3390  -41.3650 C.3       6 GLP5        0.0000 
     21 CA        -12.0625   33.2755  -41.5950 C.3       3 GLC5        0.0000 
     22 CA        -13.5690   34.1990  -41.7070 C.3       9 GLL5        0.0000 
     23 O         -18.3335   34.4655  -41.3275 O.2       1 ALC1        0.0000 
     24 O         -18.2900   33.9720  -39.8490 O.2       7 ALL1        0.0000 
     25 O         -18.3770   34.9590  -42.8060 O.2       4 ALP1        0.0000 
     26 CA        -21.0910   35.2715  -37.5950 C.3       3 GLC5        0.0000 
     27 CA        -20.6380   33.9820  -39.1260 C.3       9 GLL5        0.0000 
     28 CA        -21.5440   36.5610  -36.0640 C.3       6 GLP5        0.0000 
     29 CA        -22.6915   37.7725  -40.3045 C.3       3 GLC5        0.0000 
     30 CA        -22.2550   35.6020  -39.9450 C.3       9 GLL5        0.0000 
     31 CA        -23.1280   39.9430  -40.6640 C.3       6 GLP5        0.0000 
     32 CA        -21.3630   33.7215  -41.1490 C.3       3 GLC5        0.0000 
     33 CA        -21.6740   32.9960  -39.0440 C.3       9 GLL5        0.0000 
     34 CA        -21.0520   34.4470  -43.2540 C.3       6 GLP5        0.0000 
     35 CA        -23.5340   37.2715  -39.3060 C.3       3 GLC5        0.0000 
     36 CA        -24.1110   36.5310  -40.6880 C.3       9 GLL5        0.0000 
     37 CA        -22.9570   38.0120  -37.9240 C.3       6 GLP5        0.0000 
     38 CA        -25.1290   36.0795  -39.0480 C.3       3 GLC5        0.0000 
     39 CA        -26.1470   35.6280  -37.4080 C.3       6 GLP5        0.0000 
     40 CA        -23.6195   38.2370  -40.6760 C.3       3 GLC5        0.0000 
     41 CA        -23.3105   35.6535  -42.1345 C.3       3 GLC5        0.0000 
     42 CA        -22.5100   34.7760  -43.5810 C.3       6 GLP5        0.0000 
     43 CA        -17.0005   36.6080  -47.1985 C.3       3 GLC5        0.0000 
     44 CA        -15.5330   38.0300  -46.3690 C.3       9 GLL5        0.0000 
     45 CA        -18.4680   35.1860  -48.0280 C.3       6 GLP5        0.0000 
     46 CA        -17.1960   38.7070  -45.2990 C.3       3 GLC5        0.0000 
     47 CA        -15.7300   39.4280  -46.4590 C.3       9 GLL5        0.0000 
     48 CA        -18.6620   37.9860  -44.1390 C.3       6 GLP5        0.0000 
     49 CA        -11.5430   37.3430  -44.6965 C.3       3 GLC5        0.0000 
     50 CA        -11.1810   38.5230  -46.3030 C.3       6 GLP5        0.0000 
     51 CA        -10.3930   36.4785  -44.0270 C.3       3 GLC5        0.0000 
     52 CA         -8.8810   36.7940  -44.9640 C.3       6 GLP5        0.0000 
     53 CA        -12.3352   38.3010  -45.1400 C.3       3 GLC5        0.0000 
     54 CA        -13.0310   37.8310  -43.4710 C.3       9 GLL5        0.0000 
     55 CA        -13.8350   35.6705  -38.9800 C.3       3 GLC5        0.0000 
     56 CA        -12.8200   35.0770  -37.3150 C.3       6 GLP5        0.0000 
     57 CA        -16.3717   32.3105  -41.0925 C.3       3 GLC5        0.0000 
     58 CA        -17.4210   30.4600  -41.5120 C.3       6 GLP5        0.0000 
     59 CA        -13.2310   33.8145  -39.4002 C.3       3 GLC5        0.0000 
     60 CA        -12.3420   33.6650  -37.6090 C.3       6 GLP5        0.0000 
     61 CA        -14.1685   33.0555  -42.7883 C.3       3 GLC5        0.0000 
     62 CA        -14.2170   32.1470  -44.3850 C.3       6 GLP5        0.0000 
     63 CA        -21.2856   34.7841  -41.4525 C.3       3 GLC5        0.0000 
     64 CA        -22.6977   36.5341  -38.8709 C.3       3 GLC5        0.0000 
     65 CA        -20.9290   35.2990  -39.5880 C.3       9 GLL5        0.0000 
     66 CA        -24.6510   34.8097  -38.5235 C.3       3 GLC5        0.0000 
     67 CA        -23.2850   34.6620  -39.8690 C.3       9 GLL5        0.0000 
     68 CA        -22.8325   34.3838  -41.6100 C.3       3 GLC5        0.0000 
     69 CA        -12.4255   41.3137  -45.0740 C.3       3 GLC5        0.0000 
     70 CA        -14.1770   39.7680  -44.6150 C.3       9 GLL5        0.0000 
     71 CA        -10.9940   42.4090  -45.9640 C.3       6 GLP5        0.0000 
     72 CA        -11.2982   40.3713  -44.1450 C.3       3 GLC5        0.0000 
     73 CA        -12.6510   40.1880  -42.7700 C.3       9 GLL5        0.0000 
     74 CA        -10.0750   41.2430  -45.5940 C.3       6 GLP5        0.0000 
     75 CA        -11.8513   39.0113  -44.4995 C.3       3 GLC5        0.0000 
     76 CA        -13.3212   37.5733  -46.5387 C.3       3 GLC5        0.0000 
     77 CA        -14.6560   37.4870  -45.3880 C.3       9 GLL5        0.0000 
     78 CA        -11.5480   37.3880  -47.1990 C.3       6 GLP5        0.0000 
     79 CA        -16.6587   37.1803  -45.2218 C.3       3 GLC5        0.0000 
     80 CA        -18.2230   36.6020  -44.5650 C.3       6 GLP5        0.0000 
     81 CA        -12.8192   39.3929  -45.5935 C.3       3 GLC5        0.0000 
     82 CA        -15.0580   40.3070  -45.5840 C.3       9 GLL5        0.0000 
@<TRIPOS>BOND
@<TRIPOS>SUBSTRUCTURE
     1 ALC1       23 GROUP        1 X    ALC  0     ROOT ALC X 1
     2 ASC3        9 GROUP        1 X    ASC  0     **** ASC X 3
     3 GLC5        1 GROUP        1 X    GLC  0     **** GLC X 6
     4 ALP1       25 GROUP        1 Y    ALP  0     ROOT ALP Y 8
     5 ASP3       11 GROUP        1 Y    ASP  0     **** ASP Y 10
     6 GLP5        3 GROUP        1 Y    GLP  0     **** GLP Y 13
     7 ALL1       24 GROUP        1 Z    ALL  0     ROOT ALL Z 15
     8 ASL3       10 GROUP        1 Z    ASL  0     **** ASL Z 17
     9 GLL5        2 GROUP        1 Z    GLL  0     **** GLL Z 20
@<TRIPOS>SET

