#    Name: 3mj5_GRM_2_ligand
#    Modification time : Mon Mar 24 23:16:11 2014

@<TRIPOS>MOLECULE
3mj5_GRM_2_ligand
   60    64     1     0     0
SMALL
NO_CHARGES


@<TRIPOS>ATOM
      1 C1        -12.6710   36.3100  -43.1830 C.3       1 GRM801      0.0000 
      2 C2        -11.1390   36.0160  -42.9970 C.3       1 GRM801      0.0000 
      3 C3        -13.0310   37.8310  -43.4710 C.ar      1 GRM801      0.0000 
      4 N4        -13.7070   35.6760  -42.1340 N.4       1 GRM801      0.0000 
      5 C5        -14.1170   36.4430  -40.8840 C.3       1 GRM801      0.0000 
      6 C6        -15.5830   36.0850  -40.4060 C.3       1 GRM801      0.0000 
      7 C7        -15.9740   34.5930  -40.6700 C.3       1 GRM801      0.0000 
      8 C8        -14.6710   33.7290  -40.6760 C.3       1 GRM801      0.0000 
      9 C9        -13.5690   34.1990  -41.7070 C.3       1 GRM801      0.0000 
     10 C10       -16.9770   34.1560  -39.5810 C.2       1 GRM801      0.0000 
     11 O11       -16.5900   34.0160  -38.4310 O.2       1 GRM801      0.0000 
     12 N12       -18.2900   33.9720  -39.8490 N.am      1 GRM801      0.0000 
     13 C13       -19.2020   33.6050  -38.7470 C.3       1 GRM801      0.0000 
     14 C14       -20.6380   33.9820  -39.1260 C.ar      1 GRM801      0.0000 
     15 C15       -20.9290   35.2990  -39.5880 C.ar      1 GRM801      0.0000 
     16 C16       -22.2550   35.6020  -39.9450 C.ar      1 GRM801      0.0000 
     17 C17       -23.2850   34.6620  -39.8690 C.ar      1 GRM801      0.0000 
     18 C18       -23.0250   33.3210  -39.4090 C.ar      1 GRM801      0.0000 
     19 C19       -21.6740   32.9960  -39.0440 C.ar      1 GRM801      0.0000 
     20 O20       -22.6910   36.8180  -40.4110 O.3       1 GRM801      0.0000 
     21 C21       -24.1110   36.5310  -40.6880 C.3       1 GRM801      0.0000 
     22 O22       -24.5160   35.1890  -40.2820 O.3       1 GRM801      0.0000 
     23 C23       -13.9480   38.3270  -44.4830 C.ar      1 GRM801      0.0000 
     24 C24       -14.1770   39.7680  -44.6150 C.ar      1 GRM801      0.0000 
     25 C25       -13.5370   40.6690  -43.7530 C.ar      1 GRM801      0.0000 
     26 C26       -12.6510   40.1880  -42.7700 C.ar      1 GRM801      0.0000 
     27 C27       -12.3920   38.8110  -42.6220 C.ar      1 GRM801      0.0000 
     28 C28       -14.6560   37.4870  -45.3880 C.ar      1 GRM801      0.0000 
     29 C29       -15.5330   38.0300  -46.3690 C.ar      1 GRM801      0.0000 
     30 C30       -15.7300   39.4280  -46.4590 C.ar      1 GRM801      0.0000 
     31 C31       -15.0580   40.3070  -45.5840 C.ar      1 GRM801      0.0000 
     32 H         -12.9602   35.7878  -44.1864 H         1 GRM801      0.0000 
     33 H         -14.7377   35.6442  -42.7511 H         1 GRM801      0.0000 
     34 H         -14.0834   37.5165  -41.0753 H         1 GRM801      0.0000 
     35 H         -13.4354   36.2140  -40.0635 H         1 GRM801      0.0000 
     36 H         -16.2825   36.7338  -40.9325 H         1 GRM801      0.0000 
     37 H         -15.6533   36.2867  -39.3374 H         1 GRM801      0.0000 
     38 H         -16.4360   34.5396  -41.6290 H         1 GRM801      0.0000 
     39 H         -14.9356   32.6904  -40.9079 H         1 GRM801      0.0000 
     40 H         -14.2298   33.7462  -39.6722 H         1 GRM801      0.0000 
     41 H         -12.5884   34.0432  -41.2474 H         1 GRM801      0.0000 
     42 H         -13.6374   33.5569  -42.5903 H         1 GRM801      0.0000 
     43 H         -18.6970   34.0712  -40.7734 H         1 GRM801      0.0000 
     44 H         -18.9358   34.1351  -37.8345 H         1 GRM801      0.0000 
     45 H         -19.1653   32.5338  -38.5577 H         1 GRM801      0.0000 
     46 H         -20.1972   35.9885  -39.6538 H         1 GRM801      0.0000 
     47 H         -23.7540   32.6483  -39.3474 H         1 GRM801      0.0000 
     48 H         -21.4525   32.0550  -38.7241 H         1 GRM801      0.0000 
     49 H         -24.3058   36.6699  -41.7743 H         1 GRM801      0.0000 
     50 H         -24.7431   37.2867  -40.1717 H         1 GRM801      0.0000 
     51 H         -13.7110   41.6729  -43.8354 H         1 GRM801      0.0000 
     52 H         -12.1797   40.8600  -42.1426 H         1 GRM801      0.0000 
     53 H         -11.7397   38.4817  -41.9023 H         1 GRM801      0.0000 
     54 H         -14.5318   36.4694  -45.3322 H         1 GRM801      0.0000 
     55 H         -16.0217   37.4026  -47.0107 H         1 GRM801      0.0000 
     56 H         -16.3682   39.8045  -47.1682 H         1 GRM801      0.0000 
     57 H         -15.2016   41.3079  -45.6457 H         1 GRM801      0.0000 
     58 H         -10.6120   36.2631  -43.8102 H         1 GRM801      0.0000 
     59 H         -10.7528   36.5290  -42.2304 H         1 GRM801      0.0000 
     60 H         -10.9657   35.0474  -42.8186 H         1 GRM801      0.0000 
@<TRIPOS>BOND
     1    2    1 1    
     2    3    1 1    
     3    4    1 1    
     4   32    1 1    
     5   58    2 1    
     6   59    2 1    
     7   60    2 1    
     8   23    3 ar   
     9   27    3 ar   
    10    5    4 1    
    11    9    4 1    
    12   33    4 1    
    13    6    5 1    
    14   34    5 1    
    15   35    5 1    
    16    7    6 1    
    17   36    6 1    
    18   37    6 1    
    19    8    7 1    
    20   10    7 1    
    21   38    7 1    
    22    9    8 1    
    23   39    8 1    
    24   40    8 1    
    25   41    9 1    
    26   42    9 1    
    27   11   10 2    
    28   12   10 am   
    29   13   12 1    
    30   43   12 1    
    31   14   13 1    
    32   44   13 1    
    33   45   13 1    
    34   15   14 ar   
    35   19   14 ar   
    36   16   15 ar   
    37   46   15 1    
    38   17   16 ar   
    39   20   16 1    
    40   18   17 ar   
    41   22   17 1    
    42   19   18 ar   
    43   47   18 1    
    44   48   19 1    
    45   21   20 1    
    46   22   21 1    
    47   49   21 1    
    48   50   21 1    
    49   24   23 ar   
    50   28   23 ar   
    51   25   24 ar   
    52   31   24 ar   
    53   26   25 ar   
    54   51   25 1    
    55   27   26 ar   
    56   52   26 1    
    57   53   27 1    
    58   29   28 ar   
    59   54   28 1    
    60   30   29 ar   
    61   55   29 1    
    62   31   30 ar   
    63   56   30 1    
    64   57   31 1    
@<TRIPOS>SUBSTRUCTURE
     1 GRM801      1 GROUP   
@<TRIPOS>SET

