#    Name: 3N6U_2_CAVITY_N1_ALL.mol2
#    Modification time : Tue Mar 11 16:04:32 2014

@<TRIPOS>MOLECULE
3N6U_2_CAVITY_N1_ALL.mol2
   62     0     5     0     0
SMALL
NO_CHARGES


@<TRIPOS>ATOM
      1 O          -9.9907   -7.7662   15.6515 O.2       2 ALA2        0.0000 
      2 O         -11.1439   -6.8965   16.0561 O.2       2 ALA2        0.0000 
      3 OG        -12.2970   -6.0267   16.4606 O.2       1 SER1        0.0000 
      4 CZ        -10.6473   -8.0208   14.3271 C.ar      3 PHE5        0.0000 
      5 CZ        -11.8005   -7.1510   14.7316 C.ar      3 PHE5        0.0000 
      6 CZ        -12.4571   -7.4055   13.4072 C.ar      3 PHE5        0.0000 
      7 OG        -13.6103   -6.5358   13.8118 O.2       1 SER1        0.0000 
      8 OG        -13.1137   -7.6601   12.0828 O.2       1 SER1        0.0000 
      9 OG        -14.2669   -6.7903   12.4873 O.2       1 SER1        0.0000 
     10 OG        -15.4200   -5.9205   12.8919 O.2       1 SER1        0.0000 
     11 CA        -14.9235   -7.0448   11.1629 C.3       4 GLY6        0.0000 
     12 CA        -16.0766   -6.1750   11.5675 C.3       4 GLY6        0.0000 
     13 O         -11.8432   -8.0917   16.6325 O.2       2 ALA2        0.0000 
     14 CZ        -11.3466   -9.2161   14.9035 C.ar      3 PHE5        0.0000 
     15 CA        -12.4998   -8.3463   15.3081 C.3       4 GLY6        0.0000 
     16 OG        -13.1564   -8.6008   13.9836 O.2       1 SER1        0.0000 
     17 N         -14.9662   -7.9856   13.0638 N.2       2 ALA2        0.0000 
     18 DU         -9.7025   -3.5652   13.0024 H         5 CUB7        0.0000 
     19 DU        -10.8557   -2.6954   13.4069 H         5 CUB7        0.0000 
     20 DU        -12.0089   -1.8256   13.8115 H         5 CUB7        0.0000 
     21 N         -10.3591   -3.8197   11.6780 N.2       2 ALA2        0.0000 
     22 N         -11.5123   -2.9499   12.0825 N.2       2 ALA2        0.0000 
     23 DU        -12.6655   -2.0801   12.4871 H         5 CUB7        0.0000 
     24 DU        -13.8186   -1.2104   12.8916 H         5 CUB7        0.0000 
     25 N         -12.1689   -3.2045   10.7581 N.2       2 ALA2        0.0000 
     26 DU        -13.3221   -2.3347   11.1626 H         5 CUB7        0.0000 
     27 N         -13.9787   -2.5892    9.8382 N.2       2 ALA2        0.0000 
     28 N         -15.7884   -1.9740    8.9183 N.2       2 ALA2        0.0000 
     29 CA         -8.5920   -5.3757   14.4987 C.3       4 GLY6        0.0000 
     30 CA         -9.7452   -4.5059   14.9032 C.3       4 GLY6        0.0000 
     31 DU        -10.8984   -3.6361   15.3078 H         5 CUB7        0.0000 
     32 OG        -12.0516   -2.7663   15.7123 O.2       1 SER1        0.0000 
     33 DU         -9.2486   -5.6302   13.1743 H         5 CUB7        0.0000 
     34 DU        -10.4018   -4.7604   13.5788 H         5 CUB7        0.0000 
     35 OG        -11.5550   -3.8907   13.9833 O.2       1 SER1        0.0000 
     36 OG        -12.7082   -3.0209   14.3879 O.2       1 SER1        0.0000 
     37 OG        -13.8614   -2.1511   14.7924 O.2       1 SER1        0.0000 
     38 N          -9.9052   -5.8848   11.8498 N.2       2 ALA2        0.0000 
     39 N         -11.0584   -5.0150   12.2544 N.2       2 ALA2        0.0000 
     40 N         -12.2116   -4.1452   12.6589 N.2       2 ALA2        0.0000 
     41 OG        -13.3648   -3.2754   13.0635 O.2       1 SER1        0.0000 
     42 OG        -14.5180   -2.4056   13.4680 O.2       1 SER1        0.0000 
     43 N         -12.8682   -4.3997   11.3345 N.2       2 ALA2        0.0000 
     44 CA        -14.0214   -3.5299   11.7391 C.3       4 GLY6        0.0000 
     45 CA        -15.1746   -2.6602   12.1436 C.3       4 GLY6        0.0000 
     46 N         -14.6780   -3.7845   10.4146 N.2       2 ALA2        0.0000 
     47 CA        -16.4878   -3.1692    9.4948 C.3       4 GLY6        0.0000 
     48 CA        -10.9411   -4.5769   17.2086 C.3       4 GLY6        0.0000 
     49 O          -9.2914   -6.5710   15.0751 O.2       2 ALA2        0.0000 
     50 CA        -10.4445   -5.7012   15.4796 C.3       4 GLY6        0.0000 
     51 OG        -11.5977   -4.8314   15.8842 O.2       1 SER1        0.0000 
     52 N          -8.7948   -7.6953   13.3461 N.2       2 ALA2        0.0000 
     53 CZ         -9.9480   -6.8255   13.7507 C.ar      3 PHE5        0.0000 
     54 DU        -11.1011   -5.9557   14.1552 H         5 CUB7        0.0000 
     55 OG        -12.2543   -5.0859   14.5598 O.2       1 SER1        0.0000 
     56 CZ        -10.6046   -7.0800   12.4263 C.ar      3 PHE5        0.0000 
     57 N         -11.7577   -6.2103   12.8308 N.2       2 ALA2        0.0000 
     58 OG        -12.9109   -5.3405   13.2353 O.2       1 SER1        0.0000 
     59 N         -13.5675   -5.5950   11.9109 N.2       2 ALA2        0.0000 
     60 CA        -14.7207   -4.7252   12.3155 C.3       4 GLY6        0.0000 
     61 CA        -14.2241   -5.8495   10.5865 C.3       4 GLY6        0.0000 
     62 CA        -15.3773   -4.9798   10.9911 C.3       4 GLY6        0.0000 
@<TRIPOS>BOND
@<TRIPOS>SUBSTRUCTURE
     1 SER1        3 GROUP   
     2 ALA2        1 GROUP   
     3 PHE5        4 GROUP   
     4 GLY6       11 GROUP   
     5 CUB7       18 GROUP   
@<TRIPOS>SET

