#    Name: 3n6u_TSU_2_INTS_M
#    Modification time : Tue Mar 25 00:43:54 2014

@<TRIPOS>MOLECULE
3n6u_TSU_2_INTS_M
   23     0     6     0     0
SMALL
NO_CHARGES


@<TRIPOS>ATOM
      1 N         -13.6460   -5.1895   17.6115 N.am      1 SEC2        0.0000 
      2 N         -12.9120   -6.0590   16.9310 N.am      5 SEL2        0.0000 
      3 N         -14.3800   -4.3200   18.2920 N.am      3 SEP2        0.0000 
      4 N         -13.8515   -5.4250   16.2470 N.am      1 SEC2        0.0000 
      5 N         -14.7910   -4.7910   15.5630 N.am      3 SEP2        0.0000 
      6 N          -9.8485   -7.6945   17.6895 N.am      1 SEC2        0.0000 
      7 N         -11.1610   -7.7130   17.5200 N.am      5 SEL2        0.0000 
      8 N          -8.5360   -7.6760   17.8590 N.am      3 SEP2        0.0000 
      9 CA         -9.1190   -8.1935   15.7700 C.3       2 GLC5        0.0000 
     10 CA         -9.7160   -6.5070   14.8710 C.3       6 GLL5        0.0000 
     11 CA         -8.5220   -9.8800   16.6690 C.3       4 GLP5        0.0000 
     12 CA        -10.1575   -2.3470   16.9405 C.3       2 GLC5        0.0000 
     13 CA         -9.8970   -3.7120   15.1780 C.3       6 GLL5        0.0000 
     14 CA        -10.4180   -0.9820   18.7030 C.3       4 GLP5        0.0000 
     15 CA        -11.2005   -3.9000   17.5880 C.3       2 GLC5        0.0000 
     16 CA        -10.8300   -4.5470   15.8270 C.3       6 GLL5        0.0000 
     17 CA        -11.5710   -3.2530   19.3490 C.3       4 GLP5        0.0000 
     18 CA         -9.1590   -5.7268   16.6812 C.3       2 GLC5        0.0000 
     19 CA        -10.7480   -5.9580   15.6840 C.3       6 GLL5        0.0000 
     20 CA         -8.0860   -5.2210   18.0850 C.3       4 GLP5        0.0000 
     21 CA         -8.4538   -5.0947   16.1925 C.3       2 GLC5        0.0000 
     22 CA         -8.7790   -5.6700   14.2240 C.3       6 GLL5        0.0000 
     23 CA         -9.2248   -4.6753   16.7938 C.3       2 GLC5        0.0000 
@<TRIPOS>BOND
@<TRIPOS>SUBSTRUCTURE
     1 SEC2        1 GROUP        1 X    SEC  0     ROOT SEC X 2
     2 GLC5        9 GROUP        1 X    GLC  0     **** GLC X 6
     3 SEP2        3 GROUP        1 Y    SEP  0     ROOT SEP Y 9
     4 GLP5       11 GROUP        1 Y    GLP  0     **** GLP Y 13
     5 SEL2        2 GROUP        1 Z    SEL  0     ROOT SEL Z 16
     6 GLL5       10 GROUP        1 Z    GLL  0     **** GLL Z 20
@<TRIPOS>SET

