#    Name: 3n6u_TSU_2_ligand
#    Modification time : Tue Mar 25 00:43:54 2014

@<TRIPOS>MOLECULE
3n6u_TSU_2_ligand
   18    18     1     0     0
SMALL
NO_CHARGES


@<TRIPOS>ATOM
      1 S         -11.8180   -6.9240   16.4430 S.o2      1 TSU1004     0.0000 
      2 O1        -12.3070   -8.0040   15.5360 O.co2     1 TSU1004     0.0000 
      3 O2        -12.9120   -6.0590   16.9310 O.co2     1 TSU1004     0.0000 
      4 O3        -11.1610   -7.7130   17.5200 O.co2     1 TSU1004     0.0000 
      5 C1        -10.7480   -5.9580   15.6840 C.ar      1 TSU1004     0.0000 
      6 C2         -9.7160   -6.5070   14.8710 C.ar      1 TSU1004     0.0000 
      7 C3         -8.7790   -5.6700   14.2240 C.ar      1 TSU1004     0.0000 
      8 C4         -8.8640   -4.2670   14.3760 C.ar      1 TSU1004     0.0000 
      9 C5         -9.8970   -3.7120   15.1780 C.ar      1 TSU1004     0.0000 
     10 C6        -10.8300   -4.5470   15.8270 C.ar      1 TSU1004     0.0000 
     11 C7         -7.8580   -3.3520   13.6860 C.3       1 TSU1004     0.0000 
     12 H          -9.6558   -7.5242   14.7563 H         1 TSU1004     0.0000 
     13 H          -8.0422   -6.0773   13.6481 H         1 TSU1004     0.0000 
     14 H          -9.9609   -2.6949   15.2831 H         1 TSU1004     0.0000 
     15 H         -11.5692   -4.1401   16.4031 H         1 TSU1004     0.0000 
     16 H          -6.9212   -3.5411   13.9803 H         1 TSU1004     0.0000 
     17 H          -7.8801   -3.4584   12.6919 H         1 TSU1004     0.0000 
     18 H          -8.0377   -2.3879   13.8816 H         1 TSU1004     0.0000 
@<TRIPOS>BOND
     1    2    1 ar   
     2    3    1 ar   
     3    4    1 ar   
     4    5    1 1    
     5    6    5 ar   
     6   10    5 ar   
     7    7    6 ar   
     8   12    6 1    
     9    8    7 ar   
    10   13    7 1    
    11    9    8 ar   
    12   11    8 1    
    13   10    9 ar   
    14   14    9 1    
    15   15   10 1    
    16   16   11 1    
    17   17   11 1    
    18   18   11 1    
@<TRIPOS>SUBSTRUCTURE
     1 TSU1004     1 GROUP   
@<TRIPOS>SET

