#    Name: 1vg8_GNP_2_INTS_M
#    Modification time : Tue Mar 25 07:50:23 2014

@<TRIPOS>MOLECULE
1vg8_GNP_2_INTS_M
   83     0    15     0     0
SMALL
NO_CHARGES


@<TRIPOS>ATOM
      1 N          28.7945   21.8515   41.4660 N.am      2 SEC2        0.0000 
      2 N          29.0370   23.1250   41.5920 N.am     12 SEL2        0.0000 
      3 N          28.5520   20.5780   41.3400 N.am      7 SEP2        0.0000 
      4 N          28.8030   22.6755   42.7695 N.am      2 SEC2        0.0000 
      5 N          28.5690   22.2260   43.9470 N.am      7 SEP2        0.0000 
      6 Zn         30.9625   26.0280   41.3590 Zn        4 ZIC7        0.0000 
      7 Zn         30.1840   25.3930   41.3740 Zn       14 ZIL7        0.0000 
      8 Zn         31.7410   26.6630   41.3440 Zn        9 ZIP7        0.0000 
      9 N          29.2765   26.1990   42.2155 N.am      2 SEC2        0.0000 
     10 N          30.1840   25.3930   41.3740 N.am     12 SEL2        0.0000 
     11 N          28.3690   27.0050   43.0570 N.am      7 SEP2        0.0000 
     12 NZ         30.7975   23.6875   38.3975 N.4       3 LYC4        0.0000 
     13 NZ         29.8530   23.8630   39.4080 N.4      13 LYL4        0.0000 
     14 NZ         31.7420   23.5120   37.3870 N.4       8 LYP4        0.0000 
     15 N          30.7975   23.6875   38.3975 N.am      2 SEC2        0.0000 
     16 N          29.8530   23.8630   39.4080 N.am     12 SEL2        0.0000 
     17 N          31.7420   23.5120   37.3870 N.am      7 SEP2        0.0000 
     18 N          28.8215   24.0995   38.4765 N.am      2 SEC2        0.0000 
     19 N          27.7900   24.3360   37.5450 N.am      7 SEP2        0.0000 
     20 NZ         32.6000   23.3105   38.4730 N.4       3 LYC4        0.0000 
     21 NZ         33.4580   23.1090   39.5590 N.4      13 LYL4        0.0000 
     22 N          34.7975   22.4105   39.8025 N.am      2 SEC2        0.0000 
     23 N          33.4580   23.1090   39.5590 N.am     12 SEL2        0.0000 
     24 N          36.1370   21.7120   40.0460 N.am      7 SEP2        0.0000 
     25 N          34.7645   23.7395   39.2715 N.am      2 SEC2        0.0000 
     26 N          36.0710   24.3700   38.9840 N.am      7 SEP2        0.0000 
     27 N          32.6000   23.3105   38.4730 N.am      2 SEC2        0.0000 
     28 Zn         32.4180   25.9000   41.1695 Zn        4 ZIC7        0.0000 
     29 Zn         33.0950   25.1370   40.9950 Zn       14 ZIL7        0.0000 
     30 N          34.2650   26.0455   40.6040 N.am      2 SEC2        0.0000 
     31 N          33.0950   25.1370   40.9950 N.am     12 SEL2        0.0000 
     32 N          35.4350   26.9540   40.2130 N.am      7 SEP2        0.0000 
     33 N          35.0710   22.3810   41.0390 N.am      2 SEC2        0.0000 
     34 N          34.0050   23.0500   42.0320 N.am     12 SEL2        0.0000 
     35 N          36.6190   25.8515   42.5525 N.am      2 SEC2        0.0000 
     36 N          35.8140   24.7190   42.9270 N.am     12 SEL2        0.0000 
     37 N          37.4240   26.9840   42.1780 N.am      7 SEP2        0.0000 
     38 N          36.8965   24.8875   43.6655 N.am      2 SEC2        0.0000 
     39 N          37.9790   25.0560   44.4040 N.am      7 SEP2        0.0000 
     40 CA         33.6110   20.4680   42.9825 C.3       5 GLC5        0.0000 
     41 CA         34.5570   21.3600   44.3950 C.3      15 GLL5        0.0000 
     42 CA         32.6650   19.5760   41.5700 C.3      10 GLP5        0.0000 
     43 CA         33.9180   21.7605   47.4795 C.3       5 GLC5        0.0000 
     44 CA         35.7030   21.5770   46.6670 C.3      15 GLL5        0.0000 
     45 CA         32.1330   21.9440   48.2920 C.3      10 GLP5        0.0000 
     46 O          36.0680   21.2805   49.2465 O.2       1 ALC1        0.0000 
     47 O          35.5960   20.8560   47.9410 O.2      11 ALL1        0.0000 
     48 O          36.5400   21.7050   50.5520 O.2       6 ALP1        0.0000 
     49 O          38.1315   23.4525   48.2935 O.2       1 ALC1        0.0000 
     50 O          37.8350   22.1950   47.6200 O.2      11 ALL1        0.0000 
     51 O          38.4280   24.7100   48.9670 O.2       6 ALP1        0.0000 
     52 CA         37.8150   19.4560   44.0510 C.3       5 GLC5        0.0000 
     53 CA         37.6530   20.6740   45.7630 C.3      15 GLL5        0.0000 
     54 CA         37.9770   18.2380   42.3390 C.3      10 GLP5        0.0000 
     55 N          40.1350   21.5835   41.5145 N.am      2 SEC2        0.0000 
     56 N          39.8270   21.9500   43.0620 N.am     12 SEL2        0.0000 
     57 N          40.4430   21.2170   39.9670 N.am      7 SEP2        0.0000 
     58 CA         40.4955   19.4080   42.5550 C.3       5 GLC5        0.0000 
     59 CA         40.6470   20.9190   43.7100 C.3      15 GLL5        0.0000 
     60 CA         40.3440   17.8970   41.4000 C.3      10 GLP5        0.0000 
     61 CA         41.4915   22.7150   42.8785 C.3       5 GLC5        0.0000 
     62 CA         42.3360   24.5110   42.0470 C.3      10 GLP5        0.0000 
     63 CA         42.4650   21.2860   44.9605 C.3       5 GLC5        0.0000 
     64 CA         44.2830   21.6530   46.2110 C.3      10 GLP5        0.0000 
     65 N          43.4545   21.9425   42.0360 N.am      2 SEC2        0.0000 
     66 N          42.6810   20.8580   42.5170 N.am     12 SEL2        0.0000 
     67 N          44.2280   23.0270   41.5550 N.am      7 SEP2        0.0000 
     68 N          43.4950   22.0030   43.3905 N.am      2 SEC2        0.0000 
     69 N          44.3090   23.1480   44.2640 N.am      7 SEP2        0.0000 
     70 O          43.6615   19.0045   43.9860 O.2       1 ALC1        0.0000 
     71 O          42.3910   19.4740   44.2860 O.2      11 ALL1        0.0000 
     72 O          44.9320   18.5350   43.6860 O.2       6 ALP1        0.0000 
     73 O          43.5825   17.8200   45.9210 O.2       1 ALC1        0.0000 
     74 O          42.1600   17.9950   46.1100 O.2      11 ALL1        0.0000 
     75 O          45.0050   17.6450   45.7320 O.2       6 ALP1        0.0000 
     76 CA         38.9625   19.3015   43.5485 C.3       5 GLC5        0.0000 
     77 CA         39.9480   20.3650   44.7580 C.3      15 GLL5        0.0000 
     78 CA         33.2588   21.8605   45.4490 C.3       5 GLC5        0.0000 
     79 CA         35.3380   20.6220   45.4750 C.3      15 GLL5        0.0000 
     80 CA         31.5700   22.7300   45.9630 C.3      10 GLP5        0.0000 
     81 CA         39.2455   22.1112   46.6530 C.3       5 GLC5        0.0000 
     82 CA         37.1630   21.9410   46.4230 C.3      15 GLL5        0.0000 
     83 CA         41.0830   22.9150   47.2130 C.3      10 GLP5        0.0000 
@<TRIPOS>BOND
@<TRIPOS>SUBSTRUCTURE
     1 ALC1       46 GROUP        1 X    ALC  0     ROOT ALC X 1
     2 SEC2        1 GROUP        1 X    SEC  0     **** SEC X 2
     3 LYC4       12 GROUP        1 X    LYC  0     **** LYC X 4
     4 ZIC7        6 GROUP        1 X    ZIC  0     **** ZIC X 5
     5 GLC5       40 GROUP        1 X    GLC  0     **** GLC X 6
     6 ALP1       48 GROUP        1 Y    ALP  0     ROOT ALP Y 8
     7 SEP2        3 GROUP        1 Y    SEP  0     **** SEP Y 9
     8 LYP4       14 GROUP        1 Y    LYP  0     **** LYP Y 11
     9 ZIP7        8 GROUP        1 Y    ZIP  0     **** ZIP Y 12
    10 GLP5       42 GROUP        1 Y    GLP  0     **** GLP Y 13
    11 ALL1       47 GROUP        1 Z    ALL  0     ROOT ALL Z 15
    12 SEL2        2 GROUP        1 Z    SEL  0     **** SEL Z 16
    13 LYL4       13 GROUP        1 Z    LYL  0     **** LYL Z 18
    14 ZIL7        7 GROUP        1 Z    ZIL  0     **** ZIL Z 19
    15 GLL5       41 GROUP        1 Z    GLL  0     **** GLL Z 20
@<TRIPOS>SET

