#    Name: 1vg8_GNP_2_ligand
#    Modification time : Tue Mar 25 07:50:23 2014

@<TRIPOS>MOLECULE
1vg8_GNP_2_ligand
   44    46     1     0     0
SMALL
NO_CHARGES


@<TRIPOS>ATOM
      1 PG         30.0900   23.9610   40.8810 P.3       1 GNP2400     0.0000 
      2 O1G        29.0370   23.1250   41.5920 O.co2     1 GNP2400     0.0000 
      3 O2G        30.1840   25.3930   41.3740 O.co2     1 GNP2400     0.0000 
      4 O3G        29.8530   23.8630   39.4080 O.co2     1 GNP2400     0.0000 
      5 N3B        31.5560   23.1270   41.3330 N.4       1 GNP2400     0.0000 
      6 PB         33.0850   23.6950   40.8550 P.3       1 GNP2400     0.0000 
      7 O1B        33.4580   23.1090   39.5590 O.co2     1 GNP2400     0.0000 
      8 O2B        33.0950   25.1370   40.9950 O.co2     1 GNP2400     0.0000 
      9 O3A        34.0050   23.0500   42.0320 O.3       1 GNP2400     0.0000 
     10 PA         34.6810   23.7490   43.2500 P.3       1 GNP2400     0.0000 
     11 O1A        35.8140   24.7190   42.9270 O.co2     1 GNP2400     0.0000 
     12 O2A        33.5550   24.2580   44.1130 O.co2     1 GNP2400     0.0000 
     13 O5'        35.3470   22.5240   43.9670 O.3       1 GNP2400     0.0000 
     14 C5'        34.5570   21.3600   44.3950 C.3       1 GNP2400     0.0000 
     15 C4'        35.3380   20.6220   45.4750 C.3       1 GNP2400     0.0000 
     16 O4'        36.5670   20.0980   45.0290 O.3       1 GNP2400     0.0000 
     17 C3'        35.7030   21.5770   46.6670 C.3       1 GNP2400     0.0000 
     18 O3'        35.5960   20.8560   47.9410 O.3       1 GNP2400     0.0000 
     19 C2'        37.1630   21.9410   46.4230 C.3       1 GNP2400     0.0000 
     20 O2'        37.8350   22.1950   47.6200 O.3       1 GNP2400     0.0000 
     21 C1'        37.6530   20.6740   45.7630 C.3       1 GNP2400     0.0000 
     22 N9         38.7380   20.9580   44.8210 N.pl3     1 GNP2400     0.0000 
     23 C8         38.6870   21.9470   43.7520 C.2       1 GNP2400     0.0000 
     24 N7         39.8270   21.9500   43.0620 N.2       1 GNP2400     0.0000 
     25 C5         40.6470   20.9190   43.7100 C.2       1 GNP2400     0.0000 
     26 C6         41.9710   20.4820   43.3910 C.2       1 GNP2400     0.0000 
     27 O6         42.6810   20.8580   42.5170 O.2       1 GNP2400     0.0000 
     28 N1         42.3910   19.4740   44.2860 N.am      1 GNP2400     0.0000 
     29 C2         41.5430   19.0420   45.2860 C.2       1 GNP2400     0.0000 
     30 N2         42.1600   17.9950   46.1100 N.pl3     1 GNP2400     0.0000 
     31 N3         40.3420   19.3850   45.6190 N.2       1 GNP2400     0.0000 
     32 C4         39.9480   20.3650   44.7580 C.2       1 GNP2400     0.0000 
     33 H          34.3870   20.6823   43.5643 H         1 GNP2400     0.0000 
     34 H          33.6027   21.6718   44.8077 H         1 GNP2400     0.0000 
     35 H          34.7111   19.8459   45.9029 H         1 GNP2400     0.0000 
     36 H          35.1091   22.4258   46.6120 H         1 GNP2400     0.0000 
     37 H          37.1875   22.7177   45.7096 H         1 GNP2400     0.0000 
     38 H          37.9924   19.9976   46.5247 H         1 GNP2400     0.0000 
     39 H          37.9031   22.4920   43.6181 H         1 GNP2400     0.0000 
     40 H          43.3293   19.0713   44.1815 H         1 GNP2400     0.0000 
     41 H          41.6156   17.6636   46.8806 H         1 GNP2400     0.0000 
     42 H          43.0742   17.6989   45.8333 H         1 GNP2400     0.0000 
     43 H          36.3692   21.1789   48.4868 H         1 GNP2400     0.0000 
     44 H          37.8260   23.1904   47.7156 H         1 GNP2400     0.0000 
@<TRIPOS>BOND
     1    2    1 ar   
     2    3    1 ar   
     3    4    1 ar   
     4    5    1 1    
     5    6    5 1    
     6    7    6 ar   
     7    8    6 ar   
     8    9    6 1    
     9   10    9 1    
    10   11   10 ar   
    11   12   10 ar   
    12   13   10 1    
    13   14   13 1    
    14   15   14 1    
    15   33   14 1    
    16   34   14 1    
    17   16   15 1    
    18   17   15 1    
    19   35   15 1    
    20   21   16 1    
    21   18   17 1    
    22   19   17 1    
    23   36   17 1    
    24   43   18 1    
    25   20   19 1    
    26   21   19 1    
    27   37   19 1    
    28   44   20 1    
    29   22   21 1    
    30   38   21 1    
    31   23   22 1    
    32   32   22 1    
    33   24   23 2    
    34   39   23 1    
    35   25   24 1    
    36   26   25 1    
    37   32   25 2    
    38   27   26 2    
    39   28   26 am   
    40   29   28 1    
    41   40   28 1    
    42   30   29 1    
    43   31   29 2    
    44   41   30 1    
    45   42   30 1    
    46   32   31 1    
@<TRIPOS>SUBSTRUCTURE
     1 GNP2400     1 GROUP   
@<TRIPOS>SET

