#    Name: 4A5S_2_CAVITY_N1_ALL.mol2
#    Modification time : Tue Mar 11 16:30:36 2014

@<TRIPOS>MOLECULE
4A5S_2_CAVITY_N1_ALL.mol2
   73     0     6     0     0
SMALL
NO_CHARGES


@<TRIPOS>ATOM
      1 OG         26.5562   64.9570   86.7352 O.2       1 SER1        0.0000 
      2 CZ         24.9525   68.4320   83.9328 C.ar      4 PHE5        0.0000 
      3 CZ         25.5890   67.1538   84.3923 C.ar      4 PHE5        0.0000 
      4 OG         26.2254   65.8756   84.8518 O.2       1 SER1        0.0000 
      5 OG         26.8618   64.5974   85.3113 O.2       1 SER1        0.0000 
      6 CZ         27.4983   63.3192   85.7708 C.ar      4 PHE5        0.0000 
      7 CZ         24.6218   69.3506   82.0495 C.ar      4 PHE5        0.0000 
      8 DU         25.2582   68.0723   82.5090 H         6 CUB7        0.0000 
      9 CA         25.8946   66.7941   82.9685 C.3       5 GLY6        0.0000 
     10 CA         26.5311   65.5159   83.4280 C.3       5 GLY6        0.0000 
     11 DU         27.1675   64.2377   83.8875 H         6 CUB7        0.0000 
     12 OG         27.8039   62.9595   84.3470 O.2       1 SER1        0.0000 
     13 OG         25.5638   67.7127   81.0852 O.2       1 SER1        0.0000 
     14 OG         26.2003   66.4345   81.5447 O.2       1 SER1        0.0000 
     15 OG         26.8367   65.1563   82.0042 O.2       1 SER1        0.0000 
     16 N          27.4731   63.8781   82.4637 N.2       2 ALA2        0.0000 
     17 OG         28.1096   62.5999   82.9232 O.2       1 SER1        0.0000 
     18 OG         26.5059   66.0748   80.1209 O.2       1 SER1        0.0000 
     19 OG         27.1423   64.7966   80.5804 O.2       1 SER1        0.0000 
     20 N          27.7788   63.5184   81.0399 N.2       2 ALA2        0.0000 
     21 CZ         24.2655   66.4561   84.2845 C.ar      4 PHE5        0.0000 
     22 CA         24.9019   65.1779   84.7440 C.3       5 GLY6        0.0000 
     23 CA         25.5384   63.8996   85.2035 C.3       5 GLY6        0.0000 
     24 CZ         26.1748   62.6214   85.6630 C.ar      4 PHE5        0.0000 
     25 CZ         23.2983   68.6528   81.9417 C.ar      4 PHE5        0.0000 
     26 N          23.9347   67.3746   82.4012 N.2       2 ALA2        0.0000 
     27 CA         24.5712   66.0964   82.8607 C.3       5 GLY6        0.0000 
     28 CA         25.2076   64.8182   83.3202 C.3       5 GLY6        0.0000 
     29 CA         25.8440   63.5400   83.7797 C.3       5 GLY6        0.0000 
     30 OG         26.4805   62.2618   84.2392 O.2       1 SER1        0.0000 
     31 OG         24.2404   67.0150   80.9774 O.2       1 SER1        0.0000 
     32 CA         26.1497   63.1803   82.3559 C.3       5 GLY6        0.0000 
     33 OG         26.7861   61.9021   82.8154 O.2       1 SER1        0.0000 
     34 DU         32.1557   67.3883   85.7428 H         6 CUB7        0.0000 
     35 N          32.7921   66.1101   86.2023 N.2       2 ALA2        0.0000 
     36 CA         24.8514   61.9237   85.5551 C.3       5 GLY6        0.0000 
     37 O          25.1570   61.5640   84.1313 O.2       2 ALA2        0.0000 
     38 CZ         29.8901   68.3284   86.5992 C.ar      4 PHE5        0.0000 
     39 CZ         30.5266   67.0502   87.0587 C.ar      4 PHE5        0.0000 
     40 NZ         31.1630   65.7720   87.5182 N.2       3 LYS4        0.0000 
     41 DU         30.1958   67.9688   85.1754 H         6 CUB7        0.0000 
     42 DU         30.8322   66.6906   85.6349 H         6 CUB7        0.0000 
     43 NZ         31.4686   65.4124   86.0944 N.2       3 LYS4        0.0000 
     44 O          31.1378   66.3309   84.2111 O.2       2 ALA2        0.0000 
     45 NZ         31.7743   65.0527   84.6706 N.2       3 LYS4        0.0000 
     46 O          30.8071   67.2495   82.3278 O.2       2 ALA2        0.0000 
     47 OG         28.5667   67.6307   86.4914 O.2       1 SER1        0.0000 
     48 CZ         29.2031   66.3525   86.9509 C.ar      4 PHE5        0.0000 
     49 OG         28.2359   68.5493   84.6081 O.2       1 SER1        0.0000 
     50 OG         28.8723   67.2711   85.0676 O.2       1 SER1        0.0000 
     51 DU         29.5087   65.9928   85.5271 H         6 CUB7        0.0000 
     52 NZ         30.1452   64.7146   85.9866 N.2       3 LYS4        0.0000 
     53 DU         28.5415   68.1896   83.1843 H         6 CUB7        0.0000 
     54 O          29.1780   66.9114   83.6438 O.2       2 ALA2        0.0000 
     55 O          29.8144   65.6332   84.1033 O.2       2 ALA2        0.0000 
     56 NZ         30.4508   64.3550   84.5628 N.2       3 LYS4        0.0000 
     57 O          29.4836   66.5517   82.2199 O.2       2 ALA2        0.0000 
     58 OG         29.1274   63.6572   84.4549 O.2       1 SER1        0.0000 
     59 DU         27.5237   67.1322   81.6526 H         6 CUB7        0.0000 
     60 O          28.1602   65.8540   82.1121 O.2       2 ALA2        0.0000 
     61 O          28.7966   64.5758   82.5716 O.2       2 ALA2        0.0000 
     62 NZ         29.4330   63.2976   83.0311 N.2       3 LYS4        0.0000 
     63 O          28.4658   65.4943   80.6883 O.2       2 ALA2        0.0000 
     64 CZ         27.8796   65.6548   86.8430 C.ar      4 PHE5        0.0000 
     65 CZ         26.2760   69.1297   84.0407 C.ar      4 PHE5        0.0000 
     66 OG         26.9124   67.8515   84.5002 O.2       1 SER1        0.0000 
     67 OG         27.5489   66.5733   84.9597 O.2       1 SER1        0.0000 
     68 CZ         28.1853   65.2951   85.4192 C.ar      4 PHE5        0.0000 
     69 CZ         28.8217   64.0169   85.8787 C.ar      4 PHE5        0.0000 
     70 DU         26.5816   68.7701   82.6169 H         6 CUB7        0.0000 
     71 DU         27.2181   67.4919   83.0764 H         6 CUB7        0.0000 
     72 DU         27.8545   66.2137   83.5359 H         6 CUB7        0.0000 
     73 O          28.4909   64.9355   83.9954 O.2       2 ALA2        0.0000 
@<TRIPOS>BOND
@<TRIPOS>SUBSTRUCTURE
     1 SER1        1 GROUP   
     2 ALA2       16 GROUP   
     3 LYS4       40 GROUP   
     4 PHE5        2 GROUP   
     5 GLY6        9 GROUP   
     6 CUB7        8 GROUP   
@<TRIPOS>SET

