#    Name: 4a5s_N7F_2_INTS_M
#    Modification time : Tue Mar 25 05:01:15 2014

@<TRIPOS>MOLECULE
4a5s_N7F_2_INTS_M
   62     0    12     0     0
SMALL
NO_CHARGES


@<TRIPOS>ATOM
      1 CA         30.8450   66.9055   88.8205 C.3       4 GLC5        0.0000 
      2 CA         31.1130   66.0960   86.9520 C.3      12 GLL5        0.0000 
      3 CA         30.5770   67.7150   90.6890 C.3       8 GLP5        0.0000 
      4 CA         29.7945   67.5765   88.0955 C.3       4 GLC5        0.0000 
      5 CA         30.2100   67.0070   86.0850 C.3      12 GLL5        0.0000 
      6 CA         29.3790   68.1460   90.1060 C.3       8 GLP5        0.0000 
      7 OD1        31.4475   62.9635   83.9375 O.co2     3 ASC3        0.0000 
      8 OD1        30.7050   62.7730   85.0730 O.co2    11 ASL3        0.0000 
      9 OD1        32.1900   63.1540   82.8020 O.co2     7 ASP3        0.0000 
     10 O          31.4475   62.9635   83.9375 O.2       1 ALC1        0.0000 
     11 O          30.7050   62.7730   85.0730 O.2       9 ALL1        0.0000 
     12 O          32.1900   63.1540   82.8020 O.2       5 ALP1        0.0000 
     13 O          31.6470   62.6010   86.4200 O.2       1 ALC1        0.0000 
     14 O          32.5890   62.4290   87.7670 O.2       5 ALP1        0.0000 
     15 O          31.3275   61.7955   85.7470 O.2       1 ALC1        0.0000 
     16 O          31.9500   60.8180   86.4210 O.2       5 ALP1        0.0000 
     17 O          30.0610   61.5940   84.6535 O.2       1 ALC1        0.0000 
     18 O          29.4170   60.4150   84.2340 O.2       5 ALP1        0.0000 
     19 CA         25.0615   66.6245   85.9010 C.3       4 GLC5        0.0000 
     20 CA         26.4180   65.2620   85.4050 C.3      12 GLL5        0.0000 
     21 CA         23.7050   67.9870   86.3970 C.3       8 GLP5        0.0000 
     22 CA         26.6130   64.2975   87.3055 C.3       4 GLC5        0.0000 
     23 CA         26.8080   63.3330   89.2060 C.3       8 GLP5        0.0000 
     24 N          23.2460   64.8940   83.5640 N.am      2 SEC2        0.0000 
     25 N          24.0250   66.1680   83.6490 N.am     10 SEL2        0.0000 
     26 N          22.4670   63.6200   83.4790 N.am      6 SEP2        0.0000 
     27 CA         22.6245   68.9505   83.7610 C.3       4 GLC5        0.0000 
     28 CA         22.9640   68.2210   82.1360 C.3      12 GLL5        0.0000 
     29 CA         22.2850   69.6800   85.3860 C.3       8 GLP5        0.0000 
     30 CA         23.4955   66.0885   81.6920 C.3       4 GLC5        0.0000 
     31 CA         24.0270   63.9560   81.2480 C.3       8 GLP5        0.0000 
     32 CA         20.1915   69.1405   82.6935 C.3       4 GLC5        0.0000 
     33 CA         20.5850   69.1540   80.5910 C.3      12 GLL5        0.0000 
     34 CA         19.7980   69.1270   84.7960 C.3       8 GLP5        0.0000 
     35 CA         19.4630   71.3860   81.1910 C.3       4 GLC5        0.0000 
     36 CA         19.4800   69.6110   79.8570 C.3      12 GLL5        0.0000 
     37 CA         19.4460   73.1610   82.5250 C.3       8 GLP5        0.0000 
     38 CA         24.0835   66.0680   80.5510 C.3       4 GLC5        0.0000 
     39 CA         24.1400   68.1800   79.8540 C.3      12 GLL5        0.0000 
     40 CA         30.1097   64.0929   87.8146 C.3       4 GLC5        0.0000 
     41 CA         30.3390   64.0620   85.6950 C.3      12 GLL5        0.0000 
     42 CA         29.1780   62.9100   89.1900 C.3       8 GLP5        0.0000 
     43 CA         24.3487   64.4838   85.4770 C.3       4 GLC5        0.0000 
     44 CA         22.3520   64.4170   85.8200 C.3       8 GLP5        0.0000 
     45 CA         25.2300   63.8245   82.7233 C.3       4 GLC5        0.0000 
     46 CA         26.2730   63.8390   84.8630 C.3      12 GLL5        0.0000 
     47 CA         25.1628   62.8360   82.4143 C.3       4 GLC5        0.0000 
     48 CA         26.5120   62.2110   83.1340 C.3      12 GLL5        0.0000 
     49 CA         26.0843   60.3645   82.4073 C.3       4 GLC5        0.0000 
     50 CA         25.8700   59.0130   81.2340 C.3       8 GLP5        0.0000 
     51 CA         24.7155   59.9375   84.6232 C.3       4 GLC5        0.0000 
     52 CA         26.0850   61.2210   84.0270 C.3      12 GLL5        0.0000 
     53 CA         23.5130   58.5040   84.5570 C.3       8 GLP5        0.0000 
     54 CA         24.0820   63.3010   85.6915 C.3       4 GLC5        0.0000 
     55 CA         25.7510   61.5210   85.3520 C.3      12 GLL5        0.0000 
     56 CA         18.5324   68.2194   79.4988 C.3       4 GLC5        0.0000 
     57 CA         17.2510   66.7690   79.6320 C.3       8 GLP5        0.0000 
     58 CA         22.6704   67.2291   78.6423 C.3       4 GLC5        0.0000 
     59 CA         22.9950   68.5150   80.6180 C.3      12 GLL5        0.0000 
     60 CA         21.4750   66.0450   77.9250 C.3       8 GLP5        0.0000 
     61 CA         21.1836   67.7772   78.3619 C.3       4 GLC5        0.0000 
     62 CA         21.9420   69.2910   78.5720 C.3      12 GLL5        0.0000 
@<TRIPOS>BOND
@<TRIPOS>SUBSTRUCTURE
     1 ALC1       10 GROUP        1 X    ALC  0     ROOT ALC X 1
     2 SEC2       24 GROUP        1 X    SEC  0     **** SEC X 2
     3 ASC3        7 GROUP        1 X    ASC  0     **** ASC X 3
     4 GLC5        1 GROUP        1 X    GLC  0     **** GLC X 6
     5 ALP1       12 GROUP        1 Y    ALP  0     ROOT ALP Y 8
     6 SEP2       26 GROUP        1 Y    SEP  0     **** SEP Y 9
     7 ASP3        9 GROUP        1 Y    ASP  0     **** ASP Y 10
     8 GLP5        3 GROUP        1 Y    GLP  0     **** GLP Y 13
     9 ALL1       11 GROUP        1 Z    ALL  0     ROOT ALL Z 15
    10 SEL2       25 GROUP        1 Z    SEL  0     **** SEL Z 16
    11 ASL3        8 GROUP        1 Z    ASL  0     **** ASL Z 17
    12 GLL5        2 GROUP        1 Z    GLL  0     **** GLL Z 20
@<TRIPOS>SET

