#    Name: 4a5s_N7F_2_ligand
#    Modification time : Tue Mar 25 05:01:15 2014

@<TRIPOS>MOLECULE
4a5s_N7F_2_ligand
   65    70     1     0     0
SMALL
NO_CHARGES


@<TRIPOS>ATOM
      1 N1         24.3170   68.2340   82.7060 N.am      1 N7F901      0.0000 
      2 C2         25.0930   69.3570   82.5000 C.2       1 N7F901      0.0000 
      3 N3         26.3210   69.3880   82.8660 N.2       1 N7F901      0.0000 
      4 C4         24.7390   67.1610   83.4470 C.2       1 N7F901      0.0000 
      5 C5         26.1390   67.1970   83.9520 C.2       1 N7F901      0.0000 
      6 C6         26.8690   68.2730   83.5920 C.2       1 N7F901      0.0000 
      7 C7         28.2100   68.0160   84.0740 C.2       1 N7F901      0.0000 
      8 C8         28.1610   66.8480   84.7430 C.2       1 N7F901      0.0000 
      9 N9         26.9390   66.3530   84.5800 N.pl3     1 N7F901      0.0000 
     10 C10        29.2470   68.9800   83.8260 C.1       1 N7F901      0.0000 
     11 N11        30.0640   69.7750   83.6570 N.1       1 N7F901      0.0000 
     12 N12        29.2310   66.2750   85.2320 N.3       1 N7F901      0.0000 
     13 C13        29.6520   64.9570   84.6540 C.3       1 N7F901      0.0000 
     14 C14        30.3390   64.0620   85.6950 C.3       1 N7F901      0.0000 
     15 C15        31.6010   64.8490   86.1580 C.3       1 N7F901      0.0000 
     16 C16        31.1130   66.0960   86.9520 C.3       1 N7F901      0.0000 
     17 C17        30.2100   67.0070   86.0850 C.3       1 N7F901      0.0000 
     18 N18        30.7050   62.7730   85.0730 N.4       1 N7F901      0.0000 
     19 C19        26.4180   65.2620   85.4050 C.3       1 N7F901      0.0000 
     20 C20        26.2730   63.8390   84.8630 C.ar      1 N7F901      0.0000 
     21 C21        26.5930   63.5470   83.5340 C.ar      1 N7F901      0.0000 
     22 C22        26.5120   62.2110   83.1340 C.ar      1 N7F901      0.0000 
     23 C23        26.0850   61.2210   84.0270 C.ar      1 N7F901      0.0000 
     24 C24        25.7510   61.5210   85.3520 C.ar      1 N7F901      0.0000 
     25 C25        25.8730   62.8490   85.7740 C.ar      1 N7F901      0.0000 
     26 O26        24.0250   66.1680   83.6490 O.2       1 N7F901      0.0000 
     27 C27        22.9640   68.2210   82.1360 C.3       1 N7F901      0.0000 
     28 C28        20.5850   69.1540   80.5910 C.ar      1 N7F901      0.0000 
     29 C29        19.4800   69.6110   79.8570 C.ar      1 N7F901      0.0000 
     30 C30        19.5950   69.9570   78.5070 C.ar      1 N7F901      0.0000 
     31 C31        20.8180   69.7230   77.8450 C.ar      1 N7F901      0.0000 
     32 C32        22.9950   68.5150   80.6180 C.ar      1 N7F901      0.0000 
     33 C33        21.8420   68.9790   79.9510 C.ar      1 N7F901      0.0000 
     34 C34        21.9420   69.2910   78.5720 C.ar      1 N7F901      0.0000 
     35 N35        23.0960   69.0540   77.8920 N.ar      1 N7F901      0.0000 
     36 C36        24.1640   68.4790   78.4830 C.ar      1 N7F901      0.0000 
     37 C37        24.1400   68.1800   79.8540 C.ar      1 N7F901      0.0000 
     38 H          24.6274   70.1803   82.0303 H         1 N7F901      0.0000 
     39 H          30.3473   65.1192   83.8215 H         1 N7F901      0.0000 
     40 H          28.7773   64.4250   84.2608 H         1 N7F901      0.0000 
     41 H          29.6934   63.9431   86.5215 H         1 N7F901      0.0000 
     42 H          32.1513   65.1697   85.2997 H         1 N7F901      0.0000 
     43 H          32.1877   64.2283   86.8005 H         1 N7F901      0.0000 
     44 H          31.9796   66.6628   87.2819 H         1 N7F901      0.0000 
     45 H          30.5525   65.7612   87.8208 H         1 N7F901      0.0000 
     46 H          29.6777   67.7000   86.7642 H         1 N7F901      0.0000 
     47 H          30.8688   67.6337   85.4540 H         1 N7F901      0.0000 
     48 H          25.3937   65.5613   85.8221 H         1 N7F901      0.0000 
     49 H          27.0383   65.1868   86.3653 H         1 N7F901      0.0000 
     50 H          26.8707   64.2709   82.8911 H         1 N7F901      0.0000 
     51 H          26.7693   61.9497   82.1704 H         1 N7F901      0.0000 
     52 H          26.0146   60.2400   83.6974 H         1 N7F901      0.0000 
     53 H          25.4314   60.8002   85.9849 H         1 N7F901      0.0000 
     54 H          25.6712   63.1008   86.7460 H         1 N7F901      0.0000 
     55 H          22.3316   68.9784   82.6112 H         1 N7F901      0.0000 
     56 H          22.4883   67.2449   82.2787 H         1 N7F901      0.0000 
     57 H          20.4943   68.9446   81.5868 H         1 N7F901      0.0000 
     58 H          18.5615   69.6930   80.3264 H         1 N7F901      0.0000 
     59 H          18.8134   70.3705   78.0065 H         1 N7F901      0.0000 
     60 H          20.8862   69.8681   76.8347 H         1 N7F901      0.0000 
     61 H          25.0171   68.2477   77.9432 H         1 N7F901      0.0000 
     62 H          24.9341   67.7272   80.3004 H         1 N7F901      0.0000 
     63 H          31.3342   62.8963   84.3056 H         1 N7F901      0.0000 
     64 H          31.1533   62.1605   85.7241 H         1 N7F901      0.0000 
     65 H          29.9036   62.2900   84.7202 H         1 N7F901      0.0000 
@<TRIPOS>BOND
     1    2    1 1    
     2    4    1 am   
     3   27    1 1    
     4    3    2 2    
     5   38    2 1    
     6    6    3 1    
     7    5    4 1    
     8   26    4 2    
     9    6    5 2    
    10    9    5 1    
    11    7    6 1    
    12    8    7 2    
    13   10    7 1    
    14    9    8 1    
    15   12    8 1    
    16   19    9 1    
    17   11   10 3    
    18   13   12 1    
    19   17   12 1    
    20   14   13 1    
    21   39   13 1    
    22   40   13 1    
    23   15   14 1    
    24   18   14 1    
    25   41   14 1    
    26   16   15 1    
    27   42   15 1    
    28   43   15 1    
    29   17   16 1    
    30   44   16 1    
    31   45   16 1    
    32   46   17 1    
    33   47   17 1    
    34   63   18 1    
    35   64   18 1    
    36   65   18 1    
    37   20   19 1    
    38   48   19 1    
    39   49   19 1    
    40   21   20 ar   
    41   25   20 ar   
    42   22   21 ar   
    43   50   21 1    
    44   23   22 ar   
    45   51   22 1    
    46   24   23 ar   
    47   52   23 1    
    48   25   24 ar   
    49   53   24 1    
    50   54   25 1    
    51   32   27 1    
    52   55   27 1    
    53   56   27 1    
    54   29   28 ar   
    55   33   28 ar   
    56   57   28 1    
    57   30   29 ar   
    58   58   29 1    
    59   31   30 ar   
    60   59   30 1    
    61   34   31 ar   
    62   60   31 1    
    63   33   32 ar   
    64   37   32 ar   
    65   34   33 ar   
    66   35   34 ar   
    67   36   35 ar   
    68   37   36 ar   
    69   61   36 1    
    70   62   37 1    
@<TRIPOS>SUBSTRUCTURE
     1 N7F901      1 GROUP   
@<TRIPOS>SET

