#    Name: 4i0h_1BL_3_INTS_M
#    Modification time : Tue Mar 25 02:07:40 2014

@<TRIPOS>MOLECULE
4i0h_1BL_3_INTS_M
   91     0    12     0     0
SMALL
NO_CHARGES


@<TRIPOS>ATOM
      1 CA        -22.3455  -41.9620    2.3535 C.3       4 GLC5        0.0000 
      2 CA        -23.5140  -42.6490    0.5580 C.3      12 GLL5        0.0000 
      3 CA        -21.1770  -41.2750    4.1490 C.3       8 GLP5        0.0000 
      4 CA        -21.1175  -42.2545    2.2845 C.3       4 GLC5        0.0000 
      5 CA        -21.0580  -43.2340    0.4200 C.3      12 GLL5        0.0000 
      6 N         -23.0590  -41.2615   -3.8910 N.am      2 SEC2        0.0000 
      7 N         -22.2130  -40.9430   -2.6010 N.am     10 SEL2        0.0000 
      8 N         -23.9050  -41.5800   -5.1810 N.am      6 SEP2        0.0000 
      9 CA        -22.8870  -39.0565   -3.0950 C.3       4 GLC5        0.0000 
     10 CA        -21.5640  -38.9780   -1.5090 C.3      12 GLL5        0.0000 
     11 CA        -24.2100  -39.1350   -4.6810 C.3       8 GLP5        0.0000 
     12 CA        -21.9370  -38.4145    0.6350 C.3       4 GLC5        0.0000 
     13 CA        -22.3100  -37.8510    2.7790 C.3       8 GLP5        0.0000 
     14 N         -20.0100  -36.3670    1.8455 N.am      2 SEC2        0.0000 
     15 N         -19.1120  -36.8800    0.6790 N.am     10 SEL2        0.0000 
     16 N         -20.9080  -35.8540    3.0120 N.am      6 SEP2        0.0000 
     17 N         -18.6545  -35.8980    1.6170 N.am      2 SEC2        0.0000 
     18 N         -18.1970  -34.9160    2.5550 N.am      6 SEP2        0.0000 
     19 N         -20.8105  -35.8825    1.2805 N.am      2 SEC2        0.0000 
     20 N         -20.7130  -35.9110   -0.4510 N.am     10 SEL2        0.0000 
     21 O         -21.2890  -40.5780    0.9065 O.2       1 ALC1        0.0000 
     22 O         -21.9130  -41.1300   -0.3610 O.2       9 ALL1        0.0000 
     23 O         -20.6650  -40.0260    2.1740 O.2       5 ALP1        0.0000 
     24 CA        -19.9130  -44.6725   -3.9520 C.3       4 GLC5        0.0000 
     25 CA        -18.4860  -43.2020   -3.7790 C.3      12 GLL5        0.0000 
     26 CA        -21.3400  -46.1430   -4.1250 C.3       8 GLP5        0.0000 
     27 CA        -18.8550  -43.1780   -5.8055 C.3       4 GLC5        0.0000 
     28 CA        -19.2240  -43.1540   -7.8320 C.3       8 GLP5        0.0000 
     29 CA        -17.8675  -44.6760   -3.9175 C.3       4 GLC5        0.0000 
     30 CA        -17.2490  -46.1500   -4.0560 C.3       8 GLP5        0.0000 
     31 CA        -14.8290  -40.6560   -0.6325 C.3       4 GLC5        0.0000 
     32 CA        -16.5350  -41.3630    0.0570 C.3      12 GLL5        0.0000 
     33 CA        -13.1230  -39.9490   -1.3220 C.3       8 GLP5        0.0000 
     34 CA        -15.1300  -42.4285    0.0835 C.3       4 GLC5        0.0000 
     35 CA        -13.7250  -43.4940    0.1100 C.3       8 GLP5        0.0000 
     36 O         -23.1355  -44.8660    1.5585 O.2       1 ALC1        0.0000 
     37 O         -23.7650  -44.0520    0.6560 O.2       9 ALL1        0.0000 
     38 O         -22.5060  -45.6800    2.4610 O.2       5 ALP1        0.0000 
     39 O         -23.2515  -44.0220    2.2700 O.2       1 ALC1        0.0000 
     40 O         -22.7380  -43.9920    3.8840 O.2       5 ALP1        0.0000 
     41 OD1       -25.7920  -41.3475    1.6460 O.co2     3 ASC3        0.0000 
     42 OD1       -25.9850  -42.2140    0.5810 O.co2    11 ASL3        0.0000 
     43 OD1       -25.5990  -40.4810    2.7110 O.co2     7 ASP3        0.0000 
     44 CA        -27.3495  -43.2010    2.3610 C.3       4 GLC5        0.0000 
     45 CA        -28.3860  -42.2610    0.7340 C.3      12 GLL5        0.0000 
     46 CA        -26.3130  -44.1410    3.9880 C.3       8 GLP5        0.0000 
     47 CA        -25.3390  -47.3630   -0.1085 C.3       4 GLC5        0.0000 
     48 CA        -26.1450  -47.1330   -1.6880 C.3      12 GLL5        0.0000 
     49 CA        -24.5330  -47.5930    1.4710 C.3       8 GLP5        0.0000 
     50 CA        -25.0505  -48.1610   -2.8315 C.3       4 GLC5        0.0000 
     51 CA        -23.9560  -49.1890   -3.9750 C.3       8 GLP5        0.0000 
     52 CA        -24.2595  -46.9235   -1.6330 C.3       4 GLC5        0.0000 
     53 CA        -22.3740  -46.7140   -1.5780 C.3       8 GLP5        0.0000 
     54 CA        -27.0665  -47.3725    0.7205 C.3       4 GLC5        0.0000 
     55 CA        -28.3930  -47.1110   -0.9980 C.3      12 GLL5        0.0000 
     56 CA        -25.7400  -47.6340    2.4390 C.3       8 GLP5        0.0000 
     57 CA        -29.3220  -47.5110    0.7575 C.3       4 GLC5        0.0000 
     58 CA        -30.2510  -47.9110    2.5130 C.3       8 GLP5        0.0000 
     59 CA        -29.6505  -45.8800    0.1485 C.3       4 GLC5        0.0000 
     60 CA        -30.9080  -44.6490    1.2950 C.3       8 GLP5        0.0000 
     61 CA        -25.9350  -48.2570   -3.7030 C.3       4 GLC5        0.0000 
     62 CA        -27.9140  -47.3250   -3.4310 C.3      12 GLL5        0.0000 
     63 CA        -25.7265  -41.7335   -4.8020 C.3       4 GLC5        0.0000 
     64 CA        -27.1660  -43.1770   -3.8520 C.3      12 GLL5        0.0000 
     65 CA        -24.2870  -40.2900   -5.7520 C.3       8 GLP5        0.0000 
     66 CA        -20.0232  -44.9883    0.4605 C.3       4 GLC5        0.0000 
     67 CA        -19.7910  -42.8890   -0.4120 C.3      12 GLL5        0.0000 
     68 CA        -19.6220  -46.9150    0.9170 C.3       8 GLP5        0.0000 
     69 CA        -20.8227  -43.4793   -3.1822 C.3       4 GLC5        0.0000 
     70 CA        -19.6980  -43.2040   -1.7560 C.3      12 GLL5        0.0000 
     71 CA        -22.5300  -43.8970   -4.2450 C.3       8 GLP5        0.0000 
     72 CA        -22.3341  -44.2155   -0.9885 C.3       4 GLC5        0.0000 
     73 CA        -22.2390  -42.5510   -0.2620 C.3      12 GLL5        0.0000 
     74 CA        -22.7010  -45.5140   -2.2610 C.3       8 GLP5        0.0000 
     75 CA        -16.5830  -42.5345    1.3696 C.3       4 GLC5        0.0000 
     76 CA        -18.6950  -42.2550    0.1580 C.3      12 GLL5        0.0000 
     77 CA        -15.8380  -43.3280    2.8110 C.3       8 GLP5        0.0000 
     78 CA        -30.0218  -38.9610   -1.6502 C.3       4 GLC5        0.0000 
     79 CA        -28.4220  -39.7740   -0.9800 C.3      12 GLL5        0.0000 
     80 CA        -31.0530  -37.9950   -2.8110 C.3       8 GLP5        0.0000 
     81 CA        -29.2572  -38.4110    0.5767 C.3       4 GLC5        0.0000 
     82 CA        -29.5240  -36.8950    1.6430 C.3       8 GLP5        0.0000 
     83 CA        -31.6960  -40.8838    0.3955 C.3       4 GLC5        0.0000 
     84 CA        -29.5590  -40.0800    0.0010 C.3      12 GLL5        0.0000 
     85 CA        -33.7760  -40.9290    0.6790 C.3       8 GLP5        0.0000 
     86 CA        -29.9688  -43.2890    0.8867 C.3       4 GLC5        0.0000 
     87 CA        -29.6730  -41.5970    0.2230 C.3      12 GLL5        0.0000 
     88 CA        -29.3970  -41.2064    2.1840 C.3       4 GLC5        0.0000 
     89 CA        -29.7930  -40.8630    3.9450 C.3       8 GLP5        0.0000 
     90 CA        -25.4947  -43.9560   -4.4482 C.3       4 GLC5        0.0000 
     91 CA        -23.7660  -44.0380   -5.1470 C.3       8 GLP5        0.0000 
@<TRIPOS>BOND
@<TRIPOS>SUBSTRUCTURE
     1 ALC1       21 GROUP        1 X    ALC  0     ROOT ALC X 1
     2 SEC2        6 GROUP        1 X    SEC  0     **** SEC X 2
     3 ASC3       41 GROUP        1 X    ASC  0     **** ASC X 3
     4 GLC5        1 GROUP        1 X    GLC  0     **** GLC X 6
     5 ALP1       23 GROUP        1 Y    ALP  0     ROOT ALP Y 8
     6 SEP2        8 GROUP        1 Y    SEP  0     **** SEP Y 9
     7 ASP3       43 GROUP        1 Y    ASP  0     **** ASP Y 10
     8 GLP5        3 GROUP        1 Y    GLP  0     **** GLP Y 13
     9 ALL1       22 GROUP        1 Z    ALL  0     ROOT ALL Z 15
    10 SEL2        7 GROUP        1 Z    SEL  0     **** SEL Z 16
    11 ASL3       42 GROUP        1 Z    ASL  0     **** ASL Z 17
    12 GLL5        2 GROUP        1 Z    GLL  0     **** GLL Z 20
@<TRIPOS>SET

