#    Name: 4i0h_1BL_3_ligand
#    Modification time : Tue Mar 25 02:07:40 2014

@<TRIPOS>MOLECULE
4i0h_1BL_3_ligand
   80    82     1     0     0
SMALL
NO_CHARGES


@<TRIPOS>ATOM
      1 C2        -18.6950  -42.2550    0.1580 C.ar      1 1BL501      0.0000 
      2 C3        -19.7910  -42.8890   -0.4120 C.ar      1 1BL501      0.0000 
      3 C5        -18.5330  -42.9190   -2.4830 C.ar      1 1BL501      0.0000 
      4 C4        -19.6980  -43.2040   -1.7560 C.ar      1 1BL501      0.0000 
      5 C10       -22.2390  -42.5510   -0.2620 C.3       1 1BL501      0.0000 
      6 C11       -23.5140  -42.6490    0.5580 C.3       1 1BL501      0.0000 
      7 C12       -24.6960  -41.9470   -0.1200 C.3       1 1BL501      0.0000 
      8 C9        -21.0580  -43.2340    0.4200 C.3       1 1BL501      0.0000 
      9 C1        -17.5470  -41.9830   -0.5590 C.ar      1 1BL501      0.0000 
     10 C6        -17.4330  -42.3230   -1.8890 C.ar      1 1BL501      0.0000 
     11 O24       -22.2130  -40.9430   -2.6010 O.2       1 1BL501      0.0000 
     12 C17       -21.9360  -40.4440   -1.5290 C.2       1 1BL501      0.0000 
     13 C18       -21.5640  -38.9780   -1.5090 C.3       1 1BL501      0.0000 
     14 C19       -20.0310  -38.8850   -1.6380 C.3       1 1BL501      0.0000 
     15 C20       -19.4970  -37.4530   -1.6770 C.3       1 1BL501      0.0000 
     16 O41       -20.1930  -36.7140   -2.6830 O.3       1 1BL501      0.0000 
     17 C21       -19.7720  -36.7050   -0.3920 C.2       1 1BL501      0.0000 
     18 O23       -19.1120  -36.8800    0.6790 O.co2     1 1BL501      0.0000 
     19 O22       -20.7130  -35.9110   -0.4510 O.co2     1 1BL501      0.0000 
     20 N16       -21.9130  -41.1300   -0.3610 N.am      1 1BL501      0.0000 
     21 F8        -18.4860  -43.2020   -3.7790 F         1 1BL501      0.0000 
     22 F7        -16.5350  -41.3630    0.0570 F         1 1BL501      0.0000 
     23 O40       -23.7650  -44.0520    0.6560 O.3       1 1BL501      0.0000 
     24 N13       -25.9850  -42.2140    0.5810 N.4       1 1BL501      0.0000 
     25 C14       -27.2160  -41.9360   -0.1550 C.3       1 1BL501      0.0000 
     26 C29       -27.1280  -40.4440   -0.5290 C.3       1 1BL501      0.0000 
     27 C28       -28.4220  -39.7740   -0.9800 C.3       1 1BL501      0.0000 
     28 C27       -29.5590  -40.0800    0.0010 C.3       1 1BL501      0.0000 
     29 C26       -29.6730  -41.5970    0.2230 C.3       1 1BL501      0.0000 
     30 C25       -28.3860  -42.2610    0.7340 C.3       1 1BL501      0.0000 
     31 C30       -27.2620  -42.8200   -1.4210 C.ar      1 1BL501      0.0000 
     32 C35       -27.3580  -44.2150   -1.2600 C.ar      1 1BL501      0.0000 
     33 C34       -27.3960  -45.0960   -2.3300 C.ar      1 1BL501      0.0000 
     34 C36       -27.4900  -46.6180   -2.1110 C.3       1 1BL501      0.0000 
     35 C39       -26.1450  -47.1330   -1.6880 C.3       1 1BL501      0.0000 
     36 C38       -28.3930  -47.1110   -0.9980 C.3       1 1BL501      0.0000 
     37 C37       -27.9140  -47.3250   -3.4310 C.3       1 1BL501      0.0000 
     38 C33       -27.2810  -44.5710   -3.6470 C.ar      1 1BL501      0.0000 
     39 C32       -27.1660  -43.1770   -3.8520 C.ar      1 1BL501      0.0000 
     40 C31       -27.1460  -42.3020   -2.7360 C.ar      1 1BL501      0.0000 
     41 H         -18.7441  -41.9755    1.1646 H         1 1BL501      0.0000 
     42 H         -20.4930  -43.6554   -2.2382 H         1 1BL501      0.0000 
     43 H         -22.3913  -42.9645   -1.2223 H         1 1BL501      0.0000 
     44 H         -23.3394  -42.2220    1.5166 H         1 1BL501      0.0000 
     45 H         -24.7543  -42.2926   -1.1604 H         1 1BL501      0.0000 
     46 H         -24.4941  -40.8680   -0.1392 H         1 1BL501      0.0000 
     47 H         -20.9356  -42.8522    1.4123 H         1 1BL501      0.0000 
     48 H         -21.1959  -44.2954    0.4176 H         1 1BL501      0.0000 
     49 H         -16.5856  -42.1468   -2.4114 H         1 1BL501      0.0000 
     50 H         -21.8644  -38.5324   -0.5774 H         1 1BL501      0.0000 
     51 H         -22.0166  -38.4697   -2.3417 H         1 1BL501      0.0000 
     52 H         -19.7229  -39.4096   -2.5554 H         1 1BL501      0.0000 
     53 H         -19.5739  -39.4171   -0.7897 H         1 1BL501      0.0000 
     54 H         -18.4512  -37.4606   -1.8609 H         1 1BL501      0.0000 
     55 H         -21.6552  -40.6595    0.5371 H         1 1BL501      0.0000 
     56 H         -26.3654  -40.3304   -1.3323 H         1 1BL501      0.0000 
     57 H         -26.7217  -39.8886    0.3463 H         1 1BL501      0.0000 
     58 H         -28.6943  -40.1411   -1.9670 H         1 1BL501      0.0000 
     59 H         -28.2738  -38.6976   -1.0292 H         1 1BL501      0.0000 
     60 H         -30.4934  -39.7082   -0.4043 H         1 1BL501      0.0000 
     61 H         -29.3557  -39.5956    0.9495 H         1 1BL501      0.0000 
     62 H         -29.9666  -42.0735   -0.7266 H         1 1BL501      0.0000 
     63 H         -30.4838  -41.7901    0.9443 H         1 1BL501      0.0000 
     64 H         -28.1905  -41.9092    1.7492 H         1 1BL501      0.0000 
     65 H         -28.5393  -43.3417    0.7663 H         1 1BL501      0.0000 
     66 H         -27.4022  -44.5956   -0.2859 H         1 1BL501      0.0000 
     67 H         -27.2819  -45.2074   -4.4459 H         1 1BL501      0.0000 
     68 H         -27.0978  -42.8010   -4.7952 H         1 1BL501      0.0000 
     69 H         -27.0478  -41.2964   -2.8799 H         1 1BL501      0.0000 
     70 H         -25.4448  -46.9548   -2.3794 H         1 1BL501      0.0000 
     71 H         -25.8340  -46.7059   -0.8390 H         1 1BL501      0.0000 
     72 H         -26.1578  -48.1206   -1.5317 H         1 1BL501      0.0000 
     73 H         -28.3868  -48.1086   -0.9291 H         1 1BL501      0.0000 
     74 H         -28.1130  -46.7539   -0.1069 H         1 1BL501      0.0000 
     75 H         -29.3430  -46.8329   -1.1398 H         1 1BL501      0.0000 
     76 H         -27.2587  -47.1595   -4.1680 H         1 1BL501      0.0000 
     77 H         -27.9820  -48.3161   -3.3162 H         1 1BL501      0.0000 
     78 H         -28.8049  -47.0055   -3.7538 H         1 1BL501      0.0000 
     79 H         -20.5447  -35.9046   -2.2126 H         1 1BL501      0.0000 
     80 H         -23.1681  -44.3708    1.3923 H         1 1BL501      0.0000 
@<TRIPOS>BOND
     1    2    1 ar   
     2    9    1 ar   
     3   41    1 1    
     4    4    2 ar   
     5    8    2 1    
     6    4    3 ar   
     7   10    3 ar   
     8   21    3 1    
     9   42    4 1    
    10    6    5 1    
    11    8    5 1    
    12   20    5 1    
    13   43    5 1    
    14    7    6 1    
    15   23    6 1    
    16   44    6 1    
    17   24    7 1    
    18   45    7 1    
    19   46    7 1    
    20   47    8 1    
    21   48    8 1    
    22   10    9 ar   
    23   22    9 1    
    24   49   10 1    
    25   12   11 2    
    26   13   12 1    
    27   20   12 am   
    28   14   13 1    
    29   50   13 1    
    30   51   13 1    
    31   15   14 1    
    32   52   14 1    
    33   53   14 1    
    34   16   15 1    
    35   17   15 1    
    36   54   15 1    
    37   79   16 1    
    38   18   17 ar   
    39   19   17 ar   
    40   55   20 1    
    41   80   23 1    
    42   25   24 1    
    43   26   25 1    
    44   30   25 1    
    45   31   25 1    
    46   27   26 1    
    47   56   26 1    
    48   57   26 1    
    49   28   27 1    
    50   58   27 1    
    51   59   27 1    
    52   29   28 1    
    53   60   28 1    
    54   61   28 1    
    55   30   29 1    
    56   62   29 1    
    57   63   29 1    
    58   64   30 1    
    59   65   30 1    
    60   32   31 ar   
    61   40   31 ar   
    62   33   32 ar   
    63   66   32 1    
    64   34   33 1    
    65   38   33 ar   
    66   35   34 1    
    67   36   34 1    
    68   37   34 1    
    69   70   35 1    
    70   71   35 1    
    71   72   35 1    
    72   73   36 1    
    73   74   36 1    
    74   75   36 1    
    75   76   37 1    
    76   77   37 1    
    77   78   37 1    
    78   39   38 ar   
    79   67   38 1    
    80   40   39 ar   
    81   68   39 1    
    82   69   40 1    
@<TRIPOS>SUBSTRUCTURE
     1 1BL501      1 GROUP   
@<TRIPOS>SET

