#    Name: 1kp3_ATP_1_INTS_M
#    Modification time : Tue Mar 25 10:17:20 2014

@<TRIPOS>MOLECULE
1kp3_ATP_1_INTS_M
   69     0     9     0     0
SMALL
NO_CHARGES


@<TRIPOS>ATOM
      1 N          28.1430   23.0780   31.3525 N.am      2 SEC2        0.0000 
      2 N          28.3370   23.2270   32.8820 N.am      8 SEL2        0.0000 
      3 N          27.9490   22.9290   29.8230 N.am      5 SEP2        0.0000 
      4 N          29.4285   22.7910   32.0475 N.am      2 SEC2        0.0000 
      5 N          30.5200   22.3550   31.2130 N.am      5 SEP2        0.0000 
      6 N          25.5430   22.3205   34.9275 N.am      2 SEC2        0.0000 
      7 N          26.9200   22.7820   34.9040 N.am      8 SEL2        0.0000 
      8 N          24.1660   21.8590   34.9510 N.am      5 SEP2        0.0000 
      9 N          26.0365   21.3735   31.3120 N.am      2 SEC2        0.0000 
     10 N          26.2000   21.9260   32.6540 N.am      8 SEL2        0.0000 
     11 N          25.8730   20.8210   29.9700 N.am      5 SEP2        0.0000 
     12 N          24.8535   21.4670   32.1280 N.am      2 SEC2        0.0000 
     13 N          23.5070   21.0080   31.6020 N.am      5 SEP2        0.0000 
     14 N          27.5990   20.9000   39.6000 N.am      2 SEC2        0.0000 
     15 N          28.0980   21.3680   38.3450 N.am      8 SEL2        0.0000 
     16 N          27.1000   20.4320   40.8550 N.am      5 SEP2        0.0000 
     17 N          27.4495   19.6855   39.4135 N.am      2 SEC2        0.0000 
     18 N          27.7990   18.9390   37.9720 N.am      8 SEL2        0.0000 
     19 CA         26.3480   15.6100   37.7710 C.3       3 GLC5        0.0000 
     20 CA         26.7750   17.2130   36.6080 C.3       9 GLL5        0.0000 
     21 CA         25.9210   14.0070   38.9340 C.3       6 GLP5        0.0000 
     22 CA         26.8570   17.0955   33.9510 C.3       3 GLC5        0.0000 
     23 CA         26.1860   18.2110   35.6270 C.3       9 GLL5        0.0000 
     24 CA         27.5280   15.9800   32.2750 C.3       6 GLP5        0.0000 
     25 CA         23.9665   19.7235   35.7770 C.3       3 GLC5        0.0000 
     26 CA         24.7510   17.7610   35.6060 C.3       9 GLL5        0.0000 
     27 CA         23.1820   21.6860   35.9480 C.3       6 GLP5        0.0000 
     28 N          25.4410   15.9955   33.8200 N.am      2 SEC2        0.0000 
     29 N          24.5090   16.6490   34.7590 N.am      8 SEL2        0.0000 
     30 N          26.3730   15.3420   32.8810 N.am      5 SEP2        0.0000 
     31 O          23.3270   16.7990   34.2055 O.2       1 ALC1        0.0000 
     32 O          24.5090   16.6490   34.7590 O.2       7 ALL1        0.0000 
     33 O          22.1450   16.9490   33.6520 O.2       4 ALP1        0.0000 
     34 CA         24.5400   15.7995   38.1960 C.3       3 GLC5        0.0000 
     35 CA         24.4600   17.2970   37.0560 C.3       9 GLL5        0.0000 
     36 CA         24.6200   14.3020   39.3360 C.3       6 GLP5        0.0000 
     37 CA         21.2930   20.8445   37.1850 C.3       3 GLC5        0.0000 
     38 CA         20.8000   19.9040   39.0340 C.3       9 GLL5        0.0000 
     39 CA         21.7860   21.7850   35.3360 C.3       6 GLP5        0.0000 
     40 CA         19.2765   19.0135   40.0490 C.3       3 GLC5        0.0000 
     41 CA         17.7530   18.1230   41.0640 C.3       6 GLP5        0.0000 
     42 CA         20.9210   19.6995   41.1510 C.3       3 GLC5        0.0000 
     43 CA         21.0420   19.4950   43.2680 C.3       6 GLP5        0.0000 
     44 O          19.1190   21.0585   40.3615 O.2       1 ALC1        0.0000 
     45 O          20.4630   20.9230   39.8170 O.2       7 ALL1        0.0000 
     46 O          17.7750   21.1940   40.9060 O.2       4 ALP1        0.0000 
     47 N          18.4700   19.1930   38.7130 N.am      2 SEC2        0.0000 
     48 N          19.8330   19.1580   38.4380 N.am      8 SEL2        0.0000 
     49 N          17.1070   19.2280   38.9880 N.am      5 SEP2        0.0000 
     50 CA         20.8675   16.5110   36.6110 C.3       3 GLC5        0.0000 
     51 CA         20.1750   18.1320   37.6430 C.3       9 GLL5        0.0000 
     52 CA         21.5600   14.8900   35.5790 C.3       6 GLP5        0.0000 
     53 CA         20.2230   18.5565   35.4500 C.3       3 GLC5        0.0000 
     54 CA         20.2710   18.9810   33.2570 C.3       6 GLP5        0.0000 
     55 CA         18.3870   18.7210   37.1340 C.3       3 GLC5        0.0000 
     56 CA         16.5990   19.3100   36.6250 C.3       6 GLP5        0.0000 
     57 CA         18.9640   18.1275   39.3535 C.3       3 GLC5        0.0000 
     58 CA         20.4080   16.6895   39.2490 C.3       3 GLC5        0.0000 
     59 CA         20.6410   15.2470   40.8550 C.3       6 GLP5        0.0000 
     60 CA         19.3040   16.5690   37.8435 C.3       3 GLC5        0.0000 
     61 CA         18.4330   15.0060   38.0440 C.3       6 GLP5        0.0000 
     62 CA         21.9755   16.6890   36.7675 C.3       3 GLC5        0.0000 
     63 CA         22.3910   18.4880   37.9560 C.3       9 GLL5        0.0000 
     64 CA         28.7670   16.1825   35.9287 C.3       3 GLC5        0.0000 
     65 CA         30.1390   14.9260   34.8820 C.3       6 GLP5        0.0000 
     66 CA         25.0198   18.4145   33.7122 C.3       3 GLC5        0.0000 
     67 CA         24.5710   18.8430   31.8080 C.3       6 GLP5        0.0000 
     68 CA         23.0827   16.2095   35.9550 C.3       3 GLC5        0.0000 
     69 CA         22.7320   20.3575   37.1623 C.3       3 GLC5        0.0000 
@<TRIPOS>BOND
@<TRIPOS>SUBSTRUCTURE
     1 ALC1       31 GROUP        1 X    ALC  0     ROOT ALC X 1
     2 SEC2        1 GROUP        1 X    SEC  0     **** SEC X 2
     3 GLC5       19 GROUP        1 X    GLC  0     **** GLC X 6
     4 ALP1       33 GROUP        1 Y    ALP  0     ROOT ALP Y 8
     5 SEP2        3 GROUP        1 Y    SEP  0     **** SEP Y 9
     6 GLP5       21 GROUP        1 Y    GLP  0     **** GLP Y 13
     7 ALL1       32 GROUP        1 Z    ALL  0     ROOT ALL Z 15
     8 SEL2        2 GROUP        1 Z    SEL  0     **** SEL Z 16
     9 GLL5       20 GROUP        1 Z    GLL  0     **** GLL Z 20
@<TRIPOS>SET

