#    Name: 1kp3_ATP_1_ligand
#    Modification time : Tue Mar 25 10:17:20 2014

@<TRIPOS>MOLECULE
1kp3_ATP_1_ligand
   43    45     1     0     0
SMALL
NO_CHARGES


@<TRIPOS>ATOM
      1 PG         27.3210   22.3530   33.5350 P.3       1 ATP457      0.0000 
      2 O1G        28.3370   23.2270   32.8820 O.co2     1 ATP457      0.0000 
      3 O2G        26.9200   22.7820   34.9040 O.co2     1 ATP457      0.0000 
      4 O3G        26.2000   21.9260   32.6540 O.co2     1 ATP457      0.0000 
      5 PB         29.3210   20.6400   34.8480 P.3       1 ATP457      0.0000 
      6 O1B        30.1090   21.8880   35.0960 O.co2     1 ATP457      0.0000 
      7 O2B        30.0440   19.4190   34.3620 O.co2     1 ATP457      0.0000 
      8 O3B        28.1160   20.9820   33.7900 O.3       1 ATP457      0.0000 
      9 PA         28.7060   20.1920   37.6820 P.3       1 ATP457      0.0000 
     10 O1A        30.1270   19.8410   37.9760 O.co2     1 ATP457      0.0000 
     11 O2A        28.0980   21.3680   38.3450 O.co2     1 ATP457      0.0000 
     12 O3A        28.4800   20.3070   36.1120 O.3       1 ATP457      0.0000 
     13 O5'        27.7990   18.9390   37.9720 O.3       1 ATP457      0.0000 
     14 C5'        28.0150   17.6650   37.3430 C.3       1 ATP457      0.0000 
     15 C4'        26.7750   17.2130   36.6080 C.3       1 ATP457      0.0000 
     16 O4'        25.7600   17.0360   37.6110 O.3       1 ATP457      0.0000 
     17 C3'        26.1860   18.2110   35.6270 C.3       1 ATP457      0.0000 
     18 O3'        26.8470   18.0300   34.3770 O.3       1 ATP457      0.0000 
     19 C2'        24.7510   17.7610   35.6060 C.3       1 ATP457      0.0000 
     20 O2'        24.5090   16.6490   34.7590 O.3       1 ATP457      0.0000 
     21 C1'        24.4600   17.2970   37.0560 C.3       1 ATP457      0.0000 
     22 N9         23.7550   18.3460   37.8670 N.pl3     1 ATP457      0.0000 
     23 C8         24.2700   19.3570   38.6620 C.2       1 ATP457      0.0000 
     24 N7         23.3720   20.1200   39.2430 N.2       1 ATP457      0.0000 
     25 C5         22.1730   19.5700   38.7970 C.ar      1 ATP457      0.0000 
     26 C6         20.8000   19.9040   39.0340 C.ar      1 ATP457      0.0000 
     27 N6         20.4630   20.9230   39.8170 N.pl3     1 ATP457      0.0000 
     28 N1         19.8330   19.1580   38.4380 N.ar      1 ATP457      0.0000 
     29 C2         20.1750   18.1320   37.6430 C.ar      1 ATP457      0.0000 
     30 N3         21.4200   17.7060   37.3300 N.ar      1 ATP457      0.0000 
     31 C4         22.3910   18.4880   37.9560 C.ar      1 ATP457      0.0000 
     32 H          28.2752   16.8944   38.0850 H         1 ATP457      0.0000 
     33 H          28.8445   17.7139   36.6207 H         1 ATP457      0.0000 
     34 H          26.9554   16.2859   36.1135 H         1 ATP457      0.0000 
     35 H          26.2610   19.1611   36.0392 H         1 ATP457      0.0000 
     36 H          24.1141   18.5879   35.4159 H         1 ATP457      0.0000 
     37 H          23.8851   16.4030   37.0039 H         1 ATP457      0.0000 
     38 H          25.2678   19.4692   38.7641 H         1 ATP457      0.0000 
     39 H          19.4834   21.0594   39.9644 H         1 ATP457      0.0000 
     40 H          21.2194   21.4616   40.1882 H         1 ATP457      0.0000 
     41 H          19.3493   17.5696   37.1915 H         1 ATP457      0.0000 
     42 H          27.2199   18.9294   34.1489 H         1 ATP457      0.0000 
     43 H          23.9596   17.0119   34.0063 H         1 ATP457      0.0000 
@<TRIPOS>BOND
     1    2    1 ar   
     2    3    1 ar   
     3    4    1 ar   
     4    8    1 1    
     5    6    5 ar   
     6    7    5 ar   
     7    8    5 1    
     8   12    5 1    
     9   10    9 ar   
    10   11    9 ar   
    11   12    9 1    
    12   13    9 1    
    13   14   13 1    
    14   15   14 1    
    15   32   14 1    
    16   33   14 1    
    17   16   15 1    
    18   17   15 1    
    19   34   15 1    
    20   21   16 1    
    21   18   17 1    
    22   19   17 1    
    23   35   17 1    
    24   42   18 1    
    25   20   19 1    
    26   21   19 1    
    27   36   19 1    
    28   43   20 1    
    29   22   21 1    
    30   37   21 1    
    31   23   22 1    
    32   31   22 1    
    33   24   23 2    
    34   38   23 1    
    35   25   24 1    
    36   26   25 ar   
    37   31   25 ar   
    38   27   26 1    
    39   28   26 ar   
    40   39   27 1    
    41   40   27 1    
    42   29   28 ar   
    43   30   29 ar   
    44   41   29 1    
    45   31   30 ar   
@<TRIPOS>SUBSTRUCTURE
     1 ATP457      1 GROUP   
@<TRIPOS>SET

