#    Name: 2JEY_2_CAVITY_N1_ALL.mol2
#    Modification time : Mon Mar 10 22:15:15 2014

@<TRIPOS>MOLECULE
2JEY_2_CAVITY_N1_ALL.mol2
  113     0     6     0     0
SMALL
NO_CHARGES


@<TRIPOS>ATOM
      1 O          13.3411   -6.6681  -33.1669 O.2       2 ALA2        0.0000 
      2 CA         11.3542   -7.2944  -32.7671 C.3       5 GLY6        0.0000 
      3 DU         12.2384   -7.2805  -33.9787 H         6 CUB7        0.0000 
      4 CZ         13.1226   -7.2666  -35.1903 C.ar      4 PHE5        0.0000 
      5 O          14.0068   -7.2527  -36.4019 O.2       2 ALA2        0.0000 
      6 O          14.8911   -7.2388  -37.6135 O.2       2 ALA2        0.0000 
      7 CA         15.7753   -7.2249  -38.8250 C.3       5 GLY6        0.0000 
      8 CZ         10.2515   -7.9067  -33.5789 C.ar      4 PHE5        0.0000 
      9 OG         11.1357   -7.8928  -34.7905 O.2       1 SER1        0.0000 
     10 OG         12.0199   -7.8789  -36.0021 O.2       1 SER1        0.0000 
     11 CZ         12.9041   -7.8650  -37.2137 C.ar      4 PHE5        0.0000 
     12 CZ         13.7884   -7.8512  -38.4252 C.ar      4 PHE5        0.0000 
     13 CZ         14.6726   -7.8373  -39.6368 C.ar      4 PHE5        0.0000 
     14 CZ          9.1487   -8.5191  -34.3907 C.ar      4 PHE5        0.0000 
     15 OG         10.0330   -8.5052  -35.6023 O.2       1 SER1        0.0000 
     16 OG         10.9172   -8.4913  -36.8139 O.2       1 SER1        0.0000 
     17 CZ         11.8014   -8.4774  -38.0254 C.ar      4 PHE5        0.0000 
     18 CZ         12.6856   -8.4635  -39.2370 C.ar      4 PHE5        0.0000 
     19 CZ         13.5699   -8.4496  -40.4486 C.ar      4 PHE5        0.0000 
     20 NZ          8.9302   -9.1176  -36.4140 N.2       3 LYS4        0.0000 
     21 OG          9.8145   -9.1037  -37.6256 O.2       1 SER1        0.0000 
     22 CZ         10.6987   -9.0898  -38.8372 C.ar      4 PHE5        0.0000 
     23 CZ         14.2470  -12.7574  -32.5756 C.ar      4 PHE5        0.0000 
     24 N          12.2601  -13.3837  -32.1758 N.2       2 ALA2        0.0000 
     25 CZ         13.1443  -13.3698  -33.3874 C.ar      4 PHE5        0.0000 
     26 CA         11.1574  -13.9960  -32.9876 C.3       5 GLY6        0.0000 
     27 CZ         12.0416  -13.9821  -34.1992 C.ar      4 PHE5        0.0000 
     28 CA         10.0546  -14.6084  -33.7994 C.3       5 GLY6        0.0000 
     29 CZ         10.9389  -14.5945  -35.0110 C.ar      4 PHE5        0.0000 
     30 OG         11.8231  -14.5806  -36.2226 O.2       1 SER1        0.0000 
     31 CZ         10.7319   -3.1728  -35.0310 C.ar      4 PHE5        0.0000 
     32 CZ          7.8608   -3.8129  -33.4196 C.ar      4 PHE5        0.0000 
     33 CZ          8.7450   -3.7990  -34.6312 C.ar      4 PHE5        0.0000 
     34 OG          9.6292   -3.7851  -35.8428 O.2       1 SER1        0.0000 
     35 CZ          6.7581   -4.4253  -34.2314 C.ar      4 PHE5        0.0000 
     36 DU          7.6423   -4.4114  -35.4430 H         6 CUB7        0.0000 
     37 OG          8.5265   -4.3975  -36.6546 O.2       1 SER1        0.0000 
     38 CZ          5.6553   -5.0377  -35.0432 C.ar      4 PHE5        0.0000 
     39 CZ          6.5396   -5.0238  -36.2548 C.ar      4 PHE5        0.0000 
     40 OG          7.4238   -5.0099  -37.4664 O.2       1 SER1        0.0000 
     41 OG          5.4368   -5.6362  -37.0666 O.2       1 SER1        0.0000 
     42 CA          6.3211   -5.6223  -38.2782 C.3       5 GLY6        0.0000 
     43 CA          5.2183   -6.2346  -39.0899 C.3       5 GLY6        0.0000 
     44 OG          6.1026   -6.2208  -40.3015 O.2       1 SER1        0.0000 
     45 CZ          7.3586   -2.4437  -33.7704 C.ar      4 PHE5        0.0000 
     46 CZ          8.2428   -2.4298  -34.9820 C.ar      4 PHE5        0.0000 
     47 O           9.1271   -2.4159  -36.1936 O.2       2 ALA2        0.0000 
     48 CZ          5.3717   -3.0700  -33.3706 C.ar      4 PHE5        0.0000 
     49 CA          6.2559   -3.0561  -34.5822 C.3       5 GLY6        0.0000 
     50 DU          7.1401   -3.0422  -35.7938 H         6 CUB7        0.0000 
     51 CA          8.0243   -3.0283  -37.0053 C.3       5 GLY6        0.0000 
     52 CZ          5.1532   -3.6684  -35.3940 C.ar      4 PHE5        0.0000 
     53 DU          6.0374   -3.6546  -36.6055 H         6 CUB7        0.0000 
     54 CA          6.9216   -3.6407  -37.8171 C.3       5 GLY6        0.0000 
     55 CA          4.0505   -4.2808  -36.2057 C.3       5 GLY6        0.0000 
     56 CA          4.9347   -4.2669  -37.4173 C.3       5 GLY6        0.0000 
     57 CA          5.8189   -4.2530  -38.6289 C.3       5 GLY6        0.0000 
     58 CZ         11.2341   -4.5420  -34.6802 C.ar      4 PHE5        0.0000 
     59 CZ          9.2471   -5.1683  -34.2804 C.ar      4 PHE5        0.0000 
     60 OG         10.1314   -5.1544  -35.4920 O.2       1 SER1        0.0000 
     61 OG          8.1444   -5.7806  -35.0922 O.2       1 SER1        0.0000 
     62 CZ          7.0417   -6.3930  -35.9040 C.ar      4 PHE5        0.0000 
     63 OG          5.9390   -7.0054  -36.7158 O.2       1 SER1        0.0000 
     64 OG          6.8232   -6.9915  -37.9274 O.2       1 SER1        0.0000 
     65 OG          7.7074   -6.9776  -39.1390 O.2       1 SER1        0.0000 
     66 CA          5.7205   -7.6039  -38.7392 C.3       5 GLY6        0.0000 
     67 OG          6.6047   -7.5900  -39.9508 O.2       1 SER1        0.0000 
     68 CZ         10.8520   -5.9251  -33.1179 C.ar      4 PHE5        0.0000 
     69 CZ         11.7362   -5.9112  -34.3295 C.ar      4 PHE5        0.0000 
     70 CZ         12.6205   -5.8973  -35.5410 C.ar      4 PHE5        0.0000 
     71 CZ          8.8651   -6.5514  -32.7181 C.ar      4 PHE5        0.0000 
     72 CZ          9.7493   -6.5375  -33.9296 C.ar      4 PHE5        0.0000 
     73 OG         10.6335   -6.5236  -35.1412 O.2       1 SER1        0.0000 
     74 CZ          8.6466   -7.1499  -34.7414 C.ar      4 PHE5        0.0000 
     75 CZ          7.5439   -7.7623  -35.5532 C.ar      4 PHE5        0.0000 
     76 OG          6.4411   -8.3746  -36.3650 O.2       1 SER1        0.0000 
     77 CA          7.3254   -8.3607  -37.5766 C.3       5 GLY6        0.0000 
     78 OG          8.2096   -8.3468  -38.7882 O.2       1 SER1        0.0000 
     79 CZ         12.7406   -8.6497  -33.6279 C.ar      4 PHE5        0.0000 
     80 CZ         11.6378   -9.2621  -34.4397 C.ar      4 PHE5        0.0000 
     81 CZ         12.5221   -9.2482  -35.6513 C.ar      4 PHE5        0.0000 
     82 CZ         13.4063   -9.2343  -36.8629 C.ar      4 PHE5        0.0000 
     83 CZ         14.2905   -9.2204  -38.0745 C.ar      4 PHE5        0.0000 
     84 CA         15.1747   -9.2065  -39.2861 C.3       5 GLY6        0.0000 
     85 CA         16.0590   -9.1926  -40.4977 C.3       5 GLY6        0.0000 
     86 CZ         10.5351   -9.8744  -35.2515 C.ar      4 PHE5        0.0000 
     87 CZ         11.4193   -9.8606  -36.4631 C.ar      4 PHE5        0.0000 
     88 CZ         12.3036   -9.8467  -37.6747 C.ar      4 PHE5        0.0000 
     89 CZ         13.1878   -9.8328  -38.8863 C.ar      4 PHE5        0.0000 
     90 CZ         14.0720   -9.8189  -40.0979 C.ar      4 PHE5        0.0000 
     91 NZ         10.3166  -10.4729  -37.2749 N.2       3 LYS4        0.0000 
     92 CZ         11.0373  -11.2437  -34.9007 C.ar      4 PHE5        0.0000 
     93 CZ          4.8146   -1.5146  -39.3305 C.ar      4 PHE5        0.0000 
     94 CA         11.7579  -12.0144  -32.5266 C.3       5 GLY6        0.0000 
     95 CZ         11.5394  -12.6129  -34.5499 C.ar      4 PHE5        0.0000 
     96 CZ          9.5525  -13.2392  -34.1501 C.ar      4 PHE5        0.0000 
     97 NZ         10.4367  -13.2253  -35.3617 N.2       3 LYS4        0.0000 
     98 DU         12.7622  -14.7529  -31.8250 H         6 CUB7        0.0000 
     99 CA         11.6595  -15.3653  -32.6368 C.3       5 GLY6        0.0000 
    100 CA          7.7407   -1.0606  -35.3327 C.3       5 GLY6        0.0000 
    101 OG          8.6249   -1.0467  -36.5443 O.2       1 SER1        0.0000 
    102 CA          5.7537   -1.6868  -34.9329 C.3       5 GLY6        0.0000 
    103 CA          6.6380   -1.6729  -36.1445 C.3       5 GLY6        0.0000 
    104 O           7.5222   -1.6590  -37.3561 O.2       2 ALA2        0.0000 
    105 CZ          4.6510   -2.2992  -35.7447 C.ar      4 PHE5        0.0000 
    106 CZ          5.5352   -2.2853  -36.9563 C.ar      4 PHE5        0.0000 
    107 O           6.4195   -2.2714  -38.1679 O.2       2 ALA2        0.0000 
    108 CZ          4.4325   -2.8977  -37.7681 C.ar      4 PHE5        0.0000 
    109 CZ          5.3168   -2.8838  -38.9797 C.ar      4 PHE5        0.0000 
    110 NZ          6.1358   -0.3037  -36.4953 N.2       3 LYS4        0.0000 
    111 O           7.0200   -0.2898  -37.7069 O.2       2 ALA2        0.0000 
    112 CZ          5.0331   -0.9161  -37.3071 C.ar      4 PHE5        0.0000 
    113 O           5.9173   -0.9022  -38.5187 O.2       2 ALA2        0.0000 
@<TRIPOS>BOND
@<TRIPOS>SUBSTRUCTURE
     1 SER1        9 GROUP   
     2 ALA2        1 GROUP   
     3 LYS4       20 GROUP   
     4 PHE5        4 GROUP   
     5 GLY6        2 GROUP   
     6 CUB7        3 GROUP   
@<TRIPOS>SET

