#    Name: 2jey_HLO_2_INTS_M
#    Modification time : Tue Mar 25 20:37:57 2014

@<TRIPOS>MOLECULE
2jey_HLO_2_INTS_M
   28     0     9     0     0
SMALL
NO_CHARGES


@<TRIPOS>ATOM
      1 N          17.6900   -5.6805  -39.1380 N.am      2 SEC2        0.0000 
      2 N          16.6890   -6.6450  -39.0890 N.am      8 SEL2        0.0000 
      3 N          18.6910   -4.7160  -39.1870 N.am      5 SEP2        0.0000 
      4 O          15.8335   -7.0910  -42.1485 O.2       1 ALC1        0.0000 
      5 O          15.5400   -7.5330  -40.7890 O.2       7 ALL1        0.0000 
      6 O          16.1270   -6.6490  -43.5080 O.2       4 ALP1        0.0000 
      7 CA         15.9510   -5.5220  -37.3690 C.3       3 GLC5        0.0000 
      8 CA         14.5990   -7.3000  -37.2460 C.3       9 GLL5        0.0000 
      9 CA         17.3030   -3.7440  -37.4920 C.3       6 GLP5        0.0000 
     10 CA         11.2415   -7.6680  -37.4945 C.3       3 GLC5        0.0000 
     11 CA         11.6520   -9.2130  -35.9880 C.3       9 GLL5        0.0000 
     12 CA         10.8310   -6.1230  -39.0010 C.3       6 GLP5        0.0000 
     13 CA         12.7165  -10.3160  -35.5010 C.3       3 GLC5        0.0000 
     14 CA         13.7810  -11.4190  -35.0140 C.3       6 GLP5        0.0000 
     15 CA         10.3580  -10.0495  -34.6320 C.3       3 GLC5        0.0000 
     16 CA          9.0640  -10.8860  -33.2760 C.3       6 GLP5        0.0000 
     17 CA          9.4175   -9.6035  -34.0885 C.3       3 GLC5        0.0000 
     18 CA          9.7710   -8.3210  -34.9010 C.3       9 GLL5        0.0000 
     19 N          13.8060   -5.3675  -31.9455 N.am      2 SEC2        0.0000 
     20 N          13.0820   -6.5100  -32.5830 N.am      8 SEL2        0.0000 
     21 N          14.5300   -4.2250  -31.3080 N.am      5 SEP2        0.0000 
     22 N           8.2495   -0.6735  -38.3040 N.am      2 SEC2        0.0000 
     23 N           8.4450   -0.8840  -36.6100 N.am      8 SEL2        0.0000 
     24 N           8.0540   -0.4630  -39.9980 N.am      5 SEP2        0.0000 
     25 N           9.5340   -1.0220  -37.9550 N.am      2 SEC2        0.0000 
     26 N          10.6230   -1.1600  -39.3000 N.am      5 SEP2        0.0000 
     27 N           8.7610    0.3305  -36.3155 N.am      2 SEC2        0.0000 
     28 N           9.0770    1.5450  -36.0210 N.am      5 SEP2        0.0000 
@<TRIPOS>BOND
@<TRIPOS>SUBSTRUCTURE
     1 ALC1        4 GROUP        1 X    ALC  0     ROOT ALC X 1
     2 SEC2        1 GROUP        1 X    SEC  0     **** SEC X 2
     3 GLC5        7 GROUP        1 X    GLC  0     **** GLC X 6
     4 ALP1        6 GROUP        1 Y    ALP  0     ROOT ALP Y 8
     5 SEP2        3 GROUP        1 Y    SEP  0     **** SEP Y 9
     6 GLP5        9 GROUP        1 Y    GLP  0     **** GLP Y 13
     7 ALL1        5 GROUP        1 Z    ALL  0     ROOT ALL Z 15
     8 SEL2        2 GROUP        1 Z    SEL  0     **** SEL Z 16
     9 GLL5        8 GROUP        1 Z    GLL  0     **** GLL Z 20
@<TRIPOS>SET

