#    Name: 2jey_HLO_2_ligand
#    Modification time : Tue Mar 25 20:37:57 2014

@<TRIPOS>MOLECULE
2jey_HLO_2_ligand
   41    42     1     0     0
SMALL
NO_CHARGES


@<TRIPOS>ATOM
      1 O3         16.6890   -6.6450  -39.0890 O.2       1 HLO1545     0.0000 
      2 C14        15.7220   -7.2720  -39.4940 C.2       1 HLO1545     0.0000 
      3 N4         15.5400   -7.5330  -40.7890 N.am      1 HLO1545     0.0000 
      4 C11        14.6730   -7.7680  -38.5540 C.ar      1 HLO1545     0.0000 
      5 C10        13.7420   -8.7020  -39.0120 C.ar      1 HLO1545     0.0000 
      6 C9         12.7490   -9.1650  -38.1490 C.ar      1 HLO1545     0.0000 
      7 N3         12.6880   -8.7010  -36.8900 N.pl3     1 HLO1545     0.0000 
      8 C13        13.5850   -7.7980  -36.4290 C.ar      1 HLO1545     0.0000 
      9 C12        14.5990   -7.3000  -37.2460 C.ar      1 HLO1545     0.0000 
     10 C8         11.6520   -9.2130  -35.9880 C.3       1 HLO1545     0.0000 
     11 O2         10.3830   -8.5870  -36.1620 O.3       1 HLO1545     0.0000 
     12 C7          9.7710   -8.3210  -34.9010 C.3       1 HLO1545     0.0000 
     13 N2          9.2900   -6.9630  -35.0350 N.pl3     1 HLO1545     0.0000 
     14 C2         10.1410   -5.9520  -34.7790 C.ar      1 HLO1545     0.0000 
     15 C1         11.5340   -6.1880  -34.2970 C.2       1 HLO1545     0.0000 
     16 N1         11.7860   -6.3020  -33.0530 N.2       1 HLO1545     0.0000 
     17 O1         13.0820   -6.5100  -32.5830 O.3       1 HLO1545     0.0000 
     18 C3          9.7030   -4.6400  -34.9530 C.ar      1 HLO1545     0.0000 
     19 C4          8.4000   -4.3770  -35.3910 C.ar      1 HLO1545     0.0000 
     20 C5          7.5530   -5.4550  -35.6660 C.ar      1 HLO1545     0.0000 
     21 C6          8.0330   -6.7570  -35.4830 C.ar      1 HLO1545     0.0000 
     22 C22         7.9800   -2.9600  -35.5680 C.2       1 HLO1545     0.0000 
     23 N5          8.6860   -2.2400  -36.3470 N.2       1 HLO1545     0.0000 
     24 O4          8.4450   -0.8840  -36.6100 O.3       1 HLO1545     0.0000 
     25 H          16.2285   -7.1639  -41.4133 H         1 HLO1545     0.0000 
     26 H          14.7314   -8.0744  -41.0193 H         1 HLO1545     0.0000 
     27 H          13.7884   -9.0447  -39.9757 H         1 HLO1545     0.0000 
     28 H          12.0719   -9.8643  -38.4999 H         1 HLO1545     0.0000 
     29 H          13.5313   -7.4566  -35.4444 H         1 HLO1545     0.0000 
     30 H          15.2617   -6.6175  -36.8961 H         1 HLO1545     0.0000 
     31 H          12.0033   -9.0929  -34.9324 H         1 HLO1545     0.0000 
     32 H          11.5632  -10.3189  -36.1338 H         1 HLO1545     0.0000 
     33 H          10.4902   -8.3866  -34.0970 H         1 HLO1545     0.0000 
     34 H           8.9461   -8.9948  -34.7181 H         1 HLO1545     0.0000 
     35 H          12.2401   -6.2455  -35.0606 H         1 HLO1545     0.0000 
     36 H          10.3419   -3.8558  -34.7582 H         1 HLO1545     0.0000 
     37 H           6.6025   -5.2962  -35.9940 H         1 HLO1545     0.0000 
     38 H           7.4040   -7.5513  -35.6984 H         1 HLO1545     0.0000 
     39 H           7.1549   -2.6787  -35.0472 H         1 HLO1545     0.0000 
     40 H          13.4498   -7.2393  -32.0060 H         1 HLO1545     0.0000 
     41 H           7.4837   -0.8401  -36.8817 H         1 HLO1545     0.0000 
@<TRIPOS>BOND
     1    2    1 2    
     2    3    2 am   
     3    4    2 1    
     4   25    3 1    
     5   26    3 1    
     6    5    4 ar   
     7    9    4 ar   
     8    6    5 ar   
     9   27    5 1    
    10    7    6 ar   
    11   28    6 1    
    12    8    7 ar   
    13   10    7 1    
    14    9    8 ar   
    15   29    8 1    
    16   30    9 1    
    17   11   10 1    
    18   31   10 1    
    19   32   10 1    
    20   12   11 1    
    21   13   12 1    
    22   33   12 1    
    23   34   12 1    
    24   14   13 ar   
    25   21   13 ar   
    26   15   14 1    
    27   18   14 ar   
    28   16   15 2    
    29   35   15 1    
    30   17   16 1    
    31   40   17 1    
    32   19   18 ar   
    33   36   18 1    
    34   20   19 ar   
    35   22   19 1    
    36   21   20 ar   
    37   37   20 1    
    38   38   21 1    
    39   23   22 2    
    40   39   22 1    
    41   24   23 1    
    42   41   24 1    
@<TRIPOS>SUBSTRUCTURE
     1 HLO1545     1 GROUP   
@<TRIPOS>SET

