#    Name: 2zgb_21U_1_INTS_M
#    Modification time : Tue Mar 25 10:43:04 2014

@<TRIPOS>MOLECULE
2zgb_21U_1_INTS_M
   63     0     9     0     0
SMALL
NO_CHARGES


@<TRIPOS>ATOM
      1 O          15.8460  -14.9020   24.1065 O.2       1 ALC1        0.0000 
      2 O          16.9520  -15.4520   23.4520 O.2       7 ALL1        0.0000 
      3 O          14.7400  -14.3520   24.7610 O.2       4 ALP1        0.0000 
      4 CA         22.1965  -12.0725   26.8190 C.3       3 GLC5        0.0000 
      5 CA         20.4910  -12.8930   25.9600 C.3       9 GLL5        0.0000 
      6 CA         23.9020  -11.2520   27.6780 C.3       6 GLP5        0.0000 
      7 CA         20.7860  -14.3075   27.5565 C.3       3 GLC5        0.0000 
      8 CA         21.0810  -15.7220   29.1530 C.3       6 GLP5        0.0000 
      9 CA         19.1670  -11.8580   26.6810 C.3       3 GLC5        0.0000 
     10 CA         17.8430  -10.8230   27.4020 C.3       6 GLP5        0.0000 
     11 N          15.7630  -12.2430   24.0460 N.am      2 SEC2        0.0000 
     12 N          16.7270  -12.7840   23.0250 N.am      8 SEL2        0.0000 
     13 N          14.7990  -11.7020   25.0670 N.am      5 SEP2        0.0000 
     14 CA         17.6925  -11.0350   22.7990 C.3       3 GLC5        0.0000 
     15 CA         17.8760  -11.6540   20.7960 C.3       9 GLL5        0.0000 
     16 CA         17.5090  -10.4160   24.8020 C.3       6 GLP5        0.0000 
     17 O          16.3435   -9.5215   21.5170 O.2       1 ALC1        0.0000 
     18 O          15.6640  -10.5860   20.7750 O.2       7 ALL1        0.0000 
     19 O          17.0230   -8.4570   22.2590 O.2       4 ALP1        0.0000 
     20 CA         10.1810  -12.7260   21.9370 C.3       3 GLC5        0.0000 
     21 CA         11.5260  -11.3600   22.8390 C.3       9 GLL5        0.0000 
     22 CA          8.8360  -14.0920   21.0350 C.3       6 GLP5        0.0000 
     23 CA         11.3455   -9.5330   25.7655 C.3       3 GLC5        0.0000 
     24 CA         11.5060  -10.2380   23.6860 C.3       9 GLL5        0.0000 
     25 CA         11.1850   -8.8280   27.8450 C.3       6 GLP5        0.0000 
     26 CA         10.8240   -7.5510   23.2920 C.3       3 GLC5        0.0000 
     27 CA         12.4070   -7.7890   24.4620 C.3       9 GLL5        0.0000 
     28 CA          9.2410   -7.3130   22.1220 C.3       6 GLP5        0.0000 
     29 CA         12.4710   -6.8420   22.9290 C.3       3 GLC5        0.0000 
     30 CA         12.5350   -5.8950   21.3960 C.3       6 GLP5        0.0000 
     31 CA         11.7960   -8.3085   26.1535 C.3       3 GLC5        0.0000 
     32 CA         13.4700   -7.4270   26.4020 C.3       3 GLC5        0.0000 
     33 CA         14.5330   -7.0650   28.3420 C.3       6 GLP5        0.0000 
     34 CA         11.3990   -6.1980   25.2965 C.3       3 GLC5        0.0000 
     35 CA         10.3910   -4.6070   26.1310 C.3       6 GLP5        0.0000 
     36 CA         18.4935  -12.1680   24.7000 C.3       3 GLC5        0.0000 
     37 CA         18.8410  -14.3680   24.6270 C.3       9 GLL5        0.0000 
     38 CA         21.2949  -11.6014   24.3442 C.3       3 GLC5        0.0000 
     39 CA         20.1150  -13.4720   24.5690 C.3       9 GLL5        0.0000 
     40 CA         21.9760   -9.8260   23.5610 C.3       6 GLP5        0.0000 
     41 CA         19.1120  -10.4336   19.0646 C.3       3 GLC5        0.0000 
     42 CA         19.8430  -12.6280   19.7140 C.3       9 GLL5        0.0000 
     43 CA         19.1710   -8.7090   18.2100 C.3       6 GLP5        0.0000 
     44 CA         21.3727  -13.5005   19.9955 C.3       3 GLC5        0.0000 
     45 CA         23.1190  -13.8770   19.7330 C.3       6 GLP5        0.0000 
     46 CA         19.8450  -10.9041   21.3721 C.3       3 GLC5        0.0000 
     47 CA         20.6370   -9.6500   22.8250 C.3       6 GLP5        0.0000 
     48 CA         18.8511  -13.9969   18.9079 C.3       3 GLC5        0.0000 
     49 CA         18.6500  -11.7230   19.4530 C.3       9 GLL5        0.0000 
     50 CA         18.3740  -15.0960   17.6230 C.3       6 GLP5        0.0000 
     51 CA         14.7253   -9.8620   23.1470 C.3       3 GLC5        0.0000 
     52 CA         13.3050  -10.4040   21.5140 C.3       9 GLL5        0.0000 
     53 CA         16.1520   -9.8790   24.3620 C.3       6 GLP5        0.0000 
     54 CA         10.4898  -11.2180   21.0225 C.3       3 GLC5        0.0000 
     55 CA         12.4090  -11.4440   21.7710 C.3       9 GLL5        0.0000 
     56 CA          9.0120  -11.0340   19.7400 C.3       6 GLP5        0.0000 
     57 CA         12.8938  -11.9060   24.0860 C.3       3 GLC5        0.0000 
     58 CA         13.8200  -12.4100   25.8670 C.3       6 GLP5        0.0000 
     59 CA         10.5975   -8.5162   22.8392 C.3       3 GLC5        0.0000 
     60 CA         12.8870  -11.0648   24.7117 C.3       3 GLC5        0.0000 
     61 CA         12.4020   -9.2010   23.4270 C.3       9 GLL5        0.0000 
     62 CA         12.6910   -7.5693   22.1423 C.3       3 GLC5        0.0000 
     63 CA         14.2782   -9.1870   24.1532 C.3       3 GLC5        0.0000 
@<TRIPOS>BOND
@<TRIPOS>SUBSTRUCTURE
     1 ALC1        1 GROUP        1 X    ALC  0     ROOT ALC X 1
     2 SEC2       11 GROUP        1 X    SEC  0     **** SEC X 2
     3 GLC5        4 GROUP        1 X    GLC  0     **** GLC X 6
     4 ALP1        3 GROUP        1 Y    ALP  0     ROOT ALP Y 8
     5 SEP2       13 GROUP        1 Y    SEP  0     **** SEP Y 9
     6 GLP5        6 GROUP        1 Y    GLP  0     **** GLP Y 13
     7 ALL1        2 GROUP        1 Z    ALL  0     ROOT ALL Z 15
     8 SEL2       12 GROUP        1 Z    SEL  0     **** SEL Z 16
     9 GLL5        5 GROUP        1 Z    GLL  0     **** GLL Z 20
@<TRIPOS>SET

