#    Name: 2zgb_21U_1_ligand
#    Modification time : Tue Mar 25 10:43:04 2014

@<TRIPOS>MOLECULE
2zgb_21U_1_ligand
   51    52     1     0     0
SMALL
NO_CHARGES


@<TRIPOS>ATOM
      1 N2         16.9520  -15.4520   23.4520 N.4       1 21U1801     0.0000 
      2 C15        18.1560  -14.6200   23.2580 C.3       1 21U1801     0.0000 
      3 C16        18.8410  -14.3680   24.6270 C.3       1 21U1801     0.0000 
      4 C12        20.1150  -13.4720   24.5690 C.3       1 21U1801     0.0000 
      5 C13        21.3580  -14.2490   24.0210 C.3       1 21U1801     0.0000 
      6 C18        20.4910  -12.8930   25.9600 C.3       1 21U1801     0.0000 
      7 C14        17.7200  -13.3370   22.5570 C.2       1 21U1801     0.0000 
      8 O32        16.7270  -12.7840   23.0250 O.2       1 21U1801     0.0000 
      9 N1         18.3370  -12.8670   21.4540 N.am      1 21U1801     0.0000 
     10 C1         17.8760  -11.6540   20.7960 C.3       1 21U1801     0.0000 
     11 C7         16.3960  -11.6850   20.4790 C.2       1 21U1801     0.0000 
     12 O22        15.9090  -12.6940   19.9660 O.2       1 21U1801     0.0000 
     13 C2         18.6500  -11.7230   19.4530 C.3       1 21U1801     0.0000 
     14 C3         19.8430  -12.6280   19.7140 C.3       1 21U1801     0.0000 
     15 C4         19.4100  -13.6200   20.8020 C.3       1 21U1801     0.0000 
     16 N23        15.6640  -10.5860   20.7750 N.am      1 21U1801     0.0000 
     17 C24        14.2650  -10.5340   20.3250 C.3       1 21U1801     0.0000 
     18 C25        13.3050  -10.4040   21.5140 C.ar      1 21U1801     0.0000 
     19 C26        12.4090  -11.4440   21.7710 C.ar      1 21U1801     0.0000 
     20 C27        11.5260  -11.3600   22.8390 C.ar      1 21U1801     0.0000 
     21 C28        11.5060  -10.2380   23.6860 C.ar      1 21U1801     0.0000 
     22 C29        12.4020   -9.2010   23.4270 C.ar      1 21U1801     0.0000 
     23 C30        13.2920   -9.2860   22.3500 C.ar      1 21U1801     0.0000 
     24 CL21       12.4070   -7.7890   24.4620 Cl        1 21U1801     0.0000 
     25 H          18.8511  -15.1444   22.6193 H         1 21U1801     0.0000 
     26 H          19.1165  -15.3379   25.0688 H         1 21U1801     0.0000 
     27 H          18.1135  -13.8964   25.3054 H         1 21U1801     0.0000 
     28 H          19.9303  -12.6405   23.9012 H         1 21U1801     0.0000 
     29 H          18.1624  -10.7927   21.2913 H         1 21U1801     0.0000 
     30 H          18.9797  -10.7437   19.1922 H         1 21U1801     0.0000 
     31 H          18.0174  -12.1513   18.7100 H         1 21U1801     0.0000 
     32 H          20.6700  -12.0483   20.0713 H         1 21U1801     0.0000 
     33 H          20.0948  -13.1665   18.8228 H         1 21U1801     0.0000 
     34 H          19.0463  -14.4968   20.3380 H         1 21U1801     0.0000 
     35 H          20.2239  -13.7858   21.4550 H         1 21U1801     0.0000 
     36 H          16.0205   -9.7917   21.2901 H         1 21U1801     0.0000 
     37 H          14.0022  -11.4430   19.7715 H         1 21U1801     0.0000 
     38 H          14.1036   -9.6774   19.6603 H         1 21U1801     0.0000 
     39 H          12.4062  -12.2754   21.1634 H         1 21U1801     0.0000 
     40 H          10.8650  -12.1363   23.0221 H         1 21U1801     0.0000 
     41 H          10.8570  -10.1891   24.4613 H         1 21U1801     0.0000 
     42 H          13.9487   -8.5086   22.1724 H         1 21U1801     0.0000 
     43 H          16.7607  -16.0207   22.6520 H         1 21U1801     0.0000 
     44 H          17.0485  -16.0684   24.2335 H         1 21U1801     0.0000 
     45 H          16.1381  -14.8948   23.6168 H         1 21U1801     0.0000 
     46 H          22.1724  -13.6697   23.9863 H         1 21U1801     0.0000 
     47 H          21.5839  -15.0383   24.5919 H         1 21U1801     0.0000 
     48 H          21.2027  -14.5922   23.0947 H         1 21U1801     0.0000 
     49 H          20.6798  -13.6160   26.6245 H         1 21U1801     0.0000 
     50 H          21.3069  -12.3167   25.9142 H         1 21U1801     0.0000 
     51 H          19.7560  -12.3309   26.3393 H         1 21U1801     0.0000 
@<TRIPOS>BOND
     1    2    1 1    
     2   43    1 1    
     3   44    1 1    
     4   45    1 1    
     5    3    2 1    
     6    7    2 1    
     7   25    2 1    
     8    4    3 1    
     9   26    3 1    
    10   27    3 1    
    11    5    4 1    
    12    6    4 1    
    13   28    4 1    
    14   46    5 1    
    15   47    5 1    
    16   48    5 1    
    17   49    6 1    
    18   50    6 1    
    19   51    6 1    
    20    8    7 2    
    21    9    7 am   
    22   10    9 1    
    23   15    9 1    
    24   11   10 1    
    25   13   10 1    
    26   29   10 1    
    27   12   11 2    
    28   16   11 am   
    29   14   13 1    
    30   30   13 1    
    31   31   13 1    
    32   15   14 1    
    33   32   14 1    
    34   33   14 1    
    35   34   15 1    
    36   35   15 1    
    37   17   16 1    
    38   36   16 1    
    39   18   17 1    
    40   37   17 1    
    41   38   17 1    
    42   19   18 ar   
    43   23   18 ar   
    44   20   19 ar   
    45   39   19 1    
    46   21   20 ar   
    47   40   20 1    
    48   22   21 ar   
    49   41   21 1    
    50   23   22 ar   
    51   24   22 1    
    52   42   23 1    
@<TRIPOS>SUBSTRUCTURE
     1 21U1801     1 GROUP   
@<TRIPOS>SET

