#    Name: 1guh_GSB_4_INTS_M
#    Modification time : Tue Mar 25 03:53:50 2014

@<TRIPOS>MOLECULE
1guh_GSB_4_INTS_M
   77     0    15     0     0
SMALL
NO_CHARGES


@<TRIPOS>ATOM
      1 OD1        73.2190   27.3960   66.1330 O.co2     3 ASC3        0.0000 
      2 OD1        74.3910   27.6820   65.1490 O.co2    13 ASL3        0.0000 
      3 OD1        72.0470   27.1100   67.1170 O.co2     8 ASP3        0.0000 
      4 OD1        73.3385   28.4640   66.0065 O.co2     3 ASC3        0.0000 
      5 OD1        72.2860   29.2460   66.8640 O.co2     8 ASP3        0.0000 
      6 O          73.2430   28.3185   64.5035 O.2       1 ALC1        0.0000 
      7 O          74.3910   27.6820   65.1490 O.2      11 ALL1        0.0000 
      8 O          72.0950   28.9550   63.8580 O.2       6 ALP1        0.0000 
      9 CA         73.6170   28.4860   63.0880 C.3       5 GLC5        0.0000 
     10 CA         75.2010   28.7300   64.5590 C.3      15 GLL5        0.0000 
     11 CA         72.0330   28.2420   61.6170 C.3      10 GLP5        0.0000 
     12 N          75.4775   28.3080   61.0730 N.am      2 SEC2        0.0000 
     13 N          75.8480   29.0660   62.3090 N.am     12 SEL2        0.0000 
     14 N          75.1070   27.5500   59.8370 N.am      7 SEP2        0.0000 
     15 N          76.7645   27.8095   61.5250 N.am      2 SEC2        0.0000 
     16 N          77.6810   26.5530   60.7410 N.am      7 SEP2        0.0000 
     17 N          75.5210   27.3075   61.4550 N.am      2 SEC2        0.0000 
     18 N          75.9350   27.0650   63.0730 N.am     12 SEL2        0.0000 
     19 N          76.8080   26.8090   61.9070 N.am      2 SEC2        0.0000 
     20 CA         76.5010   32.3590   64.9555 C.3       5 GLC5        0.0000 
     21 CA         77.0150   30.3380   65.1110 C.3      15 GLL5        0.0000 
     22 CA         75.9870   34.3800   64.8000 C.3      10 GLP5        0.0000 
     23 CA         78.0865   30.3490   63.2120 C.3       5 GLC5        0.0000 
     24 CA         79.1580   30.3600   61.3130 C.3      10 GLP5        0.0000 
     25 O          79.0265   32.1075   64.3035 O.2       1 ALC1        0.0000 
     26 O          78.8450   31.7610   65.6790 O.2      11 ALL1        0.0000 
     27 O          79.2080   32.4540   62.9280 O.2       6 ALP1        0.0000 
     28 N          78.7065   34.7035   64.1755 N.am      2 SEC2        0.0000 
     29 N          79.2660   34.5970   65.6300 N.am     12 SEL2        0.0000 
     30 N          78.1470   34.8100   62.7210 N.am      7 SEP2        0.0000 
     31 CA         77.2760   35.0955   67.1615 C.3       5 GLC5        0.0000 
     32 CA         79.0870   35.7650   68.1190 C.3      15 GLL5        0.0000 
     33 CA         75.4650   34.4260   66.2040 C.3      10 GLP5        0.0000 
     34 CA         80.8665   35.8620   67.3440 C.3       5 GLC5        0.0000 
     35 CA         82.6460   35.9590   66.5690 C.3      10 GLP5        0.0000 
     36 NZ         75.9045   36.3680   69.4490 N.4       4 LYC4        0.0000 
     37 NZ         77.2690   37.0090   69.0600 N.4      14 LYL4        0.0000 
     38 NZ         73.6820   36.5730   69.3310 N.4       9 LYP4        0.0000 
     39 N          75.6815   37.4135   69.0865 N.am      2 SEC2        0.0000 
     40 N          77.2690   37.0090   69.0600 N.am     12 SEL2        0.0000 
     41 N          74.0940   37.8180   69.1130 N.am      7 SEP2        0.0000 
     42 N          75.9045   36.3680   69.4490 N.am      2 SEC2        0.0000 
     43 N          74.5400   35.7270   69.8380 N.am      7 SEP2        0.0000 
     44 NZ         77.1590   34.8610   69.2120 N.4      14 LYL4        0.0000 
     45 N          76.3285   33.7245   68.4875 N.am      2 SEC2        0.0000 
     46 N          77.1590   34.8610   69.2120 N.am     12 SEL2        0.0000 
     47 N          75.4980   32.5880   67.7630 N.am      7 SEP2        0.0000 
     48 CA         82.4685   33.6360   65.2450 C.3       5 GLC5        0.0000 
     49 CA         81.1990   32.3020   65.8000 C.3      15 GLL5        0.0000 
     50 CA         83.7380   34.9700   64.6900 C.3      10 GLP5        0.0000 
     51 CA         80.8245   28.9885   65.1910 C.3       5 GLC5        0.0000 
     52 CA         81.7360   30.5940   65.6960 C.3      15 GLL5        0.0000 
     53 CA         79.9130   27.3830   64.6860 C.3      10 GLP5        0.0000 
     54 CA         83.4460   32.4355   67.1210 C.3       5 GLC5        0.0000 
     55 CA         82.4530   30.4470   67.3390 C.3      15 GLL5        0.0000 
     56 CA         84.4390   34.4240   66.9030 C.3      10 GLP5        0.0000 
     57 CA         87.2995   31.0970   68.1730 C.3       5 GLC5        0.0000 
     58 CA         86.0220   29.3720   68.0610 C.3      15 GLL5        0.0000 
     59 CA         88.5770   32.8220   68.2850 C.3      10 GLP5        0.0000 
     60 CA         85.3900   27.2920   65.2730 C.3       5 GLC5        0.0000 
     61 CA         84.7880   27.4490   67.4260 C.3      15 GLL5        0.0000 
     62 CA         85.9920   27.1350   63.1200 C.3      10 GLP5        0.0000 
     63 CA         84.5555   25.6040   66.9990 C.3       5 GLC5        0.0000 
     64 CA         84.3230   23.7590   66.5720 C.3      10 GLP5        0.0000 
     65 CA         83.9325   26.3070   69.1180 C.3       5 GLC5        0.0000 
     66 CA         83.0770   25.1650   70.8100 C.3      10 GLP5        0.0000 
     67 CA         82.4335   27.5880   65.6530 C.3       5 GLC5        0.0000 
     68 CA         83.6580   28.2330   67.2300 C.3      15 GLL5        0.0000 
     69 CA         81.2090   26.9430   64.0760 C.3      10 GLP5        0.0000 
     70 CA         83.2845   26.1765   66.6840 C.3       5 GLC5        0.0000 
     71 CA         82.9110   24.1200   66.1380 C.3      10 GLP5        0.0000 
     72 CA         78.2970   28.5383   64.9915 C.3       5 GLC5        0.0000 
     73 CA         76.3470   29.0490   65.4830 C.3      15 GLL5        0.0000 
     74 CA         82.2572   31.5100   63.9070 C.3       5 GLC5        0.0000 
     75 CA         83.0470   31.5720   62.0660 C.3      10 GLP5        0.0000 
     76 CA         87.8802   28.3945   68.1463 C.3       5 GLC5        0.0000 
     77 CA         89.7620   28.0980   68.3400 C.3      10 GLP5        0.0000 
@<TRIPOS>BOND
@<TRIPOS>SUBSTRUCTURE
     1 ALC1        6 GROUP        1 X    ALC  0     ROOT ALC X 1
     2 SEC2       12 GROUP        1 X    SEC  0     **** SEC X 2
     3 ASC3        1 GROUP        1 X    ASC  0     **** ASC X 3
     4 LYC4       36 GROUP        1 X    LYC  0     **** LYC X 4
     5 GLC5        9 GROUP        1 X    GLC  0     **** GLC X 6
     6 ALP1        8 GROUP        1 Y    ALP  0     ROOT ALP Y 8
     7 SEP2       14 GROUP        1 Y    SEP  0     **** SEP Y 9
     8 ASP3        3 GROUP        1 Y    ASP  0     **** ASP Y 10
     9 LYP4       38 GROUP        1 Y    LYP  0     **** LYP Y 11
    10 GLP5       11 GROUP        1 Y    GLP  0     **** GLP Y 13
    11 ALL1        7 GROUP        1 Z    ALL  0     ROOT ALL Z 15
    12 SEL2       13 GROUP        1 Z    SEL  0     **** SEL Z 16
    13 ASL3        2 GROUP        1 Z    ASL  0     **** ASL Z 17
    14 LYL4       37 GROUP        1 Z    LYL  0     **** LYL Z 18
    15 GLL5       10 GROUP        1 Z    GLL  0     **** GLL Z 20
@<TRIPOS>SET

