#    Name: 1guh_GSB_4_ligand
#    Modification time : Tue Mar 25 03:53:50 2014

@<TRIPOS>MOLECULE
1guh_GSB_4_ligand
   49    49     1     0     0
SMALL
NO_CHARGES


@<TRIPOS>ATOM
      1 N1         74.3910   27.6820   65.1490 N.4       1 GSB223      0.0000 
      2 CA1        75.2010   28.7300   64.5590 C.3       1 GSB223      0.0000 
      3 C1         75.7160   28.2590   63.2170 C.2       1 GSB223      0.0000 
      4 O11        75.8480   29.0660   62.3090 O.co2     1 GSB223      0.0000 
      5 O12        75.9350   27.0650   63.0730 O.co2     1 GSB223      0.0000 
      6 CB1        76.3470   29.0490   65.4830 C.3       1 GSB223      0.0000 
      7 CG1        77.0150   30.3380   65.1110 C.3       1 GSB223      0.0000 
      8 CD1        78.0020   30.8330   66.1430 C.2       1 GSB223      0.0000 
      9 OE1        77.9970   30.4150   67.3010 O.2       1 GSB223      0.0000 
     10 N2         78.8450   31.7610   65.6790 N.am      1 GSB223      0.0000 
     11 CA2        79.8630   32.4200   66.4730 C.3       1 GSB223      0.0000 
     12 C2         79.5030   33.8930   66.6190 C.2       1 GSB223      0.0000 
     13 O2         79.2660   34.5970   65.6300 O.2       1 GSB223      0.0000 
     14 N3         79.4880   34.3860   67.8560 N.am      1 GSB223      0.0000 
     15 CA3        79.0870   35.7650   68.1190 C.3       1 GSB223      0.0000 
     16 C3         77.7170   35.8860   68.8080 C.2       1 GSB223      0.0000 
     17 O31        77.2690   37.0090   69.0600 O.co2     1 GSB223      0.0000 
     18 O32        77.1590   34.8610   69.2120 O.co2     1 GSB223      0.0000 
     19 CB2        81.1990   32.3020   65.8000 C.3       1 GSB223      0.0000 
     20 SG2        81.7360   30.5940   65.6960 S.3       1 GSB223      0.0000 
     21 C'         82.4530   30.4470   67.3390 C.3       1 GSB223      0.0000 
     22 C1'        83.7110   29.5980   67.4540 C.ar      1 GSB223      0.0000 
     23 C2'        84.9010   30.1690   67.8670 C.ar      1 GSB223      0.0000 
     24 C3'        86.0220   29.3720   68.0610 C.ar      1 GSB223      0.0000 
     25 C4'        85.9750   28.0100   67.8440 C.ar      1 GSB223      0.0000 
     26 C5'        84.7880   27.4490   67.4260 C.ar      1 GSB223      0.0000 
     27 C6'        83.6580   28.2330   67.2300 C.ar      1 GSB223      0.0000 
     28 H          74.6130   29.6193   64.4108 H         1 GSB223      0.0000 
     29 H          77.0795   28.2321   65.4457 H         1 GSB223      0.0000 
     30 H          75.9734   29.1134   66.5133 H         1 GSB223      0.0000 
     31 H          76.2455   31.1166   64.9500 H         1 GSB223      0.0000 
     32 H          77.5401   30.2134   64.1450 H         1 GSB223      0.0000 
     33 H          78.8019   32.0677   64.6637 H         1 GSB223      0.0000 
     34 H          79.9214   31.9890   67.4547 H         1 GSB223      0.0000 
     35 H          79.7566   33.8242   68.6859 H         1 GSB223      0.0000 
     36 H          79.0411   36.3459   67.1775 H         1 GSB223      0.0000 
     37 H          79.8315   36.2736   68.7618 H         1 GSB223      0.0000 
     38 H          82.0019   32.7640   66.3417 H         1 GSB223      0.0000 
     39 H          81.1968   32.6065   64.7710 H         1 GSB223      0.0000 
     40 H          81.6189   30.0560   67.9240 H         1 GSB223      0.0000 
     41 H          82.6144   31.4896   67.6178 H         1 GSB223      0.0000 
     42 H          84.9587   31.1836   68.0312 H         1 GSB223      0.0000 
     43 H          86.9084   29.8122   68.3746 H         1 GSB223      0.0000 
     44 H          86.8043   27.4301   67.9906 H         1 GSB223      0.0000 
     45 H          84.7322   26.4279   67.2540 H         1 GSB223      0.0000 
     46 H          82.7790   27.7951   66.9170 H         1 GSB223      0.0000 
     47 H          74.4263   27.7033   66.1482 H         1 GSB223      0.0000 
     48 H          73.4292   27.7645   64.8879 H         1 GSB223      0.0000 
     49 H          74.6950   26.7728   64.8643 H         1 GSB223      0.0000 
@<TRIPOS>BOND
     1    2    1 1    
     2   47    1 1    
     3   48    1 1    
     4   49    1 1    
     5    3    2 1    
     6    6    2 1    
     7   28    2 1    
     8    4    3 ar   
     9    5    3 ar   
    10    7    6 1    
    11   29    6 1    
    12   30    6 1    
    13    8    7 1    
    14   31    7 1    
    15   32    7 1    
    16    9    8 2    
    17   10    8 am   
    18   11   10 1    
    19   33   10 1    
    20   12   11 1    
    21   19   11 1    
    22   34   11 1    
    23   13   12 2    
    24   14   12 am   
    25   15   14 1    
    26   35   14 1    
    27   16   15 1    
    28   36   15 1    
    29   37   15 1    
    30   17   16 ar   
    31   18   16 ar   
    32   20   19 1    
    33   38   19 1    
    34   39   19 1    
    35   21   20 1    
    36   22   21 1    
    37   40   21 1    
    38   41   21 1    
    39   23   22 ar   
    40   27   22 ar   
    41   24   23 ar   
    42   42   23 1    
    43   25   24 ar   
    44   43   24 1    
    45   26   25 ar   
    46   44   25 1    
    47   27   26 ar   
    48   45   26 1    
    49   46   27 1    
@<TRIPOS>SUBSTRUCTURE
     1 GSB223      1 GROUP   
@<TRIPOS>SET

