#    Name: 1vfr_FMN_1_INTS_M
#    Modification time : Tue Mar 25 07:48:23 2014

@<TRIPOS>MOLECULE
1vfr_FMN_1_INTS_M
   89     0    12     0     0
SMALL
NO_CHARGES


@<TRIPOS>ATOM
      1 N          60.0755   33.6825   18.0505 N.am      2 SEC2        0.0000 
      2 N          59.5290   33.1240   19.1810 N.am     10 SEL2        0.0000 
      3 N          60.6220   34.2410   16.9200 N.am      6 SEP2        0.0000 
      4 N          58.6125   34.0045   19.7825 N.am      2 SEC2        0.0000 
      5 N          57.6960   34.8850   20.3840 N.am      6 SEP2        0.0000 
      6 O          59.0275   32.5180   21.8380 O.2       1 ALC1        0.0000 
      7 O          60.0650   31.7830   20.9840 O.2       9 ALL1        0.0000 
      8 O          57.9900   33.2530   22.6920 O.2       5 ALP1        0.0000 
      9 N          59.6620   31.2645   23.5935 N.am      2 SEC2        0.0000 
     10 N          60.6150   30.5250   22.7790 N.am     10 SEL2        0.0000 
     11 N          58.7090   32.0040   24.4080 N.am      6 SEP2        0.0000 
     12 N          60.5865   29.0100   23.3060 N.am      2 SEC2        0.0000 
     13 N          60.5580   27.4950   23.8330 N.am      6 SEP2        0.0000 
     14 N          60.8095   29.8975   24.1730 N.am      2 SEC2        0.0000 
     15 N          61.0040   29.2700   25.5670 N.am      6 SEP2        0.0000 
     16 N          61.1520   28.0390   22.4480 N.am      2 SEC2        0.0000 
     17 N          61.7460   28.5830   21.0630 N.am     10 SEL2        0.0000 
     18 CA         60.2840   27.7220   21.4210 C.3       4 GLC5        0.0000 
     19 CA         62.0810   27.5630   20.2230 C.3      12 GLL5        0.0000 
     20 CA         58.4870   27.8810   22.6190 C.3       8 GLP5        0.0000 
     21 CA         62.4485   27.0995   22.3285 C.3       4 GLC5        0.0000 
     22 CA         62.8160   26.6360   24.4340 C.3       8 GLP5        0.0000 
     23 CA         64.3200   26.2745   20.7230 C.3       4 GLC5        0.0000 
     24 CA         62.4030   26.3520   20.7530 C.3      12 GLL5        0.0000 
     25 CA         66.2370   26.1970   20.6930 C.3       8 GLP5        0.0000 
     26 CA         63.2365   22.2455   21.2955 C.3       4 GLC5        0.0000 
     27 CA         62.9520   23.9360   20.4520 C.3      12 GLL5        0.0000 
     28 CA         63.5210   20.5550   22.1390 C.3       8 GLP5        0.0000 
     29 CA         61.1585   23.5625   21.6840 C.3       4 GLC5        0.0000 
     30 CA         59.3650   23.1890   22.9160 C.3       8 GLP5        0.0000 
     31 CA         64.5945   25.0665   20.5725 C.3       4 GLC5        0.0000 
     32 CA         62.4605   24.3700   15.4675 C.3       4 GLC5        0.0000 
     33 CA         62.5430   24.3070   17.5040 C.3      12 GLL5        0.0000 
     34 CA         62.3780   24.4330   13.4310 C.3       8 GLP5        0.0000 
     35 CA         62.5045   22.5765   17.3195 C.3       4 GLC5        0.0000 
     36 CA         62.4660   20.8460   17.1350 C.3       8 GLP5        0.0000 
     37 CA         60.1640   30.1815   16.3435 C.3       4 GLC5        0.0000 
     38 CA         61.6920   29.3030   16.9820 C.3      12 GLL5        0.0000 
     39 CA         58.6360   31.0600   15.7050 C.3       8 GLP5        0.0000 
     40 CA         61.0110   29.7605   14.5510 C.3       4 GLC5        0.0000 
     41 CA         62.9290   28.9040   14.8110 C.3      12 GLL5        0.0000 
     42 CA         59.0930   30.6170   14.2910 C.3       8 GLP5        0.0000 
     43 CA         63.9770   26.2865   12.8370 C.3       4 GLC5        0.0000 
     44 CA         64.1290   28.5190   12.6380 C.3      12 GLL5        0.0000 
     45 CA         63.8250   24.0540   13.0360 C.3       8 GLP5        0.0000 
     46 NZ         61.2115   29.4620    9.3830 N.4       3 LYC4        0.0000 
     47 NZ         61.1920   30.2180   11.0680 N.4      11 LYL4        0.0000 
     48 NZ         61.2310   28.7060    7.6980 N.4       7 LYP4        0.0000 
     49 N          59.7495   30.2060   11.5095 N.am      2 SEC2        0.0000 
     50 N          61.1920   30.2180   11.0680 N.am     10 SEL2        0.0000 
     51 N          58.3070   30.1940   11.9510 N.am      6 SEP2        0.0000 
     52 NZ         60.0680   27.1785   12.2260 N.4       3 LYC4        0.0000 
     53 NZ         61.1520   28.1050   12.4950 N.4      11 LYL4        0.0000 
     54 NZ         59.1260   25.5030   10.8760 N.4       7 LYP4        0.0000 
     55 N          60.0680   27.1785   12.2260 N.am      2 SEC2        0.0000 
     56 N          61.1520   28.1050   12.4950 N.am     10 SEL2        0.0000 
     57 N          58.9840   26.2520   11.9570 N.am      6 SEP2        0.0000 
     58 N          60.4315   28.7135   13.4350 N.am      2 SEC2        0.0000 
     59 N          59.7110   29.3220   14.3750 N.am      6 SEP2        0.0000 
     60 NZ         61.1905   26.8325   10.2195 N.4       3 LYC4        0.0000 
     61 NZ         62.1510   28.0270   10.2870 N.4      11 LYL4        0.0000 
     62 NZ         61.6910   28.3665    8.9925 N.4       3 LYC4        0.0000 
     63 NZ         63.1770   27.1010   10.0975 N.4       3 LYC4        0.0000 
     64 NZ         65.4170   26.6390    9.6240 N.4       7 LYP4        0.0000 
     65 N          61.1905   26.8325   10.2195 N.am      2 SEC2        0.0000 
     66 N          62.1510   28.0270   10.2870 N.am     10 SEL2        0.0000 
     67 N          60.2300   25.6380   10.1520 N.am      6 SEP2        0.0000 
     68 N          61.6910   28.3665    8.9925 N.am      2 SEC2        0.0000 
     69 N          61.2310   28.7060    7.6980 N.am      6 SEP2        0.0000 
     70 N          63.1770   27.1010   10.0975 N.am      2 SEC2        0.0000 
     71 N          64.2030   26.1750    9.9080 N.am      6 SEP2        0.0000 
     72 CA         60.9371   24.7595   19.9765 C.3       4 GLC5        0.0000 
     73 CA         59.1420   24.6390   19.5670 C.3       8 GLP5        0.0000 
     74 CA         62.8871   25.0150   22.2715 C.3       4 GLC5        0.0000 
     75 CA         62.6220   25.2960   19.8870 C.3      12 GLL5        0.0000 
     76 CA         63.0420   25.1500   24.1570 C.3       8 GLP5        0.0000 
     77 CA         60.8320   24.7645   18.7807 C.3       4 GLC5        0.0000 
     78 CA         62.5010   25.4730   18.4850 C.3      12 GLL5        0.0000 
     79 CA         64.1925   24.6555   17.1052 C.3       4 GLC5        0.0000 
     80 CA         65.8630   24.4210   16.2160 C.3       8 GLP5        0.0000 
     81 CA         64.2451   25.7569   18.8080 C.3       4 GLC5        0.0000 
     82 CA         65.9380   26.6680   19.2710 C.3       8 GLP5        0.0000 
     83 CA         60.4239   26.4434   18.6724 C.3       4 GLC5        0.0000 
     84 CA         62.2570   26.6960   17.9680 C.3      12 GLL5        0.0000 
     85 CA         58.6910   25.7060   18.6000 C.3       8 GLP5        0.0000 
     86 CA         64.0474   26.9244   19.0079 C.3       4 GLC5        0.0000 
     87 CA         66.1540   29.2497   13.5743 C.3       4 GLC5        0.0000 
     88 CA         64.3150   28.9300   14.1010 C.3      12 GLL5        0.0000 
     89 CA         68.0860   29.7750   13.7790 C.3       8 GLP5        0.0000 
@<TRIPOS>BOND
@<TRIPOS>SUBSTRUCTURE
     1 ALC1        6 GROUP        1 X    ALC  0     ROOT ALC X 1
     2 SEC2        1 GROUP        1 X    SEC  0     **** SEC X 2
     3 LYC4       46 GROUP        1 X    LYC  0     **** LYC X 4
     4 GLC5       18 GROUP        1 X    GLC  0     **** GLC X 6
     5 ALP1        8 GROUP        1 Y    ALP  0     ROOT ALP Y 8
     6 SEP2        3 GROUP        1 Y    SEP  0     **** SEP Y 9
     7 LYP4       48 GROUP        1 Y    LYP  0     **** LYP Y 11
     8 GLP5       20 GROUP        1 Y    GLP  0     **** GLP Y 13
     9 ALL1        7 GROUP        1 Z    ALL  0     ROOT ALL Z 15
    10 SEL2        2 GROUP        1 Z    SEL  0     **** SEL Z 16
    11 LYL4       47 GROUP        1 Z    LYL  0     **** LYL Z 18
    12 GLL5       19 GROUP        1 Z    GLL  0     **** GLL Z 20
@<TRIPOS>SET

