#    Name: 1vfr_FMN_1_ligand
#    Modification time : Tue Mar 25 07:48:23 2014

@<TRIPOS>MOLECULE
1vfr_FMN_1_ligand
   50    52     1     0     0
SMALL
NO_CHARGES


@<TRIPOS>ATOM
      1 N1         60.6340   31.1670   18.7990 N.2       1 FMN454      0.0000 
      2 C2         59.9490   32.0660   19.6070 C.2       1 FMN454      0.0000 
      3 O2         59.5290   33.1240   19.1810 O.2       1 FMN454      0.0000 
      4 N3         60.0650   31.7830   20.9840 N.am      1 FMN454      0.0000 
      5 C4         60.6410   30.6540   21.5460 C.2       1 FMN454      0.0000 
      6 O4         60.6150   30.5250   22.7790 O.2       1 FMN454      0.0000 
      7 C4A        61.2650   29.7680   20.5660 C.2       1 FMN454      0.0000 
      8 N5         61.7460   28.5830   21.0630 N.2       1 FMN454      0.0000 
      9 C5A        62.0810   27.5630   20.2230 C.ar      1 FMN454      0.0000 
     10 C6         62.4030   26.3520   20.7530 C.ar      1 FMN454      0.0000 
     11 C7         62.6220   25.2960   19.8870 C.ar      1 FMN454      0.0000 
     12 C7M        62.9520   23.9360   20.4520 C.3       1 FMN454      0.0000 
     13 C8         62.5010   25.4730   18.4850 C.ar      1 FMN454      0.0000 
     14 C8M        62.5430   24.3070   17.5040 C.3       1 FMN454      0.0000 
     15 C9         62.2570   26.6960   17.9680 C.ar      1 FMN454      0.0000 
     16 C9A        62.0320   27.7680   18.8200 C.ar      1 FMN454      0.0000 
     17 N10        61.6620   28.9880   18.3320 N.pl3     1 FMN454      0.0000 
     18 C10        61.2150   29.9790   19.1630 C.2       1 FMN454      0.0000 
     19 C1'        61.6920   29.3030   16.9820 C.3       1 FMN454      0.0000 
     20 C2'        63.0640   29.2420   16.3220 C.3       1 FMN454      0.0000 
     21 O2'        63.7040   30.4590   16.5510 O.3       1 FMN454      0.0000 
     22 C3'        62.9290   28.9040   14.8110 C.3       1 FMN454      0.0000 
     23 O3'        62.3890   27.5740   14.7130 O.3       1 FMN454      0.0000 
     24 C4'        64.3150   28.9300   14.1010 C.3       1 FMN454      0.0000 
     25 O4'        64.7640   30.3170   14.0890 O.3       1 FMN454      0.0000 
     26 C5'        64.1290   28.5190   12.6380 C.3       1 FMN454      0.0000 
     27 O5'        63.0940   29.3400   11.9740 O.3       1 FMN454      0.0000 
     28 P          61.6880   28.8730   11.3630 P.3       1 FMN454      0.0000 
     29 O1P        61.1920   30.2180   11.0680 O.co2     1 FMN454      0.0000 
     30 O2P        61.1520   28.1050   12.4950 O.co2     1 FMN454      0.0000 
     31 O3P        62.1510   28.0270   10.2870 O.co2     1 FMN454      0.0000 
     32 H          59.6662   32.5181   21.6537 H         1 FMN454      0.0000 
     33 H          62.4835   26.2154   21.7631 H         1 FMN454      0.0000 
     34 H          62.2343   26.8505   16.9469 H         1 FMN454      0.0000 
     35 H          61.2871   30.3356   16.7828 H         1 FMN454      0.0000 
     36 H          61.0172   28.6314   16.3792 H         1 FMN454      0.0000 
     37 H          63.6026   28.4128   16.7901 H         1 FMN454      0.0000 
     38 H          62.2944   29.6215   14.3557 H         1 FMN454      0.0000 
     39 H          64.9737   28.2969   14.5817 H         1 FMN454      0.0000 
     40 H          63.8521   27.4583   12.6102 H         1 FMN454      0.0000 
     41 H          65.0916   28.6277   12.1242 H         1 FMN454      0.0000 
     42 H          63.0875   23.2570   19.7305 H         1 FMN454      0.0000 
     43 H          63.7893   23.9541   20.9985 H         1 FMN454      0.0000 
     44 H          62.2228   23.5929   21.0441 H         1 FMN454      0.0000 
     45 H          63.4047   23.8030   17.5628 H         1 FMN454      0.0000 
     46 H          61.8077   23.6512   17.6749 H         1 FMN454      0.0000 
     47 H          62.4473   24.6145   16.5573 H         1 FMN454      0.0000 
     48 H          64.1895   30.6601   15.7002 H         1 FMN454      0.0000 
     49 H          61.8759   27.5657   13.8547 H         1 FMN454      0.0000 
     50 H          64.4177   30.6936   13.2298 H         1 FMN454      0.0000 
@<TRIPOS>BOND
     1    2    1 1    
     2   18    1 2    
     3    3    2 2    
     4    4    2 am   
     5    5    4 am   
     6   32    4 1    
     7    6    5 2    
     8    7    5 1    
     9    8    7 2    
    10   18    7 1    
    11    9    8 1    
    12   10    9 ar   
    13   16    9 ar   
    14   11   10 ar   
    15   33   10 1    
    16   12   11 1    
    17   13   11 ar   
    18   42   12 1    
    19   43   12 1    
    20   44   12 1    
    21   14   13 1    
    22   15   13 ar   
    23   45   14 1    
    24   46   14 1    
    25   47   14 1    
    26   16   15 ar   
    27   34   15 1    
    28   17   16 1    
    29   18   17 1    
    30   19   17 1    
    31   20   19 1    
    32   35   19 1    
    33   36   19 1    
    34   21   20 1    
    35   22   20 1    
    36   37   20 1    
    37   48   21 1    
    38   23   22 1    
    39   24   22 1    
    40   38   22 1    
    41   49   23 1    
    42   25   24 1    
    43   26   24 1    
    44   39   24 1    
    45   50   25 1    
    46   27   26 1    
    47   40   26 1    
    48   41   26 1    
    49   28   27 1    
    50   29   28 ar   
    51   30   28 ar   
    52   31   28 ar   
@<TRIPOS>SUBSTRUCTURE
     1 FMN454      1 GROUP   
@<TRIPOS>SET

