#    Name: 1ps0_NAP_1_INTS_M
#    Modification time : Mon Mar 24 22:12:17 2014

@<TRIPOS>MOLECULE
1ps0_NAP_1_INTS_M
  105     0    12     0     0
SMALL
NO_CHARGES


@<TRIPOS>ATOM
      1 N          20.4050   46.5370   51.1785 N.am      2 SEC2        0.0000 
      2 N          21.6540   47.3360   50.8430 N.am     10 SEL2        0.0000 
      3 N          19.1560   45.7380   51.5140 N.am      6 SEP2        0.0000 
      4 CA         23.6805   50.0170   54.6000 C.3       4 GLC5        0.0000 
      5 CA         22.1350   49.5820   53.9040 C.3      12 GLL5        0.0000 
      6 CA         25.2260   50.4520   55.2960 C.3       8 GLP5        0.0000 
      7 N          22.4890   49.8510   56.5640 N.am      2 SEC2        0.0000 
      8 N          21.0840   50.2190   56.0030 N.am     10 SEL2        0.0000 
      9 N          23.8940   49.4830   57.1250 N.am      6 SEP2        0.0000 
     10 CA         21.3580   50.0955   57.5675 C.3       4 GLC5        0.0000 
     11 CA         20.4800   51.4460   56.3850 C.3      12 GLL5        0.0000 
     12 CA         22.2360   48.7450   58.7500 C.3       8 GLP5        0.0000 
     13 CA         21.9815   56.1545   59.7375 C.3       4 GLC5        0.0000 
     14 CA         23.0490   55.0640   58.4310 C.3      12 GLL5        0.0000 
     15 CA         20.9140   57.2450   61.0440 C.3       8 GLP5        0.0000 
     16 O          24.6530   56.6190   59.6630 O.2       1 ALC1        0.0000 
     17 O          23.9660   56.0500   58.3570 O.2       9 ALL1        0.0000 
     18 O          25.3400   57.1880   60.9690 O.2       5 ALP1        0.0000 
     19 N          22.6870   55.7865   61.0265 N.am      2 SEC2        0.0000 
     20 N          22.4560   54.8820   59.6900 N.am     10 SEL2        0.0000 
     21 N          22.9180   56.6910   62.3630 N.am      6 SEP2        0.0000 
     22 CA         21.7315   51.8140   59.8885 C.3       4 GLC5        0.0000 
     23 CA         21.4830   53.8840   59.8960 C.3      12 GLL5        0.0000 
     24 CA         21.9800   49.7440   59.8810 C.3       8 GLP5        0.0000 
     25 CA         21.1985   55.5645   60.4700 C.3       4 GLC5        0.0000 
     26 CA         21.3385   53.2005   61.4870 C.3       4 GLC5        0.0000 
     27 CA         21.1940   52.5170   63.0780 C.3       8 GLP5        0.0000 
     28 CA         21.8140   51.4825   58.7705 C.3       4 GLC5        0.0000 
     29 CA         21.6480   53.2210   57.6600 C.3      12 GLL5        0.0000 
     30 N          25.1210   44.7950   50.9345 N.am      2 SEC2        0.0000 
     31 N          23.8840   44.9510   51.7550 N.am     10 SEL2        0.0000 
     32 N          26.3580   44.6390   50.1140 N.am      6 SEP2        0.0000 
     33 N          20.6955   43.9355   52.8905 N.am      2 SEC2        0.0000 
     34 N          21.6880   44.7360   52.9910 N.am     10 SEL2        0.0000 
     35 N          19.7030   43.1350   52.7900 N.am      6 SEP2        0.0000 
     36 CA         26.0540   45.7505   52.4960 C.3       4 GLC5        0.0000 
     37 CA         25.2760   45.6350   54.2710 C.3      12 GLL5        0.0000 
     38 CA         26.8320   45.8660   50.7210 C.3       8 GLP5        0.0000 
     39 O          27.3185   48.5475   57.4380 O.2       1 ALC1        0.0000 
     40 O          27.3370   47.0210   57.0720 O.2       9 ALL1        0.0000 
     41 O          27.3000   50.0740   57.8040 O.2       5 ALP1        0.0000 
     42 CA         30.2570   45.1165   55.7730 C.3       4 GLC5        0.0000 
     43 CA         28.0330   44.9490   55.8760 C.3      12 GLL5        0.0000 
     44 CA         32.4810   45.2840   55.6700 C.3       8 GLP5        0.0000 
     45 N          29.5665   44.0290   55.0870 N.am      2 SEC2        0.0000 
     46 N          29.3600   45.1130   56.3830 N.am     10 SEL2        0.0000 
     47 N          29.7730   42.9450   53.7910 N.am      6 SEP2        0.0000 
     48 O          30.0955   46.1630   57.2425 O.2       1 ALC1        0.0000 
     49 O          29.3600   45.1130   56.3830 O.2       9 ALL1        0.0000 
     50 O          30.8310   47.2130   58.1020 O.2       5 ALP1        0.0000 
     51 CA         26.8590   44.6930   58.6530 C.3       4 GLC5        0.0000 
     52 CA         27.1610   44.0530   56.7120 C.3      12 GLL5        0.0000 
     53 CA         26.5570   45.3330   60.5940 C.3       8 GLP5        0.0000 
     54 N          27.9025   36.9810   58.7865 N.am      2 SEC2        0.0000 
     55 N          28.0140   38.1950   58.2370 N.am     10 SEL2        0.0000 
     56 N          27.7910   35.7670   59.3360 N.am      6 SEP2        0.0000 
     57 O          27.2540   41.1995   59.9925 O.2       1 ALC1        0.0000 
     58 O          28.0500   39.7830   59.7700 O.2       9 ALL1        0.0000 
     59 O          26.4580   42.6160   60.2150 O.2       5 ALP1        0.0000 
     60 O          27.4985   39.3130   61.0345 O.2       1 ALC1        0.0000 
     61 O          26.9470   38.8430   62.2990 O.2       5 ALP1        0.0000 
     62 CA         27.9975   37.7715   55.9065 C.3       4 GLC5        0.0000 
     63 CA         27.5190   39.7860   56.0080 C.3      12 GLL5        0.0000 
     64 CA         28.4760   35.7570   55.8050 C.3       8 GLP5        0.0000 
     65 CA         28.7305   42.5515   53.8360 C.3       4 GLC5        0.0000 
     66 CA         27.1490   42.1040   55.1880 C.3      12 GLL5        0.0000 
     67 CA         30.3120   42.9990   52.4840 C.3       8 GLP5        0.0000 
     68 NZ         17.5945   54.2795   57.5685 N.4       3 LYC4        0.0000 
     69 NZ         16.4490   52.7270   57.3550 N.4      11 LYL4        0.0000 
     70 NZ         18.7400   55.8320   57.7820 N.4       7 LYP4        0.0000 
     71 NZ         17.9640   54.7150   56.4345 N.4       3 LYC4        0.0000 
     72 NZ         17.1880   53.5980   55.0870 N.4      11 LYL4        0.0000 
     73 NZ         16.6130   52.5015   53.5760 N.4       3 LYC4        0.0000 
     74 NZ         16.0380   51.4050   52.0650 N.4       7 LYP4        0.0000 
     75 NZ         15.7905   51.5320   53.6770 N.4       3 LYC4        0.0000 
     76 NZ         15.5430   51.6590   55.2890 N.4      11 LYL4        0.0000 
     77 N          14.6590   52.2875   56.0900 N.am      2 SEC2        0.0000 
     78 N          15.5430   51.6590   55.2890 N.am     10 SEL2        0.0000 
     79 N          13.7750   52.9160   56.8910 N.am      6 SEP2        0.0000 
     80 N          15.7905   51.5320   53.6770 N.am      2 SEC2        0.0000 
     81 N          16.0380   51.4050   52.0650 N.am      6 SEP2        0.0000 
     82 CA         19.1788   48.9378   53.5570 C.3       4 GLC5        0.0000 
     83 CA         19.8560   50.9520   54.0660 C.3      12 GLL5        0.0000 
     84 CA         18.0530   47.5060   52.7740 C.3       8 GLP5        0.0000 
     85 CA         24.5598   54.1538   58.3545 C.3       4 GLC5        0.0000 
     86 CA         22.6260   54.2030   57.3930 C.3      12 GLL5        0.0000 
     87 CA         26.2820   53.6740   58.7970 C.3       8 GLP5        0.0000 
     88 CA         25.8637   47.8105   56.1942 C.3       4 GLC5        0.0000 
     89 CA         27.2080   46.2320   55.8670 C.3      12 GLL5        0.0000 
     90 CA         25.2490   49.6610   56.6010 C.3       8 GLP5        0.0000 
     91 CA         25.8863   41.1520   58.4300 C.3       4 GLC5        0.0000 
     92 CA         27.6540   40.3240   57.3660 C.3      12 GLL5        0.0000 
     93 CA         24.1740   41.2920   59.3650 C.3       8 GLP5        0.0000 
     94 CA         29.2677   41.6460   58.4925 C.3       4 GLC5        0.0000 
     95 CA         27.5430   41.7000   57.6240 C.3      12 GLL5        0.0000 
     96 CA         30.9370   42.2800   59.4900 C.3       8 GLP5        0.0000 
     97 CA         27.1448   39.0275   54.0938 C.3       4 GLC5        0.0000 
     98 CA         26.8960   37.8110   52.7070 C.3       8 GLP5        0.0000 
     99 CA         26.0504   39.4160   57.4203 C.3       4 GLC5        0.0000 
    100 CA         24.5420   38.4330   58.0890 C.3       8 GLP5        0.0000 
    101 CA         26.8642   41.3460   53.0568 C.3       4 GLC5        0.0000 
    102 CA         27.2680   40.7020   54.9530 C.3      12 GLL5        0.0000 
    103 CA         26.5200   41.2890   51.0430 C.3       8 GLP5        0.0000 
    104 CA         25.1988   41.4500   54.9968 C.3       4 GLC5        0.0000 
    105 CA         23.1890   41.4970   54.9230 C.3       8 GLP5        0.0000 
@<TRIPOS>BOND
@<TRIPOS>SUBSTRUCTURE
     1 ALC1       16 GROUP        1 X    ALC  0     ROOT ALC X 1
     2 SEC2        1 GROUP        1 X    SEC  0     **** SEC X 2
     3 LYC4       68 GROUP        1 X    LYC  0     **** LYC X 4
     4 GLC5        4 GROUP        1 X    GLC  0     **** GLC X 6
     5 ALP1       18 GROUP        1 Y    ALP  0     ROOT ALP Y 8
     6 SEP2        3 GROUP        1 Y    SEP  0     **** SEP Y 9
     7 LYP4       70 GROUP        1 Y    LYP  0     **** LYP Y 11
     8 GLP5        6 GROUP        1 Y    GLP  0     **** GLP Y 13
     9 ALL1       17 GROUP        1 Z    ALL  0     ROOT ALL Z 15
    10 SEL2        2 GROUP        1 Z    SEL  0     **** SEL Z 16
    11 LYL4       69 GROUP        1 Z    LYL  0     **** LYL Z 18
    12 GLL5        5 GROUP        1 Z    GLL  0     **** GLL Z 20
@<TRIPOS>SET

