#    Name: 1ps0_NAP_1_ligand
#    Modification time : Mon Mar 24 22:12:17 2014

@<TRIPOS>MOLECULE
1ps0_NAP_1_ligand
   72    76     1     0     0
SMALL
NO_CHARGES


@<TRIPOS>ATOM
      1 PA         22.6290   47.9810   51.8110 P.3       1 NAP4292     0.0000 
      2 O1A        23.9080   48.4960   51.4850 O.co2     1 NAP4292     0.0000 
      3 O2A        21.6540   47.3360   50.8430 O.co2     1 NAP4292     0.0000 
      4 O5B        21.7600   49.1290   52.5670 O.3       1 NAP4292     0.0000 
      5 C5B        22.1350   49.5820   53.9040 C.3       1 NAP4292     0.0000 
      6 C4B        20.7530   49.7870   54.6140 C.3       1 NAP4292     0.0000 
      7 O4B        21.0840   50.2190   56.0030 O.3       1 NAP4292     0.0000 
      8 C3B        19.8560   50.9520   54.0660 C.3       1 NAP4292     0.0000 
      9 O3B        18.7830   50.3210   53.3590 O.3       1 NAP4292     0.0000 
     10 C2B        19.3760   51.7400   55.2970 C.3       1 NAP4292     0.0000 
     11 O2B        18.0390   51.4020   55.8010 O.3       1 NAP4292     0.0000 
     12 C1B        20.4800   51.4460   56.3850 C.3       1 NAP4292     0.0000 
     13 N9A        21.4460   52.5560   56.4920 N.pl3     1 NAP4292     0.0000 
     14 C8A        22.2950   53.1470   55.5760 C.2       1 NAP4292     0.0000 
     15 N7A        23.0250   54.1420   56.0660 N.2       1 NAP4292     0.0000 
     16 C5A        22.6260   54.2030   57.3930 C.ar      1 NAP4292     0.0000 
     17 C6A        23.0490   55.0640   58.4310 C.ar      1 NAP4292     0.0000 
     18 N6A        23.9660   56.0500   58.3570 N.pl3     1 NAP4292     0.0000 
     19 N1A        22.4560   54.8820   59.6900 N.ar      1 NAP4292     0.0000 
     20 C2A        21.4830   53.8840   59.8960 C.ar      1 NAP4292     0.0000 
     21 N3A        21.0470   53.0250   58.8980 N.ar      1 NAP4292     0.0000 
     22 C4A        21.6480   53.2210   57.6600 C.ar      1 NAP4292     0.0000 
     23 O3         22.7880   46.8980   52.9420 O.3       1 NAP4292     0.0000 
     24 PN         23.0410   45.3400   52.9100 P.3       1 NAP4292     0.0000 
     25 O1N        23.8840   44.9510   51.7550 O.co2     1 NAP4292     0.0000 
     26 O2N        21.6880   44.7360   52.9910 O.co2     1 NAP4292     0.0000 
     27 O5D        23.9030   45.1280   54.2360 O.3       1 NAP4292     0.0000 
     28 C5D        25.2760   45.6350   54.2710 C.3       1 NAP4292     0.0000 
     29 C4D        25.7490   45.6880   55.7080 C.3       1 NAP4292     0.0000 
     30 O4D        25.7890   44.3350   56.2500 O.3       1 NAP4292     0.0000 
     31 C3D        27.2080   46.2320   55.8670 C.3       1 NAP4292     0.0000 
     32 O3D        27.3370   47.0210   57.0720 O.3       1 NAP4292     0.0000 
     33 C2D        28.0330   44.9490   55.8760 C.3       1 NAP4292     0.0000 
     34 O2D        29.3600   45.1130   56.3830 O.3       1 NAP4292     0.0000 
     35 C1D        27.1610   44.0530   56.7120 C.3       1 NAP4292     0.0000 
     36 N1N        27.2920   42.5760   56.5340 N.pl3     1 NAP4292     0.0000 
     37 C2N        27.5430   41.7000   57.6240 C.ar      1 NAP4292     0.0000 
     38 C3N        27.6540   40.3240   57.3660 C.ar      1 NAP4292     0.0000 
     39 C7N        27.9240   39.3600   58.5320 C.2       1 NAP4292     0.0000 
     40 O7N        28.0140   38.1950   58.2370 O.2       1 NAP4292     0.0000 
     41 N7N        28.0500   39.7830   59.7700 N.am      1 NAP4292     0.0000 
     42 C4N        27.5190   39.7860   56.0080 C.ar      1 NAP4292     0.0000 
     43 C5N        27.2680   40.7020   54.9530 C.ar      1 NAP4292     0.0000 
     44 C6N        27.1490   42.1040   55.1880 C.ar      1 NAP4292     0.0000 
     45 P2B        16.7110   52.4160   55.8720 P.3       1 NAP4292     0.0000 
     46 O1X        16.4490   52.7270   57.3550 O.co2     1 NAP4292     0.0000 
     47 O2X        17.1880   53.5980   55.0870 O.co2     1 NAP4292     0.0000 
     48 O3X        15.5430   51.6590   55.2890 O.co2     1 NAP4292     0.0000 
     49 H          22.6322   50.5205   53.8843 H         1 NAP4292     0.0000 
     50 H          22.6700   48.8395   54.4433 H         1 NAP4292     0.0000 
     51 H          20.2126   48.8949   54.6428 H         1 NAP4292     0.0000 
     52 H          20.4642   51.5580   53.4625 H         1 NAP4292     0.0000 
     53 H          19.4727   52.7959   55.0707 H         1 NAP4292     0.0000 
     54 H          19.9364   51.3269   57.3208 H         1 NAP4292     0.0000 
     55 H          22.3362   52.8302   54.6251 H         1 NAP4292     0.0000 
     56 H          21.0721   53.7930   60.8580 H         1 NAP4292     0.0000 
     57 H          25.3282   46.6387   53.8477 H         1 NAP4292     0.0000 
     58 H          25.9432   44.9829   53.7063 H         1 NAP4292     0.0000 
     59 H          25.1046   46.2997   56.2962 H         1 NAP4292     0.0000 
     60 H          27.4294   46.7693   54.9748 H         1 NAP4292     0.0000 
     61 H          28.0072   44.5620   54.8633 H         1 NAP4292     0.0000 
     62 H          27.2197   44.3188   57.7406 H         1 NAP4292     0.0000 
     63 H          27.6383   42.0661   58.5608 H         1 NAP4292     0.0000 
     64 H          27.9955   40.7724   59.9046 H         1 NAP4292     0.0000 
     65 H          28.1889   39.0768   60.4643 H         1 NAP4292     0.0000 
     66 H          27.6043   38.8061   55.8538 H         1 NAP4292     0.0000 
     67 H          27.1686   40.3477   53.9907 H         1 NAP4292     0.0000 
     68 H          26.9709   42.7419   54.4374 H         1 NAP4292     0.0000 
     69 H          18.1410   50.0306   54.0686 H         1 NAP4292     0.0000 
     70 H          24.2126   56.2457   59.3062 H         1 NAP4292     0.0000 
     71 H          27.2083   47.9676   56.7764 H         1 NAP4292     0.0000 
     72 H          29.3276   45.9522   56.9259 H         1 NAP4292     0.0000 
@<TRIPOS>BOND
     1    2    1 ar   
     2    3    1 ar   
     3    4    1 1    
     4   23    1 1    
     5    5    4 1    
     6    6    5 1    
     7   49    5 1    
     8   50    5 1    
     9    7    6 1    
    10    8    6 1    
    11   51    6 1    
    12   12    7 1    
    13    9    8 1    
    14   10    8 1    
    15   52    8 1    
    16   69    9 1    
    17   11   10 1    
    18   12   10 1    
    19   53   10 1    
    20   45   11 1    
    21   13   12 1    
    22   54   12 1    
    23   14   13 1    
    24   22   13 1    
    25   15   14 2    
    26   55   14 1    
    27   16   15 1    
    28   17   16 ar   
    29   22   16 ar   
    30   18   17 1    
    31   19   17 ar   
    32   70   18 1    
    33   20   19 ar   
    34   21   20 ar   
    35   56   20 1    
    36   22   21 ar   
    37   24   23 1    
    38   25   24 ar   
    39   26   24 ar   
    40   27   24 1    
    41   28   27 1    
    42   29   28 1    
    43   57   28 1    
    44   58   28 1    
    45   30   29 1    
    46   31   29 1    
    47   59   29 1    
    48   35   30 1    
    49   32   31 1    
    50   33   31 1    
    51   60   31 1    
    52   71   32 1    
    53   34   33 1    
    54   35   33 1    
    55   61   33 1    
    56   72   34 1    
    57   36   35 1    
    58   62   35 1    
    59   37   36 ar   
    60   44   36 ar   
    61   38   37 ar   
    62   63   37 1    
    63   39   38 1    
    64   42   38 ar   
    65   40   39 2    
    66   41   39 am   
    67   64   41 1    
    68   65   41 1    
    69   43   42 ar   
    70   66   42 1    
    71   44   43 ar   
    72   67   43 1    
    73   68   44 1    
    74   46   45 ar   
    75   47   45 ar   
    76   48   45 ar   
@<TRIPOS>SUBSTRUCTURE
     1 NAP4292     1 GROUP   
@<TRIPOS>SET

