#    Name: 4kb9_G79_1_INTS_M
#    Modification time : Tue Mar 25 07:39:55 2014

@<TRIPOS>MOLECULE
4kb9_G79_1_INTS_M
   96     0     9     0     0
SMALL
NO_CHARGES


@<TRIPOS>ATOM
      1 CA          7.9995   13.4605   13.9680 C.3       3 GLC5        0.0000 
      2 CA          8.1700   15.4470   14.8940 C.3       9 GLL5        0.0000 
      3 CA          7.8290   11.4740   13.0420 C.3       6 GLP5        0.0000 
      4 CA          7.5890   16.3385   12.9490 C.3       3 GLC5        0.0000 
      5 CA          7.0080   17.2300   11.0040 C.3       6 GLP5        0.0000 
      6 CA         12.0080   17.2715   13.6325 C.3       3 GLC5        0.0000 
      7 CA         10.2680   16.6460   14.8270 C.3       9 GLL5        0.0000 
      8 CA         13.7480   17.8970   12.4380 C.3       6 GLP5        0.0000 
      9 CA          6.1730   16.9760   13.8480 C.3       3 GLC5        0.0000 
     10 CA          7.5640   16.5960   15.4090 C.3       9 GLL5        0.0000 
     11 CA          4.7820   17.3560   12.2870 C.3       6 GLP5        0.0000 
     12 CA          9.0275   21.5010   18.3355 C.3       3 GLC5        0.0000 
     13 CA         10.7100   20.8650   19.6040 C.3       9 GLL5        0.0000 
     14 CA          7.3450   22.1370   17.0670 C.3       6 GLP5        0.0000 
     15 CA         10.5225   23.0505   19.9260 C.3       3 GLC5        0.0000 
     16 CA         10.3350   25.2360   20.2480 C.3       6 GLP5        0.0000 
     17 CA         10.2765   17.6070   22.1865 C.3       3 GLC5        0.0000 
     18 CA          9.6870   18.9810   20.8520 C.3       9 GLL5        0.0000 
     19 CA         10.8660   16.2330   23.5210 C.3       6 GLP5        0.0000 
     20 CA          9.0515   19.4220   22.4005 C.3       3 GLC5        0.0000 
     21 CA          8.4160   19.8630   23.9490 C.3       6 GLP5        0.0000 
     22 CA         12.5220   16.1545   16.8555 C.3       3 GLC5        0.0000 
     23 CA         12.6810   18.1710   17.4910 C.3       9 GLL5        0.0000 
     24 CA         12.3630   14.1380   16.2200 C.3       6 GLP5        0.0000 
     25 N          15.3855   17.7085   19.5060 N.am      2 SEC2        0.0000 
     26 N          14.9630   18.3070   18.3140 N.am      8 SEL2        0.0000 
     27 N          15.8080   17.1100   20.6980 N.am      5 SEP2        0.0000 
     28 O          15.0460   17.4415   17.3610 O.2       1 ALC1        0.0000 
     29 O          14.9630   18.3070   18.3140 O.2       7 ALL1        0.0000 
     30 O          15.1290   16.5760   16.4080 O.2       4 ALP1        0.0000 
     31 O          16.5885   20.5995   17.7110 O.2       1 ALC1        0.0000 
     32 O          15.0460   21.1590   17.6250 O.2       7 ALL1        0.0000 
     33 O          18.1310   20.0400   17.7970 O.2       4 ALP1        0.0000 
     34 N          17.3050   23.1845   18.0800 N.am      2 SEC2        0.0000 
     35 N          15.7760   23.2150   18.1410 N.am      8 SEL2        0.0000 
     36 N          18.8340   23.1540   18.0190 N.am      5 SEP2        0.0000 
     37 CA         14.0625   24.8945   16.6030 C.3       3 GLC5        0.0000 
     38 CA         15.5280   24.6100   18.1570 C.3       9 GLL5        0.0000 
     39 CA         12.5970   25.1790   15.0490 C.3       6 GLP5        0.0000 
     40 CA         16.8295   22.9375   21.0260 C.3       3 GLC5        0.0000 
     41 CA         16.4500   24.9100   20.4440 C.3       9 GLL5        0.0000 
     42 CA         17.2090   20.9650   21.6080 C.3       6 GLP5        0.0000 
     43 CA         15.5505   25.4450   22.1885 C.3       3 GLC5        0.0000 
     44 CA         14.6510   25.9800   23.9330 C.3       6 GLP5        0.0000 
     45 CA         18.5710   26.0085   21.7215 C.3       3 GLC5        0.0000 
     46 CA         17.6000   25.7420   19.9200 C.3       9 GLL5        0.0000 
     47 CA         19.5420   26.2750   23.5230 C.3       6 GLP5        0.0000 
     48 CA         17.1470   27.8020   20.1005 C.3       3 GLC5        0.0000 
     49 CA         16.6940   29.8620   20.2810 C.3       6 GLP5        0.0000 
     50 N          19.2900   23.3175   19.3490 N.am      2 SEC2        0.0000 
     51 N          18.5290   24.1500   18.3350 N.am      8 SEL2        0.0000 
     52 N          20.0510   22.4850   20.3630 N.am      5 SEP2        0.0000 
     53 CA         18.2555   22.2570   18.7445 C.3       3 GLC5        0.0000 
     54 CA         18.3120   23.6260   17.0380 C.3       9 GLL5        0.0000 
     55 CA         18.1990   20.8880   20.4510 C.3       6 GLP5        0.0000 
     56 CA         17.7920   19.6085   14.6490 C.3       3 GLC5        0.0000 
     57 CA         16.5640   21.1690   14.5490 C.3       9 GLL5        0.0000 
     58 CA         19.0200   18.0480   14.7490 C.3       6 GLP5        0.0000 
     59 N           8.3195   12.8535   14.9140 N.am      2 SEC2        0.0000 
     60 N           7.5250   14.2600   14.7110 N.am      8 SEL2        0.0000 
     61 N           9.1140   11.4470   15.1170 N.am      5 SEP2        0.0000 
     62 CA          6.7380   12.9630   16.3095 C.3       3 GLC5        0.0000 
     63 CA          6.1360   14.3490   14.9200 C.3       9 GLL5        0.0000 
     64 CA          7.3400   11.5770   17.6990 C.3       6 GLP5        0.0000 
     65 CA          6.9825   12.9115   13.9810 C.3       3 GLC5        0.0000 
     66 CA          5.2410   15.1475   13.3950 C.3       3 GLC5        0.0000 
     67 CA          4.3460   15.9460   11.8700 C.3       6 GLP5        0.0000 
     68 CA         13.4380   25.1830   20.2470 C.3       3 GLC5        0.0000 
     69 CA         15.2330   25.0720   19.5580 C.3       9 GLL5        0.0000 
     70 CA         11.6430   25.2940   20.9360 C.3       6 GLP5        0.0000 
     71 CA         11.1325   15.0977   15.4750 C.3       3 GLC5        0.0000 
     72 CA          9.5360   15.4690   14.6330 C.3       9 GLL5        0.0000 
     73 CA          9.8213   15.6545   12.8171 C.3       3 GLC5        0.0000 
     74 CA         10.0820   15.2570   10.8390 C.3       6 GLP5        0.0000 
     75 CA          9.5945   18.4997   13.7345 C.3       3 GLC5        0.0000 
     76 CA         10.0370   19.5340   12.0560 C.3       6 GLP5        0.0000 
     77 CA         11.0666   20.7363   21.6149 C.3       3 GLC5        0.0000 
     78 CA         10.7130   19.3510   19.7790 C.3       9 GLL5        0.0000 
     79 CA         11.9340   21.9280   22.9580 C.3       6 GLP5        0.0000 
     80 CA         15.0362   26.7320   20.6330 C.3       3 GLC5        0.0000 
     81 CA         14.2310   28.4730   21.2650 C.3       6 GLP5        0.0000 
     82 CA         19.7212   24.8825   19.5770 C.3       3 GLC5        0.0000 
     83 CA         21.7030   24.2000   19.9450 C.3       6 GLP5        0.0000 
     84 CA         16.9130   20.8600   12.6885 C.3       3 GLC5        0.0000 
     85 CA         17.1170   20.0210   11.2570 C.3       6 GLP5        0.0000 
     86 CA         14.5145   23.4087   11.6197 C.3       3 GLC5        0.0000 
     87 CA         14.5270   22.5170   13.2680 C.3       9 GLL5        0.0000 
     88 CA         13.8500   24.1180   10.0990 C.3       6 GLP5        0.0000 
     89 CA         16.1480   21.3603   12.1988 C.3       3 GLC5        0.0000 
     90 CA         12.4187   22.6062   13.2193 C.3       3 GLC5        0.0000 
     91 CA         10.4640   23.2120   12.7410 C.3       6 GLP5        0.0000 
     92 CA         13.6482   23.6354   14.3414 C.3       3 GLC5        0.0000 
     93 CA         14.2200   21.4840   14.1270 C.3       9 GLL5        0.0000 
     94 CA         15.9215   20.5832   12.8560 C.3       3 GLC5        0.0000 
     95 CA         14.1930   19.3788   13.5661 C.3       3 GLC5        0.0000 
     96 CA         15.2320   20.8070   14.7830 C.3       9 GLL5        0.0000 
@<TRIPOS>BOND
@<TRIPOS>SUBSTRUCTURE
     1 ALC1       28 GROUP        1 X    ALC  0     ROOT ALC X 1
     2 SEC2       25 GROUP        1 X    SEC  0     **** SEC X 2
     3 GLC5        1 GROUP        1 X    GLC  0     **** GLC X 6
     4 ALP1       30 GROUP        1 Y    ALP  0     ROOT ALP Y 8
     5 SEP2       27 GROUP        1 Y    SEP  0     **** SEP Y 9
     6 GLP5        3 GROUP        1 Y    GLP  0     **** GLP Y 13
     7 ALL1       29 GROUP        1 Z    ALL  0     ROOT ALL Z 15
     8 SEL2       26 GROUP        1 Z    SEL  0     **** SEL Z 16
     9 GLL5        2 GROUP        1 Z    GLL  0     **** GLL Z 20
@<TRIPOS>SET

