#    Name: 4kb9_G79_1_ligand
#    Modification time : Tue Mar 25 07:39:55 2014

@<TRIPOS>MOLECULE
4kb9_G79_1_ligand
   87    91     1     0     0
SMALL
NO_CHARGES


@<TRIPOS>ATOM
      1 C2          8.1700   15.4470   14.8940 C.ar      1 G79201      0.0000 
      2 C3          9.5360   15.4690   14.6330 C.ar      1 G79201      0.0000 
      3 C4         10.2680   16.6460   14.8270 C.ar      1 G79201      0.0000 
      4 C5          9.6820   17.7440   15.4430 C.ar      1 G79201      0.0000 
      5 C6          8.3290   17.7360   15.6910 C.ar      1 G79201      0.0000 
      6 C7          7.5640   16.5960   15.4090 C.ar      1 G79201      0.0000 
      7 S8         10.6980   19.1080   15.9430 S.o2      1 G79201      0.0000 
      8 O9         11.7430   19.1870   14.9110 O.2       1 G79201      0.0000 
      9 O10         9.7850   20.2740   16.1280 O.2       1 G79201      0.0000 
     10 N11        11.3990   18.8580   17.4080 N.pl3     1 G79201      0.0000 
     11 C12        10.4730   18.5830   18.4880 C.3       1 G79201      0.0000 
     12 C13        10.7130   19.3510   19.7790 C.3       1 G79201      0.0000 
     13 C14        10.7100   20.8650   19.6040 C.3       1 G79201      0.0000 
     14 C15         9.6870   18.9810   20.8520 C.3       1 G79201      0.0000 
     15 C16        12.6810   18.1710   17.4910 C.3       1 G79201      0.0000 
     16 C17        13.8080   19.0930   17.9840 C.3       1 G79201      0.0000 
     17 O18        14.9630   18.3070   18.3140 O.3       1 G79201      0.0000 
     18 C19        14.1560   20.1960   16.9780 C.3       1 G79201      0.0000 
     19 N20        15.0460   21.1590   17.6250 N.am      1 G79201      0.0000 
     20 C21        14.7000   22.4390   17.7010 C.2       1 G79201      0.0000 
     21 O22        13.6290   22.9770   17.4240 O.2       1 G79201      0.0000 
     22 O23        15.7760   23.2150   18.1410 O.3       1 G79201      0.0000 
     23 C24        15.5280   24.6100   18.1570 C.3       1 G79201      0.0000 
     24 C25        16.4500   24.9100   20.4440 C.3       1 G79201      0.0000 
     25 C26        17.6000   25.7420   19.9200 C.3       1 G79201      0.0000 
     26 C27        17.8790   25.3880   18.4980 C.3       1 G79201      0.0000 
     27 O28        18.5290   24.1500   18.3350 O.3       1 G79201      0.0000 
     28 C29        18.3120   23.6260   17.0380 C.3       1 G79201      0.0000 
     29 C30        17.3080   24.5490   16.3690 C.3       1 G79201      0.0000 
     30 C31        16.7160   25.3420   17.5420 C.3       1 G79201      0.0000 
     31 C32        14.8800   19.6670   15.7400 C.3       1 G79201      0.0000 
     32 C33        16.5640   21.1690   14.5490 C.ar      1 G79201      0.0000 
     33 C34        16.8540   22.2290   13.6910 C.ar      1 G79201      0.0000 
     34 C35        15.8310   22.8820   13.0130 C.ar      1 G79201      0.0000 
     35 C36        14.5270   22.5170   13.2680 C.ar      1 G79201      0.0000 
     36 C37        14.2200   21.4840   14.1270 C.ar      1 G79201      0.0000 
     37 C38        15.2320   20.8070   14.7830 C.ar      1 G79201      0.0000 
     38 O39         7.5250   14.2600   14.7110 O.3       1 G79201      0.0000 
     39 C40         6.1360   14.3490   14.9200 C.3       1 G79201      0.0000 
     40 O41        19.5170   23.6540   16.2540 O.3       1 G79201      0.0000 
     41 C42        19.5950   24.9820   15.7440 C.3       1 G79201      0.0000 
     42 C43        18.1710   25.4240   15.5000 C.3       1 G79201      0.0000 
     43 C44        15.2330   25.0720   19.5580 C.3       1 G79201      0.0000 
     44 H          10.0116   14.6227   14.2974 H         1 G79201      0.0000 
     45 H          11.2464   16.6933   14.5094 H         1 G79201      0.0000 
     46 H           7.8642   18.5676   16.0864 H         1 G79201      0.0000 
     47 H           6.5506   16.6071   15.5828 H         1 G79201      0.0000 
     48 H          10.4793   17.4910   18.7386 H         1 G79201      0.0000 
     49 H           9.4212   18.7904   18.1623 H         1 G79201      0.0000 
     50 H          11.7014   19.0656   20.1741 H         1 G79201      0.0000 
     51 H          12.9791   17.7732   16.5068 H         1 G79201      0.0000 
     52 H          12.6239   17.3125   18.1806 H         1 G79201      0.0000 
     53 H          13.4331   19.5903   18.8966 H         1 G79201      0.0000 
     54 H          13.2527   20.6869   16.6683 H         1 G79201      0.0000 
     55 H          15.9274   20.7856   18.0030 H         1 G79201      0.0000 
     56 H          14.6515   24.8391   17.5344 H         1 G79201      0.0000 
     57 H          16.2047   25.2278   21.4577 H         1 G79201      0.0000 
     58 H          16.7432   23.8601   20.4680 H         1 G79201      0.0000 
     59 H          18.4841   25.5548   20.5311 H         1 G79201      0.0000 
     60 H          17.3407   26.7988   19.9970 H         1 G79201      0.0000 
     61 H          18.5737   26.1793   18.0769 H         1 G79201      0.0000 
     62 H          17.8847   22.6514   17.0670 H         1 G79201      0.0000 
     63 H          16.6158   24.0237   15.8615 H         1 G79201      0.0000 
     64 H          16.4719   26.3018   17.2227 H         1 G79201      0.0000 
     65 H          14.2380   18.9529   15.2262 H         1 G79201      0.0000 
     66 H          15.7944   19.1616   16.0472 H         1 G79201      0.0000 
     67 H          17.3220   20.6546   15.0084 H         1 G79201      0.0000 
     68 H          17.8306   22.5281   13.5602 H         1 G79201      0.0000 
     69 H          16.0480   23.6188   12.3386 H         1 G79201      0.0000 
     70 H          13.7521   23.0359   12.7988 H         1 G79201      0.0000 
     71 H          13.2367   21.2142   14.2821 H         1 G79201      0.0000 
     72 H          20.1331   25.0245   14.8040 H         1 G79201      0.0000 
     73 H          20.0486   25.6633   16.4547 H         1 G79201      0.0000 
     74 H          18.0564   26.4524   15.7866 H         1 G79201      0.0000 
     75 H          17.9181   25.2781   14.4668 H         1 G79201      0.0000 
     76 H          14.4073   24.4875   19.9706 H         1 G79201      0.0000 
     77 H          14.9367   26.1235   19.5426 H         1 G79201      0.0000 
     78 H          10.8664   21.3393   20.4704 H         1 G79201      0.0000 
     79 H          11.4232   21.1672   18.9715 H         1 G79201      0.0000 
     80 H           9.8382   21.1953   19.2422 H         1 G79201      0.0000 
     81 H           9.7188   18.0070   21.0761 H         1 G79201      0.0000 
     82 H           9.8422   19.4828   21.7030 H         1 G79201      0.0000 
     83 H           8.7529   19.1838   20.5583 H         1 G79201      0.0000 
     84 H           5.9186   14.6437   15.8505 H         1 G79201      0.0000 
     85 H           5.7080   15.0042   14.2975 H         1 G79201      0.0000 
     86 H           5.6819   13.4695   14.7774 H         1 G79201      0.0000 
     87 H          15.3077   17.9728   17.4369 H         1 G79201      0.0000 
@<TRIPOS>BOND
     1    2    1 ar   
     2    6    1 ar   
     3   38    1 1    
     4    3    2 ar   
     5   44    2 1    
     6    4    3 ar   
     7   45    3 1    
     8    5    4 ar   
     9    7    4 1    
    10    6    5 ar   
    11   46    5 1    
    12   47    6 1    
    13    8    7 2    
    14    9    7 2    
    15   10    7 1    
    16   11   10 1    
    17   15   10 1    
    18   12   11 1    
    19   48   11 1    
    20   49   11 1    
    21   13   12 1    
    22   14   12 1    
    23   50   12 1    
    24   78   13 1    
    25   79   13 1    
    26   80   13 1    
    27   81   14 1    
    28   82   14 1    
    29   83   14 1    
    30   16   15 1    
    31   51   15 1    
    32   52   15 1    
    33   17   16 1    
    34   18   16 1    
    35   53   16 1    
    36   87   17 1    
    37   19   18 1    
    38   31   18 1    
    39   54   18 1    
    40   20   19 am   
    41   55   19 1    
    42   21   20 2    
    43   22   20 1    
    44   23   22 1    
    45   30   23 1    
    46   43   23 1    
    47   56   23 1    
    48   25   24 1    
    49   43   24 1    
    50   57   24 1    
    51   58   24 1    
    52   26   25 1    
    53   59   25 1    
    54   60   25 1    
    55   27   26 1    
    56   30   26 1    
    57   61   26 1    
    58   28   27 1    
    59   29   28 1    
    60   40   28 1    
    61   62   28 1    
    62   30   29 1    
    63   42   29 1    
    64   63   29 1    
    65   64   30 1    
    66   37   31 1    
    67   65   31 1    
    68   66   31 1    
    69   33   32 ar   
    70   37   32 ar   
    71   67   32 1    
    72   34   33 ar   
    73   68   33 1    
    74   35   34 ar   
    75   69   34 1    
    76   36   35 ar   
    77   70   35 1    
    78   37   36 ar   
    79   71   36 1    
    80   39   38 1    
    81   84   39 1    
    82   85   39 1    
    83   86   39 1    
    84   41   40 1    
    85   42   41 1    
    86   72   41 1    
    87   73   41 1    
    88   74   42 1    
    89   75   42 1    
    90   76   43 1    
    91   77   43 1    
@<TRIPOS>SUBSTRUCTURE
     1 G79201      1 GROUP   
@<TRIPOS>SET

