#    Name: 3frj_A49_1_INTS_M
#    Modification time : Tue Mar 25 06:24:33 2014

@<TRIPOS>MOLECULE
3frj_A49_1_INTS_M
   76     0     9     0     0
SMALL
NO_CHARGES


@<TRIPOS>ATOM
      1 O          58.8825   19.2370   34.9410 O.2       1 ALC1        0.0000 
      2 O          59.3770   20.2780   36.0440 O.2       7 ALL1        0.0000 
      3 O          58.3880   18.1960   33.8380 O.2       4 ALP1        0.0000 
      4 CA         61.1475   21.9645   38.2410 C.3       3 GLC5        0.0000 
      5 CA         59.2820   22.7800   37.5660 C.3       9 GLL5        0.0000 
      6 CA         63.0130   21.1490   38.9160 C.3       6 GLP5        0.0000 
      7 CA         56.7010   24.9845   36.6060 C.3       3 GLC5        0.0000 
      8 CA         56.8350   22.9540   36.6890 C.3       9 GLL5        0.0000 
      9 CA         56.5670   27.0150   36.5230 C.3       6 GLP5        0.0000 
     10 CA         55.5630   21.8780   35.5220 C.3       3 GLC5        0.0000 
     11 CA         54.2910   20.8020   34.3550 C.3       6 GLP5        0.0000 
     12 CA         56.3735   24.6270   39.1150 C.3       3 GLC5        0.0000 
     13 CA         56.3290   22.4580   39.0600 C.3       9 GLL5        0.0000 
     14 CA         56.4180   26.7960   39.1700 C.3       6 GLP5        0.0000 
     15 CA         53.8295   24.2220   36.0275 C.3       3 GLC5        0.0000 
     16 CA         54.5880   22.9870   37.4150 C.3       9 GLL5        0.0000 
     17 CA         53.0710   25.4570   34.6400 C.3       6 GLP5        0.0000 
     18 CA         51.8445   22.5660   37.0585 C.3       3 GLC5        0.0000 
     19 CA         53.5290   22.2980   38.2300 C.3       9 GLL5        0.0000 
     20 CA         50.1600   22.8340   35.8870 C.3       6 GLP5        0.0000 
     21 CA         54.1525   19.9530   42.4470 C.3       3 GLC5        0.0000 
     22 CA         53.0190   20.0620   40.6680 C.3       9 GLL5        0.0000 
     23 CA         55.2860   19.8440   44.2260 C.3       6 GLP5        0.0000 
     24 CA         53.1120   19.2980   37.3005 C.3       3 GLC5        0.0000 
     25 CA         52.4630   19.3090   39.4500 C.3       9 GLL5        0.0000 
     26 CA         53.7610   19.2870   35.1510 C.3       6 GLP5        0.0000 
     27 CA         52.0405   17.5960   41.4690 C.3       3 GLC5        0.0000 
     28 CA         51.6250   19.4380   40.6940 C.3       9 GLL5        0.0000 
     29 CA         52.4560   15.7540   42.2440 C.3       6 GLP5        0.0000 
     30 CA         50.1580   20.2880   41.5835 C.3       3 GLC5        0.0000 
     31 CA         48.6910   21.1380   42.4730 C.3       6 GLP5        0.0000 
     32 N          51.6825   20.8225   43.2270 N.am      2 SEC2        0.0000 
     33 N          51.7910   21.9030   42.3650 N.am      8 SEL2        0.0000 
     34 N          51.5740   19.7420   44.0890 N.am      5 SEP2        0.0000 
     35 N          51.1650   22.6590   43.5200 N.am      2 SEC2        0.0000 
     36 N          50.5390   23.4150   44.6750 N.am      5 SEP2        0.0000 
     37 CA         49.7840   25.9675   38.4960 C.3       3 GLC5        0.0000 
     38 CA         51.0700   25.6070   40.0220 C.3       9 GLL5        0.0000 
     39 CA         48.4980   26.3280   36.9700 C.3       6 GLP5        0.0000 
     40 CA         50.0670   28.4835   43.5140 C.3       3 GLC5        0.0000 
     41 CA         51.1960   28.7570   41.8220 C.3       9 GLL5        0.0000 
     42 CA         48.9380   28.2100   45.2060 C.3       6 GLP5        0.0000 
     43 CA         49.8920   30.1170   40.6300 C.3       3 GLC5        0.0000 
     44 CA         48.5880   31.4770   39.4380 C.3       6 GLP5        0.0000 
     45 CA         50.4065   30.6475   39.5040 C.3       3 GLC5        0.0000 
     46 CA         52.2250   29.8180   39.5700 C.3       9 GLL5        0.0000 
     47 CA         50.8495   27.8540   37.5770 C.3       3 GLC5        0.0000 
     48 CA         52.7430   27.9570   38.6110 C.3       9 GLL5        0.0000 
     49 CA         48.9560   27.7510   36.5430 C.3       6 GLP5        0.0000 
     50 CA         60.5117   24.2460   37.6725 C.3       3 GLC5        0.0000 
     51 CA         59.2390   23.1320   36.0720 C.3       9 GLL5        0.0000 
     52 CA         61.7630   25.5360   38.5260 C.3       6 GLP5        0.0000 
     53 CA         57.7954   22.6868   34.5005 C.3       3 GLC5        0.0000 
     54 CA         58.1660   22.2540   36.7020 C.3       9 GLL5        0.0000 
     55 CA         57.8220   22.5500   32.4630 C.3       6 GLP5        0.0000 
     56 CA         56.7730   20.3700   39.5050 C.3       3 GLC5        0.0000 
     57 CA         57.6790   18.7240   39.5350 C.3       6 GLP5        0.0000 
     58 CA         56.3745   23.5390   40.8435 C.3       3 GLC5        0.0000 
     59 CA         55.4050   21.5740   39.8900 C.3       9 GLL5        0.0000 
     60 CA         56.8820   25.0620   42.2120 C.3       6 GLP5        0.0000 
     61 CA         54.1747   21.7222   36.0887 C.3       3 GLC5        0.0000 
     62 CA         54.2940   18.4602   40.0930 C.3       3 GLC5        0.0000 
     63 CA         55.8470   17.2350   40.1270 C.3       6 GLP5        0.0000 
     64 CA         50.5205   18.2118   39.7490 C.3       3 GLC5        0.0000 
     65 CA         48.9970   17.0500   39.4260 C.3       6 GLP5        0.0000 
     66 CA         50.5440   19.7267   38.5695 C.3       3 GLC5        0.0000 
     67 CA         49.0440   20.0800   37.0670 C.3       6 GLP5        0.0000 
     68 CA         54.8402   25.2782   42.0490 C.3       3 GLC5        0.0000 
     69 CA         52.9240   24.8110   41.9710 C.3       9 GLL5        0.0000 
     70 CA         52.8963   29.2119   37.6022 C.3       3 GLC5        0.0000 
     71 CA         53.2120   29.8430   36.0680 C.3       6 GLP5        0.0000 
     72 CA         54.4140   30.2501   40.3695 C.3       3 GLC5        0.0000 
     73 CA         52.6110   28.5910   39.7540 C.3       9 GLL5        0.0000 
     74 CA         55.7320   31.6450   40.7150 C.3       6 GLP5        0.0000 
     75 CA         54.8218   27.5930   39.4771 C.3       3 GLC5        0.0000 
     76 CA         53.7740   28.5060   40.3860 C.3       9 GLL5        0.0000 
@<TRIPOS>BOND
@<TRIPOS>SUBSTRUCTURE
     1 ALC1        1 GROUP        1 X    ALC  0     ROOT ALC X 1
     2 SEC2       32 GROUP        1 X    SEC  0     **** SEC X 2
     3 GLC5        4 GROUP        1 X    GLC  0     **** GLC X 6
     4 ALP1        3 GROUP        1 Y    ALP  0     ROOT ALP Y 8
     5 SEP2       34 GROUP        1 Y    SEP  0     **** SEP Y 9
     6 GLP5        6 GROUP        1 Y    GLP  0     **** GLP Y 13
     7 ALL1        2 GROUP        1 Z    ALL  0     ROOT ALL Z 15
     8 SEL2       33 GROUP        1 Z    SEL  0     **** SEL Z 16
     9 GLL5        5 GROUP        1 Z    GLL  0     **** GLL Z 20
@<TRIPOS>SET

