#    Name: 3frj_A49_1_ligand
#    Modification time : Tue Mar 25 06:24:34 2014

@<TRIPOS>MOLECULE
3frj_A49_1_ligand
   63    66     1     0     0
SMALL
NO_CHARGES


@<TRIPOS>ATOM
      1 O1         57.1950   20.1160   36.2450 O.2       1 A492        0.0000 
      2 C13        58.2160   20.8010   36.2770 C.2       1 A492        0.0000 
      3 N1         59.3770   20.2780   36.0440 N.am      1 A492        0.0000 
      4 C31        58.1660   22.2540   36.7020 C.3       1 A492        0.0000 
      5 C10        59.2820   22.7800   37.5660 C.3       1 A492        0.0000 
      6 C12        59.2390   23.1320   36.0720 C.3       1 A492        0.0000 
      7 C26        56.8350   22.9540   36.6890 C.3       1 A492        0.0000 
      8 N2         55.8860   22.3040   37.6130 N.4       1 A492        0.0000 
      9 C17        56.3290   22.4580   39.0600 C.3       1 A492        0.0000 
     10 C16        55.4050   21.5740   39.8900 C.3       1 A492        0.0000 
     11 C19        54.5880   22.9870   37.4150 C.3       1 A492        0.0000 
     12 C20        53.5290   22.2980   38.2300 C.3       1 A492        0.0000 
     13 C14        54.0110   22.1900   39.7100 C.3       1 A492        0.0000 
     14 N12        52.9150   21.5410   40.3940 N.am      1 A492        0.0000 
     15 C15        53.0190   20.0620   40.6680 C.3       1 A492        0.0000 
     16 C25        52.4630   19.3090   39.4500 C.3       1 A492        0.0000 
     17 C24        51.6250   19.4380   40.6940 C.3       1 A492        0.0000 
     18 C11        52.3750   22.3910   41.3980 C.2       1 A492        0.0000 
     19 O13        51.7910   21.9030   42.3650 O.2       1 A492        0.0000 
     20 C4         52.2460   23.8730   41.2080 C.ar      1 A492        0.0000 
     21 C3         52.9240   24.8110   41.9710 C.ar      1 A492        0.0000 
     22 C2         52.6730   26.1780   41.8010 C.ar      1 A492        0.0000 
     23 C5         51.2960   24.2710   40.2450 C.ar      1 A492        0.0000 
     24 C6         51.0700   25.6070   40.0220 C.ar      1 A492        0.0000 
     25 C1         51.7470   26.5500   40.7970 C.ar      1 A492        0.0000 
     26 C7         51.4450   27.9990   40.5240 C.3       1 A492        0.0000 
     27 C9         51.1960   28.7570   41.8220 C.3       1 A492        0.0000 
     28 O10        50.2980   28.1090   39.6560 O.3       1 A492        0.0000 
     29 C8         52.6110   28.5910   39.7540 C.3       1 A492        0.0000 
     30 F23        52.2250   29.8180   39.5700 F         1 A492        0.0000 
     31 F21        52.7430   27.9570   38.6110 F         1 A492        0.0000 
     32 F22        53.7740   28.5060   40.3860 F         1 A492        0.0000 
     33 H          59.3834   19.3041   35.8173 H         1 A492        0.0000 
     34 H          60.1599   20.8964   36.1123 H         1 A492        0.0000 
     35 H          59.9243   22.0927   37.6729 H         1 A492        0.0000 
     36 H          58.9607   23.5338   38.0402 H         1 A492        0.0000 
     37 H          58.8887   24.0051   36.0022 H         1 A492        0.0000 
     38 H          59.8523   22.5640   35.6349 H         1 A492        0.0000 
     39 H          56.4350   22.9413   35.6664 H         1 A492        0.0000 
     40 H          56.9811   24.0041   36.9750 H         1 A492        0.0000 
     41 H          55.7873   21.2705   37.3744 H         1 A492        0.0000 
     42 H          56.2200   23.4794   39.3655 H         1 A492        0.0000 
     43 H          57.3408   22.1214   39.1669 H         1 A492        0.0000 
     44 H          55.6840   21.6192   40.9152 H         1 A492        0.0000 
     45 H          55.4083   20.5829   39.5045 H         1 A492        0.0000 
     46 H          54.3052   22.9591   36.3614 H         1 A492        0.0000 
     47 H          54.6602   24.0299   37.7280 H         1 A492        0.0000 
     48 H          53.3543   21.2983   37.8572 H         1 A492        0.0000 
     49 H          52.6092   22.8659   38.2142 H         1 A492        0.0000 
     50 H          54.0527   23.2528   40.0622 H         1 A492        0.0000 
     51 H          53.5981   19.5726   41.0971 H         1 A492        0.0000 
     52 H          52.8613   18.4498   39.4466 H         1 A492        0.0000 
     53 H          52.1735   19.9606   38.8266 H         1 A492        0.0000 
     54 H          50.9968   20.1363   40.5604 H         1 A492        0.0000 
     55 H          51.6846   18.6256   41.1804 H         1 A492        0.0000 
     56 H          53.6180   24.5067   42.6690 H         1 A492        0.0000 
     57 H          53.1282   26.8727   42.3653 H         1 A492        0.0000 
     58 H          50.7838   23.5521   39.7212 H         1 A492        0.0000 
     59 H          50.4148   25.9181   39.2984 H         1 A492        0.0000 
     60 H          51.9890   28.7226   42.4302 H         1 A492        0.0000 
     61 H          50.9959   29.7226   41.6557 H         1 A492        0.0000 
     62 H          50.4210   28.3802   42.3293 H         1 A492        0.0000 
     63 H          49.5065   28.0203   40.2607 H         1 A492        0.0000 
@<TRIPOS>BOND
     1    2    1 2    
     2    3    2 am   
     3    4    2 1    
     4   33    3 1    
     5   34    3 1    
     6    5    4 1    
     7    6    4 1    
     8    7    4 1    
     9    6    5 1    
    10   35    5 1    
    11   36    5 1    
    12   37    6 1    
    13   38    6 1    
    14    8    7 1    
    15   39    7 1    
    16   40    7 1    
    17    9    8 1    
    18   11    8 1    
    19   41    8 1    
    20   10    9 1    
    21   42    9 1    
    22   43    9 1    
    23   13   10 1    
    24   44   10 1    
    25   45   10 1    
    26   12   11 1    
    27   46   11 1    
    28   47   11 1    
    29   13   12 1    
    30   48   12 1    
    31   49   12 1    
    32   14   13 1    
    33   50   13 1    
    34   15   14 1    
    35   18   14 am   
    36   16   15 1    
    37   17   15 1    
    38   51   15 1    
    39   17   16 1    
    40   52   16 1    
    41   53   16 1    
    42   54   17 1    
    43   55   17 1    
    44   19   18 2    
    45   20   18 1    
    46   21   20 ar   
    47   23   20 ar   
    48   22   21 ar   
    49   56   21 1    
    50   25   22 ar   
    51   57   22 1    
    52   24   23 ar   
    53   58   23 1    
    54   25   24 ar   
    55   59   24 1    
    56   26   25 1    
    57   27   26 1    
    58   28   26 1    
    59   29   26 1    
    60   60   27 1    
    61   61   27 1    
    62   62   27 1    
    63   63   28 1    
    64   30   29 1    
    65   31   29 1    
    66   32   29 1    
@<TRIPOS>SUBSTRUCTURE
     1 A492        1 GROUP   
@<TRIPOS>SET

