#    Name: 3bm4_ADV_2_INTS_M
#    Modification time : Mon Mar 24 19:52:16 2014

@<TRIPOS>MOLECULE
3bm4_ADV_2_INTS_M
   73     0    15     0     0
SMALL
NO_CHARGES


@<TRIPOS>ATOM
      1 CA        -23.5460   18.0355   76.1600 C.3       5 GLC5        0.0000 
      2 CA        -24.5790   19.5640   75.6110 C.3      15 GLL5        0.0000 
      3 CA        -22.5130   16.5070   76.7090 C.3      10 GLP5        0.0000 
      4 O         -26.8395   22.1705   74.3235 O.2       1 ALC1        0.0000 
      5 O         -25.5230   22.6190   75.3630 O.2      11 ALL1        0.0000 
      6 O         -28.1560   21.7220   73.2840 O.2       6 ALP1        0.0000 
      7 CA        -23.4175   21.1890   79.8070 C.3       5 GLC5        0.0000 
      8 CA        -23.4600   21.7290   78.1720 C.3      15 GLL5        0.0000 
      9 CA        -23.3750   20.6490   81.4420 C.3      10 GLP5        0.0000 
     10 N         -19.5000   19.7480   76.1915 N.am      2 SEC2        0.0000 
     11 N         -20.2760   21.0530   76.6110 N.am     12 SEL2        0.0000 
     12 N         -18.7240   18.4430   75.7720 N.am      7 SEP2        0.0000 
     13 O         -16.4790   23.5780   76.6295 O.2       1 ALC1        0.0000 
     14 O         -17.7480   22.6660   76.6490 O.2      11 ALL1        0.0000 
     15 O         -15.2100   24.4900   76.6100 O.2       6 ALP1        0.0000 
     16 N         -17.8455   25.2585   78.1165 N.am      2 SEC2        0.0000 
     17 N         -18.9420   24.1790   77.9380 N.am     12 SEL2        0.0000 
     18 N         -16.7490   26.3380   78.2950 N.am      7 SEP2        0.0000 
     19 CA        -19.2920   26.2480   78.1960 C.3       5 GLC5        0.0000 
     20 CA        -20.0590   24.5510   78.5380 C.3      15 GLL5        0.0000 
     21 CA        -18.5250   27.9450   77.8540 C.3      10 GLP5        0.0000 
     22 CA        -19.0980   22.8030   79.4625 C.3       5 GLC5        0.0000 
     23 CA        -18.1370   21.0550   80.3870 C.3      10 GLP5        0.0000 
     24 CA        -24.6165   16.9465   72.0085 C.3       5 GLC5        0.0000 
     25 CA        -23.6480   18.2900   72.8850 C.3      15 GLL5        0.0000 
     26 CA        -25.5850   15.6030   71.1320 C.3      10 GLP5        0.0000 
     27 CA        -23.1920   17.0485   74.1320 C.3       5 GLC5        0.0000 
     28 CA        -22.7360   15.8070   75.3790 C.3      10 GLP5        0.0000 
     29 NZ        -22.4360   21.7720   71.0820 N.4       3 LYC4        0.0000 
     30 NZ        -22.5990   20.5950   71.9830 N.4      13 LYL4        0.0000 
     31 NZ        -22.1930   22.6840   68.8790 N.4       8 LYP4        0.0000 
     32 N         -22.4360   21.7720   71.0820 N.am      2 SEC2        0.0000 
     33 N         -22.5990   20.5950   71.9830 N.am     12 SEL2        0.0000 
     34 N         -22.2730   22.9490   70.1810 N.am      7 SEP2        0.0000 
     35 CA        -23.8345   16.3685   70.7760 C.3       5 GLC5        0.0000 
     36 CA        -22.0840   17.1340   70.4200 C.3      15 GLL5        0.0000 
     37 O         -17.5140   17.2085   69.5955 O.2       1 ALC1        0.0000 
     38 O         -18.5470   15.9850   69.9360 O.2      11 ALL1        0.0000 
     39 O         -16.4810   18.4320   69.2550 O.2       6 ALP1        0.0000 
     40 N         -18.1300   18.5295   72.2260 N.am      2 SEC2        0.0000 
     41 N         -17.9910   18.3710   70.9160 N.am     12 SEL2        0.0000 
     42 N         -18.2690   18.6880   73.5360 N.am      7 SEP2        0.0000 
     43 O         -17.2360   18.4015   70.0855 O.2       1 ALC1        0.0000 
     44 O         -17.9910   18.3710   70.9160 O.2      11 ALL1        0.0000 
     45 N         -18.2995   20.5585   68.9705 N.am      2 SEC2        0.0000 
     46 N         -18.6690   19.0630   68.5900 N.am     12 SEL2        0.0000 
     47 N         -17.9300   22.0540   69.3510 N.am      7 SEP2        0.0000 
     48 Zn        -27.1385   17.3760   74.1300 Zn        4 ZIC7        0.0000 
     49 Zn        -25.9250   17.3930   73.9410 Zn       14 ZIL7        0.0000 
     50 Zn        -28.3520   17.3590   74.3190 Zn        9 ZIP7        0.0000 
     51 N         -25.3735   16.1425   73.6265 N.am      2 SEC2        0.0000 
     52 N         -25.9250   17.3930   73.9410 N.am     12 SEL2        0.0000 
     53 N         -24.8220   14.8920   73.3120 N.am      7 SEP2        0.0000 
     54 Zn        -25.1605   19.4430   70.0845 Zn        4 ZIC7        0.0000 
     55 Zn        -24.1730   19.3200   70.4440 Zn       14 ZIL7        0.0000 
     56 Zn        -26.1480   19.5660   69.7250 Zn        9 ZIP7        0.0000 
     57 N         -23.4055   20.4215   69.4250 N.am      2 SEC2        0.0000 
     58 N         -24.1730   19.3200   70.4440 N.am     12 SEL2        0.0000 
     59 N         -22.6380   21.5230   68.4060 N.am      7 SEP2        0.0000 
     60 Zn        -26.1045   19.3435   70.9055 Zn        4 ZIC7        0.0000 
     61 Zn        -26.0610   19.1210   72.0860 Zn       14 ZIL7        0.0000 
     62 Zn        -27.3560   19.0425   71.8075 Zn        4 ZIC7        0.0000 
     63 Zn        -28.6510   18.9640   71.5290 Zn        9 ZIP7        0.0000 
     64 CA        -23.2585   23.3965   75.6170 C.3       5 GLC5        0.0000 
     65 CA        -24.4350   22.0490   76.0960 C.3      15 GLL5        0.0000 
     66 CA        -22.1570   24.3790   74.4720 C.3      10 GLP5        0.0000 
     67 CA        -19.2189   21.8460   78.9534 C.3       5 GLC5        0.0000 
     68 CA        -20.0060   22.2250   77.1800 C.3      15 GLL5        0.0000 
     69 CA        -22.6985   16.4170   68.5560 C.3       5 GLC5        0.0000 
     70 CA        -23.9320   15.9660   67.0550 C.3      10 GLP5        0.0000 
     71 CA        -19.0850   20.2758   70.3355 C.3       5 GLC5        0.0000 
     72 CA        -19.8110   18.6320   69.3360 C.3      15 GLL5        0.0000 
     73 CA        -18.5720   22.1730   70.6440 C.3      10 GLP5        0.0000 
@<TRIPOS>BOND
@<TRIPOS>SUBSTRUCTURE
     1 ALC1        4 GROUP        1 X    ALC  0     ROOT ALC X 1
     2 SEC2       10 GROUP        1 X    SEC  0     **** SEC X 2
     3 LYC4       29 GROUP        1 X    LYC  0     **** LYC X 4
     4 ZIC7       48 GROUP        1 X    ZIC  0     **** ZIC X 5
     5 GLC5        1 GROUP        1 X    GLC  0     **** GLC X 6
     6 ALP1        6 GROUP        1 Y    ALP  0     ROOT ALP Y 8
     7 SEP2       12 GROUP        1 Y    SEP  0     **** SEP Y 9
     8 LYP4       31 GROUP        1 Y    LYP  0     **** LYP Y 11
     9 ZIP7       50 GROUP        1 Y    ZIP  0     **** ZIP Y 12
    10 GLP5        3 GROUP        1 Y    GLP  0     **** GLP Y 13
    11 ALL1        5 GROUP        1 Z    ALL  0     ROOT ALL Z 15
    12 SEL2       11 GROUP        1 Z    SEL  0     **** SEL Z 16
    13 LYL4       30 GROUP        1 Z    LYL  0     **** LYL Z 18
    14 ZIL7       49 GROUP        1 Z    ZIL  0     **** ZIL Z 19
    15 GLL5        2 GROUP        1 Z    GLL  0     **** GLL Z 20
@<TRIPOS>SET

