#    Name: 3bm4_ADV_2_ligand
#    Modification time : Mon Mar 24 19:52:16 2014

@<TRIPOS>MOLECULE
3bm4_ADV_2_ligand
   59    62     1     0     0
SMALL
NO_CHARGES


@<TRIPOS>ATOM
      1 PA        -25.3810   18.6090   73.2960 P.3       1 ADV402      0.0000 
      2 O5'       -25.2730   19.7940   74.3810 O.3       1 ADV402      0.0000 
      3 C5'       -24.5790   19.5640   75.6110 C.3       1 ADV402      0.0000 
      4 C4'       -24.8470   20.6760   76.6270 C.3       1 ADV402      0.0000 
      5 O4'       -24.1060   20.4850   77.8460 O.3       1 ADV402      0.0000 
      6 C3'       -24.4350   22.0490   76.0960 C.3       1 ADV402      0.0000 
      7 O3'       -25.5230   22.6190   75.3630 O.3       1 ADV402      0.0000 
      8 C2'       -24.2850   22.7790   77.4280 C.3       1 ADV402      0.0000 
      9 O2'       -25.5630   22.9090   78.0580 O.3       1 ADV402      0.0000 
     10 C1'       -23.4600   21.7290   78.1720 C.3       1 ADV402      0.0000 
     11 N9        -22.0840   21.7130   77.6260 N.pl3     1 ADV402      0.0000 
     12 C8        -21.5420   20.7470   76.8860 C.2       1 ADV402      0.0000 
     13 N7        -20.2760   21.0530   76.6110 N.2       1 ADV402      0.0000 
     14 C5        -20.0060   22.2250   77.1800 C.ar      1 ADV402      0.0000 
     15 C6        -18.8770   23.0290   77.2510 C.ar      1 ADV402      0.0000 
     16 N6        -17.7480   22.6660   76.6490 N.pl3     1 ADV402      0.0000 
     17 N1        -18.9420   24.1790   77.9380 N.ar      1 ADV402      0.0000 
     18 C2        -20.0590   24.5510   78.5380 C.ar      1 ADV402      0.0000 
     19 N3        -21.1520   23.8110   78.4900 N.ar      1 ADV402      0.0000 
     20 C4        -21.1600   22.6470   77.8240 C.ar      1 ADV402      0.0000 
     21 CX        -23.6480   18.2900   72.8850 C.3       1 ADV402      0.0000 
     22 PB        -23.1220   19.3040   71.4830 P.3       1 ADV402      0.0000 
     23 O1B       -22.5990   20.5950   71.9830 O.co2     1 ADV402      0.0000 
     24 OR5       -21.8790   18.4630   70.9050 O.3       1 ADV402      0.0000 
     25 CR5       -22.0840   17.1340   70.4200 C.3       1 ADV402      0.0000 
     26 CR4       -20.8460   16.6020   69.6940 C.3       1 ADV402      0.0000 
     27 OR4       -20.4390   17.5220   68.6690 O.3       1 ADV402      0.0000 
     28 CR3       -19.6300   16.6210   70.6200 C.3       1 ADV402      0.0000 
     29 OR3       -18.5470   15.9850   69.9360 O.3       1 ADV402      0.0000 
     30 CR2       -19.3850   18.1250   70.7180 C.3       1 ADV402      0.0000 
     31 OR2       -17.9910   18.3710   70.9160 O.3       1 ADV402      0.0000 
     32 CR1       -19.8110   18.6320   69.3360 C.3       1 ADV402      0.0000 
     33 OR1       -18.6690   19.0630   68.5900 O.3       1 ADV402      0.0000 
     34 O2A       -25.9250   17.3930   73.9410 O.co2     1 ADV402      0.0000 
     35 O2B       -24.1730   19.3200   70.4440 O.co2     1 ADV402      0.0000 
     36 O1A       -26.0610   19.1210   72.0860 O.co2     1 ADV402      0.0000 
     37 H         -23.4877   19.5108   75.4560 H         1 ADV402      0.0000 
     38 H         -24.8824   18.6096   76.0745 H         1 ADV402      0.0000 
     39 H         -25.9083   20.7143   76.8363 H         1 ADV402      0.0000 
     40 H         -23.5381   21.9877   75.6258 H         1 ADV402      0.0000 
     41 H         -23.7381   23.6264   77.3043 H         1 ADV402      0.0000 
     42 H         -23.4814   21.9313   79.1918 H         1 ADV402      0.0000 
     43 H         -22.0048   19.9357   76.5897 H         1 ADV402      0.0000 
     44 H         -16.9751   23.2926   76.7486 H         1 ADV402      0.0000 
     45 H         -17.7739   21.7992   76.1511 H         1 ADV402      0.0000 
     46 H         -20.0782   25.4691   79.0728 H         1 ADV402      0.0000 
     47 H         -23.5893   17.3068   72.5817 H         1 ADV402      0.0000 
     48 H         -23.0886   18.5894   73.6972 H         1 ADV402      0.0000 
     49 H         -22.9298   17.0863   69.7130 H         1 ADV402      0.0000 
     50 H         -22.3141   16.4337   71.2410 H         1 ADV402      0.0000 
     51 H         -20.9916   15.6414   69.3319 H         1 ADV402      0.0000 
     52 H         -19.8828   16.2396   71.5307 H         1 ADV402      0.0000 
     53 H         -20.0107   18.5309   71.4412 H         1 ADV402      0.0000 
     54 H         -20.5135   19.4258   69.4844 H         1 ADV402      0.0000 
     55 H         -25.8478   21.8836   74.7683 H         1 ADV402      0.0000 
     56 H         -26.2126   23.0175   77.3054 H         1 ADV402      0.0000 
     57 H         -17.8370   16.6858   69.8678 H         1 ADV402      0.0000 
     58 H         -17.6926   18.8481   70.0894 H         1 ADV402      0.0000 
     59 H         -18.8159   18.7108   67.6657 H         1 ADV402      0.0000 
@<TRIPOS>BOND
     1    2    1 1    
     2   21    1 1    
     3   34    1 ar   
     4   36    1 ar   
     5    3    2 1    
     6    4    3 1    
     7   37    3 1    
     8   38    3 1    
     9    5    4 1    
    10    6    4 1    
    11   39    4 1    
    12   10    5 1    
    13    7    6 1    
    14    8    6 1    
    15   40    6 1    
    16   55    7 1    
    17    9    8 1    
    18   10    8 1    
    19   41    8 1    
    20   56    9 1    
    21   11   10 1    
    22   42   10 1    
    23   12   11 1    
    24   20   11 1    
    25   13   12 2    
    26   43   12 1    
    27   14   13 1    
    28   15   14 ar   
    29   20   14 ar   
    30   16   15 1    
    31   17   15 ar   
    32   44   16 1    
    33   45   16 1    
    34   18   17 ar   
    35   19   18 ar   
    36   46   18 1    
    37   20   19 ar   
    38   22   21 1    
    39   47   21 1    
    40   48   21 1    
    41   23   22 ar   
    42   24   22 1    
    43   35   22 ar   
    44   25   24 1    
    45   26   25 1    
    46   49   25 1    
    47   50   25 1    
    48   27   26 1    
    49   28   26 1    
    50   51   26 1    
    51   32   27 1    
    52   29   28 1    
    53   30   28 1    
    54   52   28 1    
    55   57   29 1    
    56   31   30 1    
    57   32   30 1    
    58   53   30 1    
    59   58   31 1    
    60   33   32 1    
    61   54   32 1    
    62   59   33 1    
@<TRIPOS>SUBSTRUCTURE
     1 ADV402      1 GROUP   
@<TRIPOS>SET

