#    Name: 1GN8_1_CAVITY_N1_6.mol2
#    Modification time : Tue Mar 11 02:07:56 2014

@<TRIPOS>MOLECULE
1GN8_1_CAVITY_N1_6.mol2
   88     0     7     0     0
SMALL
NO_CHARGES


@<TRIPOS>ATOM
      1 CA         23.5778   22.4249   42.9576 C.3       6 GLY6        0.0000 
      2 N          23.4167   20.3683   42.4631 N.2       2 ALA2        0.0000 
      3 O          23.0935   21.6557   41.7643 O.2       2 ALA2        0.0000 
      4 CA         22.9324   19.5991   41.2699 C.3       6 GLY6        0.0000 
      5 O          22.6093   20.8865   40.5711 O.2       2 ALA2        0.0000 
      6 NZ         20.9937   27.3233   37.0772 N.2       4 LYS4        0.0000 
      7 CZ         20.1863   27.8414   35.1852 C.ar      5 PHE5        0.0000 
      8 OD1        19.7020   27.0722   33.9920 O.3       3 ASP3        0.0000 
      9 OD1        20.5103   21.1535   35.5939 O.3       3 ASP3        0.0000 
     10 CA         22.3565   24.4501   44.0333 C.3       6 GLY6        0.0000 
     11 CA         22.1954   22.3935   43.5389 C.3       6 GLY6        0.0000 
     12 CA         21.8722   23.6808   42.8401 C.3       6 GLY6        0.0000 
     13 O          21.5491   24.9682   42.1413 O.2       2 ALA2        0.0000 
     14 N          21.2260   26.2556   41.4426 N.2       2 ALA2        0.0000 
     15 OG         22.0342   20.3369   43.0444 O.2       1 SER1        0.0000 
     16 N          21.7111   21.6242   42.3456 N.2       2 ALA2        0.0000 
     17 O          21.3880   22.9116   41.6469 O.2       2 ALA2        0.0000 
     18 OD1        21.0649   24.1990   40.9481 O.3       3 ASP3        0.0000 
     19 O          20.7417   25.4863   40.2493 O.2       2 ALA2        0.0000 
     20 O          20.4186   26.7737   39.5506 O.2       2 ALA2        0.0000 
     21 N          21.2269   20.8550   41.1524 N.2       2 ALA2        0.0000 
     22 O          20.5806   23.4297   39.7549 O.2       2 ALA2        0.0000 
     23 O          20.2575   24.7171   39.0561 O.2       2 ALA2        0.0000 
     24 OD1        19.9344   26.0045   38.3573 O.3       3 ASP3        0.0000 
     25 O          19.6112   27.2918   37.6586 O.2       2 ALA2        0.0000 
     26 N          20.4195   21.3732   39.2604 N.2       2 ALA2        0.0000 
     27 OD1        20.0964   22.6605   38.5616 O.3       3 ASP3        0.0000 
     28 OD1        19.7732   23.9479   37.8629 O.3       3 ASP3        0.0000 
     29 OD1        19.1270   26.5226   36.4653 O.3       3 ASP3        0.0000 
     30 O          18.8039   27.8100   35.7666 O.2       2 ALA2        0.0000 
     31 OG         19.9352   20.6039   38.0672 O.2       1 SER1        0.0000 
     32 OD1        19.6121   21.8913   37.3684 O.3       3 ASP3        0.0000 
     33 OD1        18.3196   27.0407   34.5733 O.3       3 ASP3        0.0000 
     34 OG         17.9965   28.3281   33.8746 O.2       1 SER1        0.0000 
     35 OD1        19.1278   21.1221   36.1752 O.3       3 ASP3        0.0000 
     36 OG         20.4898   23.6494   43.4214 O.2       1 SER1        0.0000 
     37 OG         20.1667   24.9367   42.7226 O.2       1 SER1        0.0000 
     38 O          19.8436   26.2241   42.0239 O.2       2 ALA2        0.0000 
     39 O          19.5204   27.5115   41.3251 O.2       2 ALA2        0.0000 
     40 CA         19.6824   24.1675   41.5294 C.3       6 GLY6        0.0000 
     41 DU         19.3593   25.4549   40.8306 H         7 CUB7        0.0000 
     42 O          19.0362   26.7422   40.1319 O.2       2 ALA2        0.0000 
     43 N          19.1982   23.3983   40.3362 N.2       2 ALA2        0.0000 
     44 DU         18.8751   24.6857   39.6374 H         7 CUB7        0.0000 
     45 O          18.5519   25.9730   38.9386 O.2       2 ALA2        0.0000 
     46 N          18.7139   22.6291   39.1430 N.2       2 ALA2        0.0000 
     47 OD1        18.3908   23.9164   38.4442 O.3       3 ASP3        0.0000 
     48 OD1        18.0677   25.2038   37.7454 O.3       3 ASP3        0.0000 
     49 O          17.7446   26.4912   37.0466 O.2       2 ALA2        0.0000 
     50 N          18.2297   21.8598   37.9497 N.2       2 ALA2        0.0000 
     51 OD1        17.9066   23.1472   37.2510 O.3       3 ASP3        0.0000 
     52 OD1        17.5834   24.4346   36.5522 O.3       3 ASP3        0.0000 
     53 OD1        17.2603   25.7219   35.8534 O.3       3 ASP3        0.0000 
     54 O          16.9372   27.0093   35.1546 O.2       2 ALA2        0.0000 
     55 OG         16.6140   28.2967   34.4559 O.2       1 SER1        0.0000 
     56 OG         17.4223   22.3780   36.0577 O.2       1 SER1        0.0000 
     57 OG         17.0992   23.6653   35.3590 O.2       1 SER1        0.0000 
     58 OD1        16.7760   24.9527   34.6602 O.3       3 ASP3        0.0000 
     59 DU         16.4529   26.2401   33.9614 H         7 CUB7        0.0000 
     60 OG         16.1298   27.5274   33.2626 O.2       1 SER1        0.0000 
     61 OG         18.4612   26.1926   42.6052 O.2       1 SER1        0.0000 
     62 O          18.1380   27.4800   41.9064 O.2       2 ALA2        0.0000 
     63 OG         17.9769   25.4234   41.4120 O.2       1 SER1        0.0000 
     64 N          17.6538   26.7108   40.7132 N.2       2 ALA2        0.0000 
     65 OD1        17.3306   27.9982   40.0144 O.3       3 ASP3        0.0000 
     66 N          17.4926   24.6542   40.2187 N.2       2 ALA2        0.0000 
     67 N          17.1695   25.9416   39.5200 N.2       2 ALA2        0.0000 
     68 O          16.8464   27.2289   38.8212 O.2       2 ALA2        0.0000 
     69 CA         17.0084   23.8850   39.0255 C.3       6 GLY6        0.0000 
     70 CA         16.6853   25.1723   38.3267 C.3       6 GLY6        0.0000 
     71 O          16.3621   26.4597   37.6279 O.2       2 ALA2        0.0000 
     72 O          16.0390   27.7471   36.9292 O.2       2 ALA2        0.0000 
     73 O          16.5241   23.1158   37.8323 O.2       2 ALA2        0.0000 
     74 CA         16.2010   24.4031   37.1335 C.3       6 GLY6        0.0000 
     75 CA         15.8779   25.6905   36.4347 C.3       6 GLY6        0.0000 
     76 O          15.5548   26.9778   35.7359 O.2       2 ALA2        0.0000 
     77 O          15.7168   23.6339   35.9403 O.2       2 ALA2        0.0000 
     78 O          15.3936   24.9213   35.2415 O.2       2 ALA2        0.0000 
     79 DU         15.0705   26.2086   34.5427 H         7 CUB7        0.0000 
     80 CA         14.9094   24.1520   34.0483 C.3       6 GLY6        0.0000 
     81 CA         14.5862   25.4394   33.3495 C.3       6 GLY6        0.0000 
     82 N          16.2714   26.6793   41.2945 N.2       2 ALA2        0.0000 
     83 N          16.1102   24.6227   40.8000 N.2       2 ALA2        0.0000 
     84 O          14.6566   27.7156   37.5105 O.2       2 ALA2        0.0000 
     85 CA         14.1723   26.9464   36.3173 C.3       6 GLY6        0.0000 
     86 CA         14.0112   24.8898   35.8228 C.3       6 GLY6        0.0000 
     87 CA         13.6881   26.1772   35.1240 C.3       6 GLY6        0.0000 
     88 O          12.7899   26.9149   36.8986 O.2       2 ALA2        0.0000 
@<TRIPOS>BOND
@<TRIPOS>SUBSTRUCTURE
     1 SER1       15 GROUP   
     2 ALA2        2 GROUP   
     3 ASP3        8 GROUP   
     4 LYS4        6 GROUP   
     5 PHE5        7 GROUP   
     6 GLY6        1 GROUP   
     7 CUB7       41 GROUP   
@<TRIPOS>SET

