#    Name: 1gn8_ATP_1_INTS_M
#    Modification time : Tue Mar 25 03:21:35 2014

@<TRIPOS>MOLECULE
1gn8_ATP_1_INTS_M
   66     0    15     0     0
SMALL
NO_CHARGES


@<TRIPOS>ATOM
      1 N          23.7750   19.7700   35.9330 N.am      2 SEC2        0.0000 
      2 N          22.4090   19.7980   35.4970 N.am     12 SEL2        0.0000 
      3 N          25.1410   19.7420   36.3690 N.am      7 SEP2        0.0000 
      4 N          22.2245   18.6765   35.3480 N.am      2 SEC2        0.0000 
      5 N          22.0400   17.5550   35.1990 N.am      7 SEP2        0.0000 
      6 N          23.0650   19.4590   34.4395 N.am      2 SEC2        0.0000 
      7 N          23.7210   19.1200   33.3820 N.am      7 SEP2        0.0000 
      8 Zn         21.1905   23.2070   35.1265 Zn        4 ZIC7        0.0000 
      9 Zn         21.9450   22.1840   34.7900 Zn       14 ZIL7        0.0000 
     10 Zn         20.4360   24.2300   35.4630 Zn        9 ZIP7        0.0000 
     11 NZ         22.0830   24.0845   37.9635 N.4       3 LYC4        0.0000 
     12 NZ         20.8930   23.1670   37.6670 N.4      13 LYL4        0.0000 
     13 NZ         23.8140   24.2050   39.1700 N.4       8 LYP4        0.0000 
     14 Zn         20.6645   23.6985   36.5650 Zn        4 ZIC7        0.0000 
     15 Zn         20.8930   23.1670   37.6670 Zn       14 ZIL7        0.0000 
     16 N          22.0830   24.0845   37.9635 N.am      2 SEC2        0.0000 
     17 N          20.8930   23.1670   37.6670 N.am     12 SEL2        0.0000 
     18 N          23.2730   25.0020   38.2600 N.am      7 SEP2        0.0000 
     19 N          22.2240   23.0350   38.4075 N.am      2 SEC2        0.0000 
     20 N          23.5550   22.9030   39.1480 N.am      7 SEP2        0.0000 
     21 N          22.3795   21.8575   38.8295 N.am      2 SEC2        0.0000 
     22 N          21.2040   20.8120   38.5110 N.am     12 SEL2        0.0000 
     23 N          21.6430   19.6350   38.2170 N.am      2 SEC2        0.0000 
     24 N          22.0820   18.4580   37.9230 N.am      7 SEP2        0.0000 
     25 Zn         19.3720   23.6830   35.9940 Zn        4 ZIC7        0.0000 
     26 Zn         18.3080   23.1360   36.5250 Zn       14 ZIL7        0.0000 
     27 N          15.1195   22.3930   37.6845 N.am      2 SEC2        0.0000 
     28 N          16.6710   22.3790   38.3020 N.am     12 SEL2        0.0000 
     29 N          13.5680   22.4070   37.0670 N.am      7 SEP2        0.0000 
     30 N          18.5785   21.3250   39.7995 N.am      2 SEC2        0.0000 
     31 N          18.9430   21.6360   38.3410 N.am     12 SEL2        0.0000 
     32 N          18.2140   21.0140   41.2580 N.am      7 SEP2        0.0000 
     33 CA         15.4385   24.6490   38.9555 C.3       5 GLC5        0.0000 
     34 CA         17.4410   24.8630   39.4800 C.3      15 GLL5        0.0000 
     35 CA         13.4360   24.4350   38.4310 C.3      10 GLP5        0.0000 
     36 CA         17.0875   26.0615   42.3365 C.3       5 GLC5        0.0000 
     37 CA         18.0330   25.8470   40.5040 C.3      15 GLL5        0.0000 
     38 CA         16.1420   26.2760   44.1690 C.3      10 GLP5        0.0000 
     39 N          18.1240   24.7620   43.0090 N.am      2 SEC2        0.0000 
     40 N          18.7150   25.1760   41.5970 N.am     12 SEL2        0.0000 
     41 N          17.5330   24.3480   44.4210 N.am      7 SEP2        0.0000 
     42 N          19.3165   28.5095   41.9500 N.am      2 SEC2        0.0000 
     43 N          18.9600   28.0750   40.4630 N.am     12 SEL2        0.0000 
     44 N          19.6730   28.9440   43.4370 N.am      7 SEP2        0.0000 
     45 O          21.7465   27.9715   41.1375 O.2       1 ALC1        0.0000 
     46 O          21.4610   27.0290   40.2010 O.2      11 ALL1        0.0000 
     47 O          22.0320   28.9140   42.0740 O.2       6 ALP1        0.0000 
     48 CA         20.4870   26.9300   42.8070 C.3       5 GLC5        0.0000 
     49 CA         20.1310   25.4860   41.5450 C.3      15 GLL5        0.0000 
     50 CA         20.8430   28.3740   44.0690 C.3      10 GLP5        0.0000 
     51 CA         22.7080   21.2630   44.8465 C.3       5 GLC5        0.0000 
     52 CA         23.4090   22.4290   43.4970 C.3      15 GLL5        0.0000 
     53 CA         22.0070   20.0970   46.1960 C.3      10 GLP5        0.0000 
     54 O          25.3155   21.3695   44.0215 O.2       1 ALC1        0.0000 
     55 O          24.0080   21.2370   43.4520 O.2      11 ALL1        0.0000 
     56 O          26.6230   21.5020   44.5910 O.2       6 ALP1        0.0000 
     57 CA         21.7730   24.8930   45.7105 C.3       5 GLC5        0.0000 
     58 CA         23.1680   24.5270   44.5540 C.3      15 GLL5        0.0000 
     59 CA         20.3780   25.2590   46.8670 C.3      10 GLP5        0.0000 
     60 CA         24.4175   24.6520   43.4335 C.3       5 GLC5        0.0000 
     61 CA         25.6670   24.7770   42.3130 C.3      10 GLP5        0.0000 
     62 CA         24.3625   24.8445   45.6425 C.3       5 GLC5        0.0000 
     63 CA         25.5570   25.1620   46.7310 C.3      10 GLP5        0.0000 
     64 CA         23.8252   23.6401   42.0200 C.3       5 GLC5        0.0000 
     65 CA         22.4190   22.8300   42.5650 C.3      15 GLL5        0.0000 
     66 CA         25.2490   23.9150   41.1490 C.3      10 GLP5        0.0000 
@<TRIPOS>BOND
@<TRIPOS>SUBSTRUCTURE
     1 ALC1       45 GROUP        1 X    ALC  0     ROOT ALC X 1
     2 SEC2        1 GROUP        1 X    SEC  0     **** SEC X 2
     3 LYC4       11 GROUP        1 X    LYC  0     **** LYC X 4
     4 ZIC7        8 GROUP        1 X    ZIC  0     **** ZIC X 5
     5 GLC5       33 GROUP        1 X    GLC  0     **** GLC X 6
     6 ALP1       47 GROUP        1 Y    ALP  0     ROOT ALP Y 8
     7 SEP2        3 GROUP        1 Y    SEP  0     **** SEP Y 9
     8 LYP4       13 GROUP        1 Y    LYP  0     **** LYP Y 11
     9 ZIP7       10 GROUP        1 Y    ZIP  0     **** ZIP Y 12
    10 GLP5       35 GROUP        1 Y    GLP  0     **** GLP Y 13
    11 ALL1       46 GROUP        1 Z    ALL  0     ROOT ALL Z 15
    12 SEL2        2 GROUP        1 Z    SEL  0     **** SEL Z 16
    13 LYL4       12 GROUP        1 Z    LYL  0     **** LYL Z 18
    14 ZIL7        9 GROUP        1 Z    ZIL  0     **** ZIL Z 19
    15 GLL5       34 GROUP        1 Z    GLL  0     **** GLL Z 20
@<TRIPOS>SET

