#    Name: 1gn8_ATP_1_ligand
#    Modification time : Tue Mar 25 03:21:35 2014

@<TRIPOS>MOLECULE
1gn8_ATP_1_ligand
   43    45     1     0     0
SMALL
NO_CHARGES


@<TRIPOS>ATOM
      1 PG         21.3110   20.8810   35.0800 P.3       1 ATP700      0.0000 
      2 O1G        22.4090   19.7980   35.4970 O.co2     1 ATP700      0.0000 
      3 O2G        21.9450   22.1840   34.7900 O.co2     1 ATP700      0.0000 
      4 O3G        20.4770   20.3880   33.8070 O.co2     1 ATP700      0.0000 
      5 PB         20.3010   21.6660   37.7170 P.3       1 ATP700      0.0000 
      6 O1B        20.8930   23.1670   37.6670 O.co2     1 ATP700      0.0000 
      7 O2B        21.2040   20.8120   38.5110 O.co2     1 ATP700      0.0000 
      8 O3B        20.2040   21.0520   36.2310 O.3       1 ATP700      0.0000 
      9 PA         18.0510   22.7710   37.9360 P.3       1 ATP700      0.0000 
     10 O1A        18.3080   23.1360   36.5250 O.co2     1 ATP700      0.0000 
     11 O2A        16.6710   22.3790   38.3020 O.co2     1 ATP700      0.0000 
     12 O3A        18.9430   21.6360   38.3410 O.3       1 ATP700      0.0000 
     13 O5'        18.4410   24.0510   38.8410 O.3       1 ATP700      0.0000 
     14 C5'        17.4410   24.8630   39.4800 C.3       1 ATP700      0.0000 
     15 C4'        18.0330   25.8470   40.5040 C.3       1 ATP700      0.0000 
     16 O4'        18.7150   25.1760   41.5970 O.3       1 ATP700      0.0000 
     17 C3'        19.0510   26.7720   39.8730 C.3       1 ATP700      0.0000 
     18 O3'        18.9600   28.0750   40.4630 O.3       1 ATP700      0.0000 
     19 C2'        20.3720   26.1110   40.1860 C.3       1 ATP700      0.0000 
     20 O2'        21.4610   27.0290   40.2010 O.3       1 ATP700      0.0000 
     21 C1'        20.1310   25.4860   41.5450 C.3       1 ATP700      0.0000 
     22 N9         20.9590   24.2830   41.7560 N.pl3     1 ATP700      0.0000 
     23 C8         21.0090   23.1120   41.0580 C.2       1 ATP700      0.0000 
     24 N7         21.8350   22.2050   41.4680 N.2       1 ATP700      0.0000 
     25 C5         22.4190   22.8300   42.5650 C.ar      1 ATP700      0.0000 
     26 C6         23.4090   22.4290   43.4970 C.ar      1 ATP700      0.0000 
     27 N6         24.0080   21.2370   43.4520 N.pl3     1 ATP700      0.0000 
     28 N1         23.7580   23.3130   44.4820 N.ar      1 ATP700      0.0000 
     29 C2         23.1680   24.5270   44.5540 C.ar      1 ATP700      0.0000 
     30 N3         22.2230   25.0050   43.7240 N.ar      1 ATP700      0.0000 
     31 C4         21.8890   24.1010   42.7510 C.ar      1 ATP700      0.0000 
     32 H          16.6971   24.2401   40.0134 H         1 ATP700      0.0000 
     33 H          16.8734   25.4594   38.7397 H         1 ATP700      0.0000 
     34 H          17.2281   26.4626   40.8969 H         1 ATP700      0.0000 
     35 H          18.9033   26.7699   38.8257 H         1 ATP700      0.0000 
     36 H          20.5083   25.3058   39.4828 H         1 ATP700      0.0000 
     37 H          20.3622   26.2361   42.2937 H         1 ATP700      0.0000 
     38 H          20.3953   22.9871   40.2361 H         1 ATP700      0.0000 
     39 H          23.4681   20.4874   43.0691 H         1 ATP700      0.0000 
     40 H          24.9428   21.2007   43.8052 H         1 ATP700      0.0000 
     41 H          23.4897   25.1784   45.3614 H         1 ATP700      0.0000 
     42 H          19.3349   28.6970   39.7756 H         1 ATP700      0.0000 
     43 H          21.2408   27.6798   40.9277 H         1 ATP700      0.0000 
@<TRIPOS>BOND
     1    2    1 ar   
     2    3    1 ar   
     3    4    1 ar   
     4    8    1 1    
     5    6    5 ar   
     6    7    5 ar   
     7    8    5 1    
     8   12    5 1    
     9   10    9 ar   
    10   11    9 ar   
    11   12    9 1    
    12   13    9 1    
    13   14   13 1    
    14   15   14 1    
    15   32   14 1    
    16   33   14 1    
    17   16   15 1    
    18   17   15 1    
    19   34   15 1    
    20   21   16 1    
    21   18   17 1    
    22   19   17 1    
    23   35   17 1    
    24   42   18 1    
    25   20   19 1    
    26   21   19 1    
    27   36   19 1    
    28   43   20 1    
    29   22   21 1    
    30   37   21 1    
    31   23   22 1    
    32   31   22 1    
    33   24   23 2    
    34   38   23 1    
    35   25   24 1    
    36   26   25 ar   
    37   31   25 ar   
    38   27   26 1    
    39   28   26 ar   
    40   39   27 1    
    41   40   27 1    
    42   29   28 ar   
    43   30   29 ar   
    44   41   29 1    
    45   31   30 ar   
@<TRIPOS>SUBSTRUCTURE
     1 ATP700      1 GROUP   
@<TRIPOS>SET

