#    Name: 3b8r_887_1_INTS_M
#    Modification time : Mon Mar 24 19:08:48 2014

@<TRIPOS>MOLECULE
3b8r_887_1_INTS_M
   94     0     9     0     0
SMALL
NO_CHARGES


@<TRIPOS>ATOM
      1 CA          8.7900   -1.5150   59.4875 C.3       3 GLC5        0.0000 
      2 CA          9.6630   -0.9740   57.7900 C.3       9 GLL5        0.0000 
      3 CA          7.9170   -2.0560   61.1850 C.3       6 GLP5        0.0000 
      4 CA          8.1245   -2.5210   58.5580 C.3       3 GLC5        0.0000 
      5 CA          8.2800   -0.9800   57.4030 C.3       9 GLL5        0.0000 
      6 CA          7.9690   -4.0620   59.7130 C.3       6 GLP5        0.0000 
      7 CA          8.2765   -3.0370   56.5910 C.3       3 GLC5        0.0000 
      8 CA          8.2730   -5.0940   55.7790 C.3       6 GLP5        0.0000 
      9 CA         11.3615    2.1440   56.7095 C.3       3 GLC5        0.0000 
     10 CA          9.7940    1.4620   57.4040 C.3       9 GLL5        0.0000 
     11 CA         12.9290    2.8260   56.0150 C.3       6 GLP5        0.0000 
     12 CA         12.2570   -0.5935   56.9500 C.3       3 GLC5        0.0000 
     13 CA         10.4050    0.2470   57.7900 C.3       9 GLL5        0.0000 
     14 CA         14.1090   -1.4340   56.1100 C.3       6 GLP5        0.0000 
     15 CA         12.0900    1.1905   57.6310 C.3       3 GLC5        0.0000 
     16 CA         13.7750    2.1340   57.4720 C.3       6 GLP5        0.0000 
     17 CA          5.5765    4.4820   57.1695 C.3       3 GLC5        0.0000 
     18 CA          6.3430    2.6620   56.2200 C.3       9 GLL5        0.0000 
     19 CA          4.8100    6.3020   58.1190 C.3       6 GLP5        0.0000 
     20 CA         13.9190   -4.8350   55.1310 C.3       3 GLC5        0.0000 
     21 CA         12.5220   -4.8930   56.8690 C.3       9 GLL5        0.0000 
     22 CA         15.3160   -4.7770   53.3930 C.3       6 GLP5        0.0000 
     23 N          12.8615   -5.4685   54.3055 N.am      2 SEC2        0.0000 
     24 N          12.3780   -4.7020   55.5000 N.am      8 SEL2        0.0000 
     25 N          13.3450   -6.2350   53.1110 N.am      5 SEP2        0.0000 
     26 CA         11.3365   -5.1880   53.6595 C.3       3 GLC5        0.0000 
     27 CA         11.5960   -3.7000   54.9880 C.3       9 GLL5        0.0000 
     28 CA         11.0770   -6.6760   52.3310 C.3       6 GLP5        0.0000 
     29 CA         13.1060   -3.5940   53.6735 C.3       3 GLC5        0.0000 
     30 CA         14.6160   -3.4880   52.3590 C.3       6 GLP5        0.0000 
     31 CA         10.9015   -1.2400   54.2735 C.3       3 GLC5        0.0000 
     32 CA         10.8780   -2.8110   55.8210 C.3       9 GLL5        0.0000 
     33 CA         10.9250    0.3310   52.7260 C.3       6 GLP5        0.0000 
     34 CA         11.6280   -6.2690   60.7260 C.3       3 GLC5        0.0000 
     35 CA         12.7810   -5.2430   59.7160 C.3       9 GLL5        0.0000 
     36 CA         10.4750   -7.2950   61.7360 C.3       6 GLP5        0.0000 
     37 CA         15.6745   -5.9365   58.5120 C.3       3 GLC5        0.0000 
     38 CA         13.4880   -6.1150   58.8180 C.3       9 GLL5        0.0000 
     39 CA         17.8610   -5.7580   58.2060 C.3       6 GLP5        0.0000 
     40 CA         13.0200   -8.7790   59.5685 C.3       3 GLC5        0.0000 
     41 CA         14.7210   -8.2170   58.5470 C.3       9 GLL5        0.0000 
     42 CA         11.3190   -9.3410   60.5900 C.3       6 GLP5        0.0000 
     43 CA         13.4790   -9.2545   57.1665 C.3       3 GLC5        0.0000 
     44 CA         12.2370  -10.2920   55.7860 C.3       6 GLP5        0.0000 
     45 CA         16.2910   -6.9875   58.3765 C.3       3 GLC5        0.0000 
     46 CA         11.7140   -5.7270   61.8390 C.3       3 GLC5        0.0000 
     47 CA         12.9530   -4.1590   61.9420 C.3       9 GLL5        0.0000 
     48 O           6.6000    4.7675   58.0540 O.2       1 ALC1        0.0000 
     49 O           7.5770    5.1570   56.8120 O.2       7 ALL1        0.0000 
     50 O           5.6230    4.3780   59.2960 O.2       4 ALP1        0.0000 
     51 CA          9.7190    6.2325   57.7180 C.3       3 GLC5        0.0000 
     52 CA          8.0770    6.5130   56.8010 C.3       9 GLL5        0.0000 
     53 CA         11.3610    5.9520   58.6350 C.3       6 GLP5        0.0000 
     54 N          10.6600    4.7095   56.8395 N.am      2 SEC2        0.0000 
     55 N           9.5720    4.2070   56.2470 N.am      8 SEL2        0.0000 
     56 N          11.7480    5.2120   57.4320 N.am      5 SEP2        0.0000 
     57 CA          7.1595    6.1930   53.8510 C.3       3 GLC5        0.0000 
     58 CA          8.0550    6.8510   55.3300 C.3       9 GLL5        0.0000 
     59 CA          6.2640    5.5350   52.3720 C.3       6 GLP5        0.0000 
     60 CA          7.1460    0.4913   58.7413 C.3       3 GLC5        0.0000 
     61 CA          7.6460    0.2470   57.0080 C.3       9 GLL5        0.0000 
     62 CA          6.3290    1.3490   60.2770 C.3       6 GLP5        0.0000 
     63 CA          6.8617    0.0932   54.9465 C.3       3 GLC5        0.0000 
     64 CA          6.7610   -0.0500   53.0750 C.3       6 GLP5        0.0000 
     65 CA          5.0057    0.2112   57.8623 C.3       3 GLC5        0.0000 
     66 CA          6.2790    0.2260   56.6280 C.3       9 GLL5        0.0000 
     67 CA          4.0530   -0.4060   59.2910 C.3       6 GLP5        0.0000 
     68 CA          4.2922    1.9417   55.3702 C.3       3 GLC5        0.0000 
     69 CA          2.5940    1.8370   54.5110 C.3       6 GLP5        0.0000 
     70 CA          6.3758    0.9983   54.6522 C.3       3 GLC5        0.0000 
     71 CA          5.6380    1.4310   56.2390 C.3       9 GLL5        0.0000 
     72 CA          6.7635    1.8710   58.3923 C.3       3 GLC5        0.0000 
     73 CA          6.3424    3.3346   54.7439 C.3       3 GLC5        0.0000 
     74 CA          7.7130    2.7420   56.5880 C.3       9 GLL5        0.0000 
     75 CA          5.8330    4.2750   53.0790 C.3       6 GLP5        0.0000 
     76 CA         10.1166   -4.6435   56.4836 C.3       3 GLC5        0.0000 
     77 CA         13.0346   -2.8135   56.6491 C.3       3 GLC5        0.0000 
     78 CA         10.9850   -2.9670   57.2490 C.3       9 GLL5        0.0000 
     79 CA          9.7550   -4.1748   55.5917 C.3       3 GLC5        0.0000 
     80 CA         12.6730   -2.3448   55.7572 C.3       3 GLC5        0.0000 
     81 CA         11.0375   -5.9950   58.7684 C.3       3 GLC5        0.0000 
     82 CA         11.8120   -4.0190   57.7660 C.3       9 GLL5        0.0000 
     83 CA         10.0150   -7.6620   59.2890 C.3       6 GLP5        0.0000 
     84 CA          9.8224   -3.9543   59.0279 C.3       3 GLC5        0.0000 
     85 CA         11.9530   -4.2000   59.1780 C.3       9 GLL5        0.0000 
     86 CA         11.7130   -6.8400   58.6995 C.3       3 GLC5        0.0000 
     87 CA          7.2900    7.9710   58.2043 C.3       3 GLC5        0.0000 
     88 CA          7.2930    7.6450   56.3380 C.3       9 GLL5        0.0000 
     89 CA          6.8950    8.8630   59.8390 C.3       6 GLP5        0.0000 
     90 CA          7.1695    8.7960   54.6580 C.3       3 GLC5        0.0000 
     91 CA          6.6650   10.3440   53.4820 C.3       6 GLP5        0.0000 
     92 CA          8.8035    8.2075   54.5715 C.3       3 GLC5        0.0000 
     93 CA          9.9330    9.1670   53.3090 C.3       6 GLP5        0.0000 
     94 CA          6.2447    6.7327   57.1604 C.3       3 GLC5        0.0000 
@<TRIPOS>BOND
@<TRIPOS>SUBSTRUCTURE
     1 ALC1       48 GROUP        1 X    ALC  0     ROOT ALC X 1
     2 SEC2       23 GROUP        1 X    SEC  0     **** SEC X 2
     3 GLC5        1 GROUP        1 X    GLC  0     **** GLC X 6
     4 ALP1       50 GROUP        1 Y    ALP  0     ROOT ALP Y 8
     5 SEP2       25 GROUP        1 Y    SEP  0     **** SEP Y 9
     6 GLP5        3 GROUP        1 Y    GLP  0     **** GLP Y 13
     7 ALL1       49 GROUP        1 Z    ALL  0     ROOT ALL Z 15
     8 SEL2       24 GROUP        1 Z    SEL  0     **** SEL Z 16
     9 GLL5        2 GROUP        1 Z    GLL  0     **** GLL Z 20
@<TRIPOS>SET

