#    Name: 3b8r_887_1_ligand
#    Modification time : Mon Mar 24 19:08:48 2014

@<TRIPOS>MOLECULE
3b8r_887_1_ligand
   53    57     1     0     0
SMALL
NO_CHARGES


@<TRIPOS>ATOM
      1 C1          9.6630   -0.9740   57.7900 C.ar      1 887201      0.0000 
      2 C2          8.2800   -0.9800   57.4030 C.ar      1 887201      0.0000 
      3 C3          7.6460    0.2470   57.0080 C.ar      1 887201      0.0000 
      4 C4          8.3930    1.5060   57.0020 C.ar      1 887201      0.0000 
      5 C5          9.7940    1.4620   57.4040 C.ar      1 887201      0.0000 
      6 C6         10.4050    0.2470   57.7900 C.ar      1 887201      0.0000 
      7 C10         6.2790    0.2260   56.6280 C.ar      1 887201      0.0000 
      8 C11         5.6380    1.4310   56.2390 C.ar      1 887201      0.0000 
      9 C12         6.3430    2.6620   56.2200 C.ar      1 887201      0.0000 
     10 C13         7.7130    2.7420   56.5880 C.ar      1 887201      0.0000 
     11 O17        10.3100   -2.1490   58.1880 O.3       1 887201      0.0000 
     12 C18        10.9850   -2.9670   57.2490 C.ar      1 887201      0.0000 
     13 C19        11.8120   -4.0190   57.7660 C.ar      1 887201      0.0000 
     14 C20        12.5220   -4.8930   56.8690 C.ar      1 887201      0.0000 
     15 N21        12.3780   -4.7020   55.5000 N.ar      1 887201      0.0000 
     16 C22        11.5960   -3.7000   54.9880 C.ar      1 887201      0.0000 
     17 C23        10.8780   -2.8110   55.8210 C.ar      1 887201      0.0000 
     18 C26        11.9530   -4.2000   59.1780 C.ar      1 887201      0.0000 
     19 C27        12.7810   -5.2430   59.7160 C.ar      1 887201      0.0000 
     20 C28        13.4880   -6.1150   58.8180 C.ar      1 887201      0.0000 
     21 C29        13.3340   -5.9210   57.4020 C.ar      1 887201      0.0000 
     22 O32        12.8410   -5.3400   61.1450 O.3       1 887201      0.0000 
     23 O33        14.3000   -7.1330   59.3790 O.3       1 887201      0.0000 
     24 C34        14.7210   -8.2170   58.5470 C.3       1 887201      0.0000 
     25 C38        12.9530   -4.1590   61.9420 C.3       1 887201      0.0000 
     26 C42         8.3820    4.0670   56.5320 C.2       1 887201      0.0000 
     27 N43         7.5770    5.1570   56.8120 N.am      1 887201      0.0000 
     28 C44         8.0770    6.5130   56.8010 C.3       1 887201      0.0000 
     29 O45         9.5720    4.2070   56.2470 O.2       1 887201      0.0000 
     30 C46         8.0550    6.8510   55.3300 C.3       1 887201      0.0000 
     31 C47         7.2930    7.6450   56.3380 C.3       1 887201      0.0000 
     32 H           7.7548   -1.8438   57.4085 H         1 887201      0.0000 
     33 H          10.3263    2.3336   57.4002 H         1 887201      0.0000 
     34 H          11.3878    0.2350   58.0732 H         1 887201      0.0000 
     35 H           5.7607   -0.6488   56.6343 H         1 887201      0.0000 
     36 H           4.6485    1.4113   55.9671 H         1 887201      0.0000 
     37 H           5.8501    3.5198   55.9323 H         1 887201      0.0000 
     38 H          11.5158   -3.5739   53.9570 H         1 887201      0.0000 
     39 H          10.3019   -2.0817   55.4365 H         1 887201      0.0000 
     40 H          11.4559   -3.5763   59.8185 H         1 887201      0.0000 
     41 H          13.8354   -6.5565   56.7628 H         1 887201      0.0000 
     42 H           6.5735    5.0230   57.0414 H         1 887201      0.0000 
     43 H           8.9438    6.8023   57.0948 H         1 887201      0.0000 
     44 H           7.4552    6.2529   54.9058 H         1 887201      0.0000 
     45 H           8.8563    7.3145   55.1287 H         1 887201      0.0000 
     46 H           7.7680    8.4624   56.5025 H         1 887201      0.0000 
     47 H           6.3668    7.4008   56.2795 H         1 887201      0.0000 
     48 H          15.2635   -7.8993   57.7693 H         1 887201      0.0000 
     49 H          15.2844   -8.8733   59.0489 H         1 887201      0.0000 
     50 H          13.9431   -8.7231   58.1745 H         1 887201      0.0000 
     51 H          12.9821   -4.3715   62.9187 H         1 887201      0.0000 
     52 H          13.7837   -3.6446   61.7291 H         1 887201      0.0000 
     53 H          12.1805   -3.5402   61.7996 H         1 887201      0.0000 
@<TRIPOS>BOND
     1    2    1 ar   
     2    6    1 ar   
     3   11    1 1    
     4    3    2 ar   
     5   32    2 1    
     6    4    3 ar   
     7    7    3 ar   
     8    5    4 ar   
     9   10    4 ar   
    10    6    5 ar   
    11   33    5 1    
    12   34    6 1    
    13    8    7 ar   
    14   35    7 1    
    15    9    8 ar   
    16   36    8 1    
    17   10    9 ar   
    18   37    9 1    
    19   26   10 1    
    20   12   11 1    
    21   13   12 ar   
    22   17   12 ar   
    23   14   13 ar   
    24   18   13 ar   
    25   15   14 ar   
    26   21   14 ar   
    27   16   15 ar   
    28   17   16 ar   
    29   38   16 1    
    30   39   17 1    
    31   19   18 ar   
    32   40   18 1    
    33   20   19 ar   
    34   22   19 1    
    35   21   20 ar   
    36   23   20 1    
    37   41   21 1    
    38   25   22 1    
    39   24   23 1    
    40   48   24 1    
    41   49   24 1    
    42   50   24 1    
    43   51   25 1    
    44   52   25 1    
    45   53   25 1    
    46   27   26 am   
    47   29   26 2    
    48   28   27 1    
    49   42   27 1    
    50   30   28 1    
    51   31   28 1    
    52   43   28 1    
    53   31   30 1    
    54   44   30 1    
    55   45   30 1    
    56   46   31 1    
    57   47   31 1    
@<TRIPOS>SUBSTRUCTURE
     1 887201      1 GROUP   
@<TRIPOS>SET

