#    Name: 3am5_TCL_2_INTS_M
#    Modification time : Mon Mar 24 17:47:09 2014

@<TRIPOS>MOLECULE
3am5_TCL_2_INTS_M
   61     0     9     0     0
SMALL
NO_CHARGES


@<TRIPOS>ATOM
      1 CA         15.9150   96.7345   24.7780 C.3       3 GLC5        0.0000 
      2 CA         13.9600   96.3510   24.9540 C.3       9 GLL5        0.0000 
      3 CA         17.8700   97.1180   24.6020 C.3       6 GLP5        0.0000 
      4 CA          9.4965  103.7190   25.9405 C.3       3 GLC5        0.0000 
      5 CA          9.6110  101.5720   25.9600 C.3       9 GLL5        0.0000 
      6 CA          9.3820  105.8660   25.9210 C.3       6 GLP5        0.0000 
      7 CA          9.8610  100.7530   21.9340 C.3       3 GLC5        0.0000 
      8 CA         10.2700  100.4330   23.8600 C.3       9 GLL5        0.0000 
      9 CA          9.4520  101.0730   20.0080 C.3       6 GLP5        0.0000 
     10 CA         15.3320   93.7295   23.1205 C.3       3 GLC5        0.0000 
     11 CA         13.7540   93.7790   24.0440 C.3       9 GLL5        0.0000 
     12 CA         16.9100   93.6800   22.1970 C.3       6 GLP5        0.0000 
     13 CA         13.9840   91.9935   25.3595 C.3       3 GLC5        0.0000 
     14 CA         14.2140   90.2080   26.6750 C.3       6 GLP5        0.0000 
     15 CA         12.6935   93.6705   22.4505 C.3       3 GLC5        0.0000 
     16 CA         11.6330   93.5620   20.8570 C.3       6 GLP5        0.0000 
     17 CA         12.2345   92.6520   24.3670 C.3       3 GLC5        0.0000 
     18 CA         10.7150   91.5250   24.6900 C.3       6 GLP5        0.0000 
     19 CA         14.4585   94.1930   25.7285 C.3       3 GLC5        0.0000 
     20 CA         15.1630   94.6070   27.4130 C.3       6 GLP5        0.0000 
     21 CA          9.0625  104.2805   24.8020 C.3       3 GLC5        0.0000 
     22 CA          8.7430  102.6950   23.6830 C.3       9 GLL5        0.0000 
     23 CA          9.4325  104.1820   22.5970 C.3       3 GLC5        0.0000 
     24 CA         10.1220  105.6690   21.5110 C.3       6 GLP5        0.0000 
     25 CA          8.5840  102.4440   21.7645 C.3       3 GLC5        0.0000 
     26 CA          8.4250  102.1930   19.8460 C.3       6 GLP5        0.0000 
     27 CA         10.6425  102.7985   22.7200 C.3       3 GLC5        0.0000 
     28 CA         12.5420  102.9020   21.7570 C.3       6 GLP5        0.0000 
     29 CA         11.5150  102.0530   27.9820 C.3       3 GLC5        0.0000 
     30 CA         10.3440  100.6280   28.4150 C.3       9 GLL5        0.0000 
     31 CA         12.6860  103.4780   27.5490 C.3       6 GLP5        0.0000 
     32 CA          8.9080   99.8325   28.2725 C.3       3 GLC5        0.0000 
     33 CA          7.4720   99.0370   28.1300 C.3       6 GLP5        0.0000 
     34 CA         11.9215  100.4450   29.1740 C.3       3 GLC5        0.0000 
     35 CA         13.4990  100.2620   29.9330 C.3       6 GLP5        0.0000 
     36 N          14.3990   99.3695   26.7370 N.am      2 SEC2        0.0000 
     37 N          14.1770   98.6570   25.6930 N.am      8 SEL2        0.0000 
     38 N          14.6210  100.0820   27.7810 N.am      5 SEP2        0.0000 
     39 O          14.7510   99.2090   24.7135 O.2       1 ALC1        0.0000 
     40 O          14.1770   98.6570   25.6930 O.2       7 ALL1        0.0000 
     41 O          15.3250   99.7610   23.7340 O.2       4 ALP1        0.0000 
     42 CA         11.2293   95.9727   23.6498 C.3       3 GLC5        0.0000 
     43 CA         13.1200   95.2390   24.8380 C.3       9 GLL5        0.0000 
     44 CA          9.9990   96.7210   22.2220 C.3       6 GLP5        0.0000 
     45 CA         11.5873   93.3748   24.8838 C.3       3 GLC5        0.0000 
     46 CA         11.7990   95.2100   25.3170 C.3       9 GLL5        0.0000 
     47 CA         13.3615   98.4140   27.3155 C.3       3 GLC5        0.0000 
     48 CA         12.0710   97.4640   26.0760 C.3       9 GLL5        0.0000 
     49 CA         13.9590   99.3440   28.8140 C.3       6 GLP5        0.0000 
     50 CA         10.8360   96.8088   24.1165 C.3       3 GLC5        0.0000 
     51 CA          9.9460   94.9147   25.9348 C.3       3 GLC5        0.0000 
     52 CA         11.2750   96.3290   25.9460 C.3       9 GLL5        0.0000 
     53 CA          8.3550   94.0600   26.2380 C.3       6 GLP5        0.0000 
     54 CA         11.2432  101.9220   22.9873 C.3       3 GLC5        0.0000 
     55 CA         11.3158  102.2795   26.9267 C.3       3 GLC5        0.0000 
     56 CA         12.2910   99.6965   27.5510 C.3       3 GLC5        0.0000 
     57 CA         10.2800  100.5900   26.6490 C.3       9 GLL5        0.0000 
     58 CA          8.9639   99.6658   27.1229 C.3       3 GLC5        0.0000 
     59 CA         10.9660   99.5080   25.9270 C.3       9 GLL5        0.0000 
     60 CA         10.3052   98.3305   23.2115 C.3       3 GLC5        0.0000 
     61 CA         10.9530   99.4470   24.5420 C.3       9 GLL5        0.0000 
@<TRIPOS>BOND
@<TRIPOS>SUBSTRUCTURE
     1 ALC1       39 GROUP        1 X    ALC  0     ROOT ALC X 1
     2 SEC2       36 GROUP        1 X    SEC  0     **** SEC X 2
     3 GLC5        1 GROUP        1 X    GLC  0     **** GLC X 6
     4 ALP1       41 GROUP        1 Y    ALP  0     ROOT ALP Y 8
     5 SEP2       38 GROUP        1 Y    SEP  0     **** SEP Y 9
     6 GLP5        3 GROUP        1 Y    GLP  0     **** GLP Y 13
     7 ALL1       40 GROUP        1 Z    ALL  0     ROOT ALL Z 15
     8 SEL2       37 GROUP        1 Z    SEL  0     **** SEL Z 16
     9 GLL5        2 GROUP        1 Z    GLL  0     **** GLL Z 20
@<TRIPOS>SET

