#    Name: 3am5_TCL_2_ligand
#    Modification time : Mon Mar 24 17:47:09 2014

@<TRIPOS>MOLECULE
3am5_TCL_2_ligand
   24    25     1     0     0
SMALL
NO_CHARGES


@<TRIPOS>ATOM
      1 C1         13.9600   96.3510   24.9540 C.ar      1 TCL902      0.0000 
      2 C2         13.1200   95.2390   24.8380 C.ar      1 TCL902      0.0000 
      3 C6         13.4570   97.5040   25.5580 C.ar      1 TCL902      0.0000 
      4 C5         12.0710   97.4640   26.0760 C.ar      1 TCL902      0.0000 
      5 C4         11.2750   96.3290   25.9460 C.ar      1 TCL902      0.0000 
      6 C3         11.7990   95.2100   25.3170 C.ar      1 TCL902      0.0000 
      7 C11         9.6190  101.4510   24.5750 C.ar      1 TCL902      0.0000 
      8 C10         9.6110  101.5720   25.9600 C.ar      1 TCL902      0.0000 
      9 C9         10.2800  100.5900   26.6490 C.ar      1 TCL902      0.0000 
     10 C8         10.9660   99.5080   25.9270 C.ar      1 TCL902      0.0000 
     11 C12        10.2700  100.4330   23.8600 C.ar      1 TCL902      0.0000 
     12 C13        10.9530   99.4470   24.5420 C.ar      1 TCL902      0.0000 
     13 O7         11.6050   98.5840   26.6830 O.3       1 TCL902      0.0000 
     14 CL14       13.7540   93.7790   24.0440 Cl        1 TCL902      0.0000 
     15 CL15        8.7430  102.6950   23.6830 Cl        1 TCL902      0.0000 
     16 CL16       10.3440  100.6280   28.4150 Cl        1 TCL902      0.0000 
     17 O17        14.1770   98.6570   25.6930 O.3       1 TCL902      0.0000 
     18 H          14.9134   96.3188   24.6064 H         1 TCL902      0.0000 
     19 H          10.3204   96.3235   26.3092 H         1 TCL902      0.0000 
     20 H          11.2347   94.3646   25.1982 H         1 TCL902      0.0000 
     21 H           9.1443  102.3308   26.4188 H         1 TCL902      0.0000 
     22 H          10.2316  100.4319   22.8347 H         1 TCL902      0.0000 
     23 H          11.4317   98.6994   24.0482 H         1 TCL902      0.0000 
     24 H          14.1179   99.1049   24.8009 H         1 TCL902      0.0000 
@<TRIPOS>BOND
     1    2    1 ar   
     2    3    1 ar   
     3   18    1 1    
     4    6    2 ar   
     5   14    2 1    
     6    4    3 ar   
     7   17    3 1    
     8    5    4 ar   
     9   13    4 1    
    10    6    5 ar   
    11   19    5 1    
    12   20    6 1    
    13    8    7 ar   
    14   11    7 ar   
    15   15    7 1    
    16    9    8 ar   
    17   21    8 1    
    18   10    9 ar   
    19   16    9 1    
    20   12   10 ar   
    21   13   10 1    
    22   12   11 ar   
    23   22   11 1    
    24   23   12 1    
    25   24   17 1    
@<TRIPOS>SUBSTRUCTURE
     1 TCL902      1 GROUP   
@<TRIPOS>SET

