#    Name: 4b9k_TG0_1_INTS_M
#    Modification time : Tue Mar 25 07:08:29 2014

@<TRIPOS>MOLECULE
4b9k_TG0_1_INTS_M
   56     0     9     0     0
SMALL
NO_CHARGES


@<TRIPOS>ATOM
      1 CA         -5.1920   31.8730   -1.8665 C.3       3 GLC5        0.0000 
      2 CA         -4.5440   33.6590   -1.4250 C.3       9 GLL5        0.0000 
      3 CA         -5.8400   30.0870   -2.3080 C.3       6 GLP5        0.0000 
      4 CA         -9.0330   35.5625    0.5840 C.3       3 GLC5        0.0000 
      5 CA         -7.6940   34.3620    1.7650 C.3       9 GLL5        0.0000 
      6 CA        -10.3720   36.7630   -0.5970 C.3       6 GLP5        0.0000 
      7 O          -7.9900   35.8310    3.8850 O.2       1 ALC1        0.0000 
      8 O          -6.6590   35.8470    3.5490 O.2       7 ALL1        0.0000 
      9 O          -9.3210   35.8150    4.2210 O.2       4 ALP1        0.0000 
     10 CA         -4.8530   34.1690    4.0880 C.3       3 GLC5        0.0000 
     11 CA         -5.4720   36.3080    4.2460 C.3       9 GLL5        0.0000 
     12 CA         -4.2340   32.0300    3.9300 C.3       6 GLP5        0.0000 
     13 CA         -1.9580   33.4030    9.6205 C.3       3 GLC5        0.0000 
     14 CA         -3.5100   34.7910   10.4490 C.3       9 GLL5        0.0000 
     15 CA         -0.4060   32.0150    8.7920 C.3       6 GLP5        0.0000 
     16 CA         -5.2830   29.3925    9.4420 C.3       3 GLC5        0.0000 
     17 CA         -5.0320   31.3830    9.1020 C.3       9 GLL5        0.0000 
     18 CA         -5.5340   27.4020    9.7820 C.3       6 GLP5        0.0000 
     19 CA         -4.3355   30.2695    7.7405 C.3       3 GLC5        0.0000 
     20 CA         -3.6390   29.1560    6.3790 C.3       6 GLP5        0.0000 
     21 CA         -6.4550   32.8890    9.5545 C.3       3 GLC5        0.0000 
     22 CA         -7.8780   34.3950   10.0070 C.3       6 GLP5        0.0000 
     23 N          -5.0125   33.2895    1.8750 N.am      2 SEC2        0.0000 
     24 N          -5.3170   34.5450    2.1710 N.am      8 SEL2        0.0000 
     25 N          -4.7080   32.0340    1.5790 N.am      5 SEP2        0.0000 
     26 CA        -10.3090   32.8805    2.5460 C.3       3 GLC5        0.0000 
     27 CA         -8.5680   32.3010    1.2460 C.3       9 GLL5        0.0000 
     28 CA        -12.0500   33.4600    3.8460 C.3       6 GLP5        0.0000 
     29 N         -10.9815   32.5265    1.9515 N.am      2 SEC2        0.0000 
     30 N          -9.9100   32.6300    1.0310 N.am      8 SEL2        0.0000 
     31 N         -12.0530   32.4230    2.8720 N.am      5 SEP2        0.0000 
     32 N         -10.6315   32.3355   -0.0850 N.am      2 SEC2        0.0000 
     33 N         -11.3530   32.0410   -1.2010 N.am      5 SEP2        0.0000 
     34 CA         -9.8015   34.2643    2.6522 C.3       3 GLC5        0.0000 
     35 CA         -8.0280   33.0510    2.3940 C.3       9 GLL5        0.0000 
     36 CA        -11.7420   34.8220    3.2250 C.3       6 GLP5        0.0000 
     37 CA         -2.8340   32.7228    7.6878 C.3       3 GLC5        0.0000 
     38 CA         -4.7810   33.7510    7.6650 C.3       9 GLL5        0.0000 
     39 CA         -1.3930   31.2610    7.9400 C.3       6 GLP5        0.0000 
     40 CA         -6.2777   33.8663    9.1478 C.3       3 GLC5        0.0000 
     41 CA         -4.5740   32.9240    8.9120 C.3       9 GLL5        0.0000 
     42 CA         -4.3402   33.9343   12.3622 C.3       3 GLC5        0.0000 
     43 CA         -4.0370   33.4180   10.1520 C.3       9 GLL5        0.0000 
     44 CA         -4.9070   33.7640   14.4240 C.3       6 GLP5        0.0000 
     45 CA         -5.8257   34.2498   10.1537 C.3       3 GLC5        0.0000 
     46 CA         -3.0309   31.7690    8.6285 C.3       3 GLC5        0.0000 
     47 CA         -7.4898   34.4300    7.6632 C.3       3 GLC5        0.0000 
     48 CA         -6.0100   33.6790    6.9990 C.3       9 GLL5        0.0000 
     49 CA         -8.8490   34.7510    8.8640 C.3       6 GLP5        0.0000 
     50 CA         -8.6770   31.5655    3.0940 C.3       3 GLC5        0.0000 
     51 CA         -9.0560   30.4550    4.3680 C.3       6 GLP5        0.0000 
     52 CA         -8.2780   31.0390   -0.3865 C.3       3 GLC5        0.0000 
     53 CA         -8.4030   29.5750   -1.4240 C.3       6 GLP5        0.0000 
     54 CA         -6.2465   32.0187    1.8425 C.3       3 GLC5        0.0000 
     55 CA         -7.7380   32.7050    0.0560 C.3       9 GLL5        0.0000 
     56 CA         -4.4750   31.3470    2.7470 C.3       6 GLP5        0.0000 
@<TRIPOS>BOND
@<TRIPOS>SUBSTRUCTURE
     1 ALC1        7 GROUP        1 X    ALC  0     ROOT ALC X 1
     2 SEC2       23 GROUP        1 X    SEC  0     **** SEC X 2
     3 GLC5        1 GROUP        1 X    GLC  0     **** GLC X 6
     4 ALP1        9 GROUP        1 Y    ALP  0     ROOT ALP Y 8
     5 SEP2       25 GROUP        1 Y    SEP  0     **** SEP Y 9
     6 GLP5        3 GROUP        1 Y    GLP  0     **** GLP Y 13
     7 ALL1        8 GROUP        1 Z    ALL  0     ROOT ALL Z 15
     8 SEL2       24 GROUP        1 Z    SEL  0     **** SEL Z 16
     9 GLL5        2 GROUP        1 Z    GLL  0     **** GLL Z 20
@<TRIPOS>SET

