#    Name: 4b9k_TG0_1_ligand
#    Modification time : Tue Mar 25 07:08:29 2014

@<TRIPOS>MOLECULE
4b9k_TG0_1_ligand
   58    61     1     0     0
SMALL
NO_CHARGES


@<TRIPOS>ATOM
      1 N01        -4.3610   32.9010   -4.3070 N.pl3     1 TG01203     0.0000 
      2 C02        -5.5000   33.6220   -3.7890 C.ar      1 TG01203     0.0000 
      3 C03        -5.6260   33.9800   -2.4210 C.ar      1 TG01203     0.0000 
      4 C04        -4.5440   33.6590   -1.4250 C.3       1 TG01203     0.0000 
      5 C05        -6.7910   34.6970   -2.0380 C.ar      1 TG01203     0.0000 
      6 C06        -7.0110   35.1230   -0.6030 C.2       1 TG01203     0.0000 
      7 N07        -7.4550   34.1190    0.3460 N.am      1 TG01203     0.0000 
      8 C08        -7.6940   34.3620    1.7650 C.3       1 TG01203     0.0000 
      9 C09        -6.4610   34.9100    2.4740 C.2       1 TG01203     0.0000 
     10 N10        -6.6590   35.8470    3.5490 N.am      1 TG01203     0.0000 
     11 C11        -5.4720   36.3080    4.2460 C.3       1 TG01203     0.0000 
     12 C12        -5.2330   35.3920    5.4450 C.ar      1 TG01203     0.0000 
     13 C13        -3.9810   35.4370    6.0880 C.ar      1 TG01203     0.0000 
     14 C14        -3.7690   34.6180    7.2060 C.ar      1 TG01203     0.0000 
     15 C15        -4.7810   33.7510    7.6650 C.ar      1 TG01203     0.0000 
     16 C16        -4.5740   32.9240    8.9120 C.2       1 TG01203     0.0000 
     17 C17        -4.0370   33.4180   10.1520 C.2       1 TG01203     0.0000 
     18 C18        -3.5100   34.7910   10.4490 C.3       1 TG01203     0.0000 
     19 N19        -4.0420   32.3350   11.1460 N.2       1 TG01203     0.0000 
     20 C20        -4.5930   31.1660   10.6520 C.2       1 TG01203     0.0000 
     21 S21        -5.0320   31.3830    9.1020 S.3       1 TG01203     0.0000 
     22 C22        -6.0100   33.6790    6.9990 C.ar      1 TG01203     0.0000 
     23 C23        -6.2510   34.5390    5.9260 C.ar      1 TG01203     0.0000 
     24 O24        -5.3170   34.5450    2.1710 O.2       1 TG01203     0.0000 
     25 C25        -8.0280   33.0510    2.3940 C.3       1 TG01203     0.0000 
     26 C26        -8.5680   32.3010    1.2460 C.3       1 TG01203     0.0000 
     27 O27        -9.9100   32.6300    1.0310 O.3       1 TG01203     0.0000 
     28 C28        -7.7380   32.7050    0.0560 C.3       1 TG01203     0.0000 
     29 O29        -6.8350   36.2950   -0.2600 O.2       1 TG01203     0.0000 
     30 C30        -7.8170   34.9770   -2.9490 C.ar      1 TG01203     0.0000 
     31 C31        -7.6590   34.6270   -4.2920 C.ar      1 TG01203     0.0000 
     32 C32        -6.5250   33.9110   -4.6870 C.ar      1 TG01203     0.0000 
     33 H          -4.4034   32.6468   -5.2732 H         1 TG01203     0.0000 
     34 H          -3.6245   32.7158   -3.6564 H         1 TG01203     0.0000 
     35 H          -8.5102   35.0339    1.9117 H         1 TG01203     0.0000 
     36 H          -7.5585   36.1649    3.8047 H         1 TG01203     0.0000 
     37 H          -5.5976   37.3239    4.6127 H         1 TG01203     0.0000 
     38 H          -4.5949   36.2662    3.6047 H         1 TG01203     0.0000 
     39 H          -3.2491   36.0506    5.7470 H         1 TG01203     0.0000 
     40 H          -2.8669   34.6478    7.6985 H         1 TG01203     0.0000 
     41 H          -4.7436   30.3394   11.0278 H         1 TG01203     0.0000 
     42 H          -6.7178   33.0078    7.2944 H         1 TG01203     0.0000 
     43 H          -7.1756   34.5570    5.4768 H         1 TG01203     0.0000 
     44 H          -8.7718   33.1846    3.1406 H         1 TG01203     0.0000 
     45 H          -7.1456   32.5897    2.7642 H         1 TG01203     0.0000 
     46 H          -8.4189   31.2509    1.4118 H         1 TG01203     0.0000 
     47 H          -6.8427   32.1330    0.0352 H         1 TG01203     0.0000 
     48 H          -8.3146   32.6053   -0.8311 H         1 TG01203     0.0000 
     49 H          -8.6745   35.4341   -2.6320 H         1 TG01203     0.0000 
     50 H          -8.3663   34.8919   -4.9807 H         1 TG01203     0.0000 
     51 H          -6.4474   33.5894   -5.6692 H         1 TG01203     0.0000 
     52 H          -3.6751   34.0896   -1.6689 H         1 TG01203     0.0000 
     53 H          -4.7798   33.9746   -0.5059 H         1 TG01203     0.0000 
     54 H          -4.3763   32.6751   -1.3630 H         1 TG01203     0.0000 
     55 H          -3.1983   34.8724   11.3957 H         1 TG01203     0.0000 
     56 H          -2.7338   35.0255    9.8637 H         1 TG01203     0.0000 
     57 H          -4.2065   35.4946   10.3082 H         1 TG01203     0.0000 
     58 H          -9.9860   33.5917    1.2942 H         1 TG01203     0.0000 
@<TRIPOS>BOND
     1    2    1 1    
     2   33    1 1    
     3   34    1 1    
     4    3    2 ar   
     5   32    2 ar   
     6    4    3 1    
     7    5    3 ar   
     8   52    4 1    
     9   53    4 1    
    10   54    4 1    
    11    6    5 1    
    12   30    5 ar   
    13    7    6 am   
    14   29    6 2    
    15    8    7 1    
    16   28    7 1    
    17    9    8 1    
    18   25    8 1    
    19   35    8 1    
    20   10    9 am   
    21   24    9 2    
    22   11   10 1    
    23   36   10 1    
    24   12   11 1    
    25   37   11 1    
    26   38   11 1    
    27   13   12 ar   
    28   23   12 ar   
    29   14   13 ar   
    30   39   13 1    
    31   15   14 ar   
    32   40   14 1    
    33   16   15 1    
    34   22   15 ar   
    35   17   16 2    
    36   21   16 1    
    37   18   17 1    
    38   19   17 1    
    39   55   18 1    
    40   56   18 1    
    41   57   18 1    
    42   20   19 2    
    43   21   20 1    
    44   41   20 1    
    45   23   22 ar   
    46   42   22 1    
    47   43   23 1    
    48   26   25 1    
    49   44   25 1    
    50   45   25 1    
    51   27   26 1    
    52   28   26 1    
    53   46   26 1    
    54   58   27 1    
    55   47   28 1    
    56   48   28 1    
    57   31   30 ar   
    58   49   30 1    
    59   32   31 ar   
    60   50   31 1    
    61   51   32 1    
@<TRIPOS>SUBSTRUCTURE
     1 TG01203     1 GROUP   
@<TRIPOS>SET

