#    Name: 3u4u_LNH_1_INTS_M
#    Modification time : Mon Mar 24 21:38:48 2014

@<TRIPOS>MOLECULE
3u4u_LNH_1_INTS_M
   72     0     9     0     0
SMALL
NO_CHARGES


@<TRIPOS>ATOM
      1 CA         25.3305   29.1990    8.3050 C.3       3 GLC5        0.0000 
      2 CA         24.4270   27.2100    8.7880 C.3       9 GLL5        0.0000 
      3 CA         26.2340   31.1880    7.8220 C.3       6 GLP5        0.0000 
      4 CA         24.1785   28.5495    7.0770 C.3       3 GLC5        0.0000 
      5 CA         23.9300   29.8890    5.3660 C.3       6 GLP5        0.0000 
      6 CA         25.9045   26.0515    9.6110 C.3       3 GLC5        0.0000 
      7 CA         27.3820   24.8930   10.4340 C.3       6 GLP5        0.0000 
      8 CA         24.6420   25.6970    7.4700 C.3       3 GLC5        0.0000 
      9 CA         24.8570   24.1840    6.1520 C.3       6 GLP5        0.0000 
     10 N          25.3640   24.4795   10.4350 N.am      2 SEC2        0.0000 
     11 N          24.1080   25.3830   10.2330 N.am      8 SEL2        0.0000 
     12 N          26.6200   23.5760   10.6370 N.am      5 SEP2        0.0000 
     13 O          24.4855   26.5980   12.4860 O.2       1 ALC1        0.0000 
     14 O          24.4130   27.4150   11.2770 O.2       7 ALL1        0.0000 
     15 O          24.5580   25.7810   13.6950 O.2       4 ALP1        0.0000 
     16 CA         23.2785   33.0095    8.1495 C.3       3 GLC5        0.0000 
     17 CA         22.6180   31.8540    9.8790 C.3       9 GLL5        0.0000 
     18 CA         23.9390   34.1650    6.4200 C.3       6 GLP5        0.0000 
     19 CA         24.4260   31.5210    8.8505 C.3       3 GLC5        0.0000 
     20 CA         20.6190   31.5670   10.5745 C.3       3 GLC5        0.0000 
     21 CA         18.6200   31.2800   11.2700 C.3       6 GLP5        0.0000 
     22 CA         24.1965   34.2485    9.2030 C.3       3 GLC5        0.0000 
     23 CA         23.0170   33.0900   10.3310 C.3       9 GLL5        0.0000 
     24 CA         25.3760   35.4070    8.0750 C.3       6 GLP5        0.0000 
     25 CA         25.0360   34.6595   10.0370 C.3       3 GLC5        0.0000 
     26 CA         24.6960   33.9120   11.9990 C.3       9 GLL5        0.0000 
     27 CA         26.4055   34.6760   11.7470 C.3       3 GLC5        0.0000 
     28 CA         28.1150   35.4400   11.4950 C.3       6 GLP5        0.0000 
     29 CA         22.3320   33.4270    7.3500 C.3       3 GLC5        0.0000 
     30 CA         20.7250   32.6890    8.2800 C.3       9 GLL5        0.0000 
     31 CA         20.9370   31.7820    5.7255 C.3       3 GLC5        0.0000 
     32 CA         19.7940   32.4470    7.3510 C.3       9 GLL5        0.0000 
     33 CA         22.0800   31.1170    4.1000 C.3       6 GLP5        0.0000 
     34 CA         20.1435   29.0830    9.3790 C.3       3 GLC5        0.0000 
     35 CA         20.3580   30.1280    7.4220 C.3       9 GLL5        0.0000 
     36 CA         19.9290   28.0380   11.3360 C.3       6 GLP5        0.0000 
     37 N          17.8200   30.7565    4.7925 N.am      2 SEC2        0.0000 
     38 N          18.7580   30.6820    5.9920 N.am      8 SEL2        0.0000 
     39 N          16.8820   30.8310    3.5930 N.am      5 SEP2        0.0000 
     40 CA         22.2290   28.7785    6.1945 C.3       3 GLC5        0.0000 
     41 CA         20.5280   27.6680    7.0230 C.3       9 GLL5        0.0000 
     42 CA         21.3020   26.5695    5.4470 C.3       3 GLC5        0.0000 
     43 CA         22.0760   25.4710    3.8710 C.3       6 GLP5        0.0000 
     44 O          17.7860   33.2760    5.9645 O.2       1 ALC1        0.0000 
     45 O          18.9840   33.3990    6.7670 O.2       7 ALL1        0.0000 
     46 O          16.5880   33.1530    5.1620 O.2       4 ALP1        0.0000 
     47 CA         21.8200   36.1235    6.5995 C.3       3 GLC5        0.0000 
     48 CA         20.1210   35.6780    6.3340 C.3       9 GLL5        0.0000 
     49 CA         23.5190   36.5690    6.8650 C.3       6 GLP5        0.0000 
     50 CA         21.9080   28.5995   11.1178 C.3       3 GLC5        0.0000 
     51 CA         24.3410   28.8320   11.3030 C.3       9 GLL5        0.0000 
     52 CA         27.0037   30.1397   13.2432 C.3       3 GLC5        0.0000 
     53 CA         25.1970   29.5240   12.1540 C.3       9 GLL5        0.0000 
     54 CA         28.8130   30.0670   14.2820 C.3       6 GLP5        0.0000 
     55 CA         26.3653   30.0978   10.7639 C.3       3 GLC5        0.0000 
     56 CA         25.1920   30.9010   12.2550 C.3       9 GLL5        0.0000 
     57 CA         27.7500   30.1560    9.5360 C.3       6 GLP5        0.0000 
     58 CA         24.9345   30.7659    9.2829 C.3       3 GLC5        0.0000 
     59 CA         24.2710   31.5230   11.4240 C.3       9 GLL5        0.0000 
     60 CA         18.8893   32.0370    8.8483 C.3       3 GLC5        0.0000 
     61 CA         17.5190   31.5060    9.8810 C.3       6 GLP5        0.0000 
     62 CA         21.1227   30.3315    5.6045 C.3       3 GLC5        0.0000 
     63 CA         18.5712   29.7060    8.2340 C.3       3 GLC5        0.0000 
     64 CA         16.9770   29.8660    9.3590 C.3       6 GLP5        0.0000 
     65 CA         18.8257   26.9870    6.2367 C.3       3 GLC5        0.0000 
     66 CA         19.9730   28.9640    6.7960 C.3       9 GLL5        0.0000 
     67 CA         17.4010   25.6580    5.5640 C.3       6 GLP5        0.0000 
     68 CA         19.0523   27.2910    8.1962 C.3       3 GLC5        0.0000 
     69 CA         17.8540   26.2660    9.4830 C.3       6 GLP5        0.0000 
     70 CA         17.2755   34.9013    7.6738 C.3       3 GLC5        0.0000 
     71 CA         19.1790   34.8150    7.1370 C.3       9 GLL5        0.0000 
     72 CA         15.6400   34.4490    8.6650 C.3       6 GLP5        0.0000 
@<TRIPOS>BOND
@<TRIPOS>SUBSTRUCTURE
     1 ALC1       13 GROUP        1 X    ALC  0     ROOT ALC X 1
     2 SEC2       10 GROUP        1 X    SEC  0     **** SEC X 2
     3 GLC5        1 GROUP        1 X    GLC  0     **** GLC X 6
     4 ALP1       15 GROUP        1 Y    ALP  0     ROOT ALP Y 8
     5 SEP2       12 GROUP        1 Y    SEP  0     **** SEP Y 9
     6 GLP5        3 GROUP        1 Y    GLP  0     **** GLP Y 13
     7 ALL1       14 GROUP        1 Z    ALL  0     ROOT ALL Z 15
     8 SEL2       11 GROUP        1 Z    SEL  0     **** SEL Z 16
     9 GLL5        2 GROUP        1 Z    GLL  0     **** GLL Z 20
@<TRIPOS>SET

