#    Name: 3u4u_LNH_1_ligand
#    Modification time : Mon Mar 24 21:38:48 2014

@<TRIPOS>MOLECULE
3u4u_LNH_1_ligand
   53    57     1     0     0
SMALL
NO_CHARGES


@<TRIPOS>ATOM
      1 C1         24.4270   27.2100    8.7880 C.3       1 LNH334      0.0000 
      2 C2         24.2900   26.5880   10.1560 C.2       1 LNH334      0.0000 
      3 O3         24.1080   25.3830   10.2330 O.2       1 LNH334      0.0000 
      4 N4         24.4130   27.4150   11.2770 N.am      1 LNH334      0.0000 
      5 C5         24.3410   28.8320   11.3030 C.ar      1 LNH334      0.0000 
      6 C6         25.1970   29.5240   12.1540 C.ar      1 LNH334      0.0000 
      7 C7         25.1920   30.9010   12.2550 C.ar      1 LNH334      0.0000 
      8 C8         24.2710   31.5230   11.4240 C.ar      1 LNH334      0.0000 
      9 C9         23.4030   30.8720   10.5590 C.ar      1 LNH334      0.0000 
     10 C10        23.4330   29.4900   10.4960 C.ar      1 LNH334      0.0000 
     11 C11        22.6180   31.8540    9.8790 C.2       1 LNH334      0.0000 
     12 C12        23.0170   33.0900   10.3310 C.2       1 LNH334      0.0000 
     13 N13        24.0110   32.8590   11.2510 N.pl3     1 LNH334      0.0000 
     14 C14        24.6960   33.9120   11.9990 C.3       1 LNH334      0.0000 
     15 C15        24.1660   33.7880   13.4260 C.3       1 LNH334      0.0000 
     16 C16        25.0390   34.6680   14.3140 C.2       1 LNH334      0.0000 
     17 O17        26.2520   34.8770   14.0050 O.co2     1 LNH334      0.0000 
     18 O18        24.4150   35.0480   15.3460 O.co2     1 LNH334      0.0000 
     19 C19        21.5680   31.6050    8.8670 C.2       1 LNH334      0.0000 
     20 C20        20.7250   32.6890    8.2800 C.2       1 LNH334      0.0000 
     21 C21        19.7940   32.4470    7.3510 C.2       1 LNH334      0.0000 
     22 N22        19.6210   31.1540    6.9200 N.pl3     1 LNH334      0.0000 
     23 C23        20.3580   30.1280    7.4220 C.2       1 LNH334      0.0000 
     24 N24        21.3280   30.2550    8.3920 N.2       1 LNH334      0.0000 
     25 C25        19.9730   28.9640    6.7960 C.2       1 LNH334      0.0000 
     26 C26        18.9510   29.3530    5.9090 C.2       1 LNH334      0.0000 
     27 N27        18.7580   30.6820    5.9920 N.2       1 LNH334      0.0000 
     28 C28        20.5280   27.6680    7.0230 C.1       1 LNH334      0.0000 
     29 N29        21.0470   26.6420    7.1670 N.1       1 LNH334      0.0000 
     30 N30        18.9840   33.3990    6.7670 N.pl3     1 LNH334      0.0000 
     31 C31        19.1790   34.8150    7.1370 C.3       1 LNH334      0.0000 
     32 C32        18.6430   35.8920    6.2280 C.3       1 LNH334      0.0000 
     33 C33        20.1210   35.6780    6.3340 C.3       1 LNH334      0.0000 
     34 H          24.5796   26.9347   12.2210 H         1 LNH334      0.0000 
     35 H          25.8704   28.9744   12.7395 H         1 LNH334      0.0000 
     36 H          25.7892   31.4020   12.8633 H         1 LNH334      0.0000 
     37 H          22.8103   28.9794    9.8792 H         1 LNH334      0.0000 
     38 H          22.6769   33.9262   10.0633 H         1 LNH334      0.0000 
     39 H          24.4470   34.8848   11.6225 H         1 LNH334      0.0000 
     40 H          25.7570   33.7566   12.0110 H         1 LNH334      0.0000 
     41 H          24.2380   32.7653   13.7486 H         1 LNH334      0.0000 
     42 H          23.1490   34.1337   13.4630 H         1 LNH334      0.0000 
     43 H          20.9184   33.6408    8.6489 H         1 LNH334      0.0000 
     44 H          18.4803   28.7321    5.3409 H         1 LNH334      0.0000 
     45 H          18.2641   33.1784    6.0992 H         1 LNH334      0.0000 
     46 H          19.1685   35.2032    8.0384 H         1 LNH334      0.0000 
     47 H          18.4077   36.6406    6.7647 H         1 LNH334      0.0000 
     48 H          18.3351   35.4777    5.4296 H         1 LNH334      0.0000 
     49 H          20.4077   35.1768    5.5790 H         1 LNH334      0.0000 
     50 H          20.4803   36.3397    6.9141 H         1 LNH334      0.0000 
     51 H          24.5714   28.1980    8.8420 H         1 LNH334      0.0000 
     52 H          25.2004   26.8280    8.2821 H         1 LNH334      0.0000 
     53 H          23.6104   27.0632    8.2298 H         1 LNH334      0.0000 
@<TRIPOS>BOND
     1    2    1 1    
     2   51    1 1    
     3   52    1 1    
     4   53    1 1    
     5    3    2 2    
     6    4    2 am   
     7    5    4 1    
     8   34    4 1    
     9    6    5 ar   
    10   10    5 ar   
    11    7    6 ar   
    12   35    6 1    
    13    8    7 ar   
    14   36    7 1    
    15    9    8 ar   
    16   13    8 1    
    17   10    9 ar   
    18   11    9 1    
    19   37   10 1    
    20   12   11 2    
    21   19   11 1    
    22   13   12 1    
    23   38   12 1    
    24   14   13 1    
    25   15   14 1    
    26   39   14 1    
    27   40   14 1    
    28   16   15 1    
    29   41   15 1    
    30   42   15 1    
    31   17   16 ar   
    32   18   16 ar   
    33   20   19 1    
    34   24   19 2    
    35   21   20 2    
    36   43   20 1    
    37   22   21 1    
    38   30   21 1    
    39   23   22 1    
    40   27   22 1    
    41   24   23 1    
    42   25   23 2    
    43   26   25 1    
    44   28   25 1    
    45   27   26 2    
    46   44   26 1    
    47   29   28 3    
    48   31   30 1    
    49   45   30 1    
    50   32   31 1    
    51   33   31 1    
    52   46   31 1    
    53   33   32 1    
    54   47   32 1    
    55   48   32 1    
    56   49   33 1    
    57   50   33 1    
@<TRIPOS>SUBSTRUCTURE
     1 LNH334      1 GROUP   
@<TRIPOS>SET

