#    Name: 2xd6_XD6_1_INTS_M
#    Modification time : Tue Mar 25 05:52:07 2014

@<TRIPOS>MOLECULE
2xd6_XD6_1_INTS_M
   48     0     6     0     0
SMALL
NO_CHARGES


@<TRIPOS>ATOM
      1 CA        -19.0310    4.1345   -6.6275 C.3       2 GLC5        0.0000 
      2 CA        -18.8500    3.2050   -4.7530 C.3       6 GLL5        0.0000 
      3 CA        -19.2120    5.0640   -8.5020 C.3       4 GLP5        0.0000 
      4 CA        -20.8005    2.7780   -3.8280 C.3       2 GLC5        0.0000 
      5 CA        -22.7510    2.3510   -2.9030 C.3       4 GLP5        0.0000 
      6 CA        -19.7725    7.0595   -4.7235 C.3       2 GLC5        0.0000 
      7 CA        -19.8370    5.3300   -3.5590 C.3       6 GLL5        0.0000 
      8 CA        -19.7080    8.7890   -5.8880 C.3       4 GLP5        0.0000 
      9 CA        -21.2940    3.8405   -3.2310 C.3       2 GLC5        0.0000 
     10 CA        -19.6215    4.0505   -1.2355 C.3       2 GLC5        0.0000 
     11 CA        -17.8910    3.9030   -2.5390 C.3       6 GLL5        0.0000 
     12 CA        -21.3520    4.1980    0.0680 C.3       4 GLP5        0.0000 
     13 CA        -17.6095    0.2485   -3.9230 C.3       2 GLC5        0.0000 
     14 CA        -16.9000    1.8330   -3.6940 C.3       6 GLL5        0.0000 
     15 CA        -18.3190   -1.3360   -4.1520 C.3       4 GLP5        0.0000 
     16 CA        -15.1780    0.4585   -1.6045 C.3       2 GLC5        0.0000 
     17 CA        -14.3840    1.1680   -3.4700 C.3       6 GLL5        0.0000 
     18 CA        -15.9720   -0.2510    0.2610 C.3       4 GLP5        0.0000 
     19 CA        -13.8675    2.5285   -9.5715 C.3       2 GLC5        0.0000 
     20 CA        -14.3520    2.2420   -7.6980 C.3       6 GLL5        0.0000 
     21 CA        -13.3830    2.8150  -11.4450 C.3       4 GLP5        0.0000 
     22 CA        -18.4710    3.1850   -8.1040 C.3       2 GLC5        0.0000 
     23 CA        -17.7300    1.3060   -7.7060 C.3       6 GLL5        0.0000 
     24 CA        -18.3825   -0.2615   -6.7175 C.3       2 GLC5        0.0000 
     25 CA        -19.0350   -1.8290   -5.7290 C.3       4 GLP5        0.0000 
     26 N         -21.2910    1.6940   -5.7540 N.am      1 SEC2        0.0000 
     27 N         -19.9310    1.7580   -6.2830 N.am      5 SEL2        0.0000 
     28 N         -22.6510    1.6300   -5.2250 N.am      3 SEP2        0.0000 
     29 CA        -16.4105    1.7125   -0.4620 C.3       2 GLC5        0.0000 
     30 CA        -16.8490    3.6760   -1.1850 C.3       6 GLL5        0.0000 
     31 CA        -16.8365    3.7265    0.3765 C.3       2 GLC5        0.0000 
     32 CA        -16.8240    3.7770    1.9380 C.3       4 GLP5        0.0000 
     33 CA        -19.0380    1.3233   -3.8060 C.3       2 GLC5        0.0000 
     34 CA        -17.8900    2.9860   -3.6450 C.3       6 GLL5        0.0000 
     35 CA        -19.7060   -0.4490   -3.4130 C.3       4 GLP5        0.0000 
     36 CA        -17.8177    6.2945   -3.2275 C.3       2 GLC5        0.0000 
     37 CA        -18.9020    5.1160   -2.4930 C.3       6 GLL5        0.0000 
     38 CA        -16.2660    7.3660   -3.4290 C.3       4 GLP5        0.0000 
     39 CA        -20.3608    4.7105   -1.4790 C.3       2 GLC5        0.0000 
     40 CA        -16.8180    5.5777   -2.6455 C.3       2 GLC5        0.0000 
     41 CA        -13.9860   -0.8633   -3.6462 C.3       2 GLC5        0.0000 
     42 CA        -14.2230   -2.8670   -3.4050 C.3       4 GLP5        0.0000 
     43 CA        -15.3735    2.1325   -9.9193 C.3       2 GLC5        0.0000 
     44 CA        -15.2220    1.1770   -7.8560 C.3       6 GLL5        0.0000 
     45 CA        -14.8860    2.9720  -11.6370 C.3       4 GLP5        0.0000 
     46 CA        -18.0735    1.3982   -9.5693 C.3       2 GLC5        0.0000 
     47 CA        -16.5000    1.4090   -8.5470 C.3       6 GLL5        0.0000 
     48 CA        -19.0320    1.4390  -11.0120 C.3       4 GLP5        0.0000 
@<TRIPOS>BOND
@<TRIPOS>SUBSTRUCTURE
     1 SEC2       26 GROUP        1 X    SEC  0     ROOT SEC X 2
     2 GLC5        1 GROUP        1 X    GLC  0     **** GLC X 6
     3 SEP2       28 GROUP        1 Y    SEP  0     ROOT SEP Y 9
     4 GLP5        3 GROUP        1 Y    GLP  0     **** GLP Y 13
     5 SEL2       27 GROUP        1 Z    SEL  0     ROOT SEL Z 16
     6 GLL5        2 GROUP        1 Z    GLL  0     **** GLL Z 20
@<TRIPOS>SET

