#    Name: 2xd6_XD6_1_ligand
#    Modification time : Tue Mar 25 05:52:07 2014

@<TRIPOS>MOLECULE
2xd6_XD6_1_ligand
   43    44     1     0     0
SMALL
NO_CHARGES


@<TRIPOS>ATOM
      1 C1        -18.8570    2.3090   -5.9370 C.2       1 XD61215     0.0000 
      2 C2        -18.8500    3.2050   -4.7530 C.ar      1 XD61215     0.0000 
      3 C3        -19.8360    4.3840   -4.7180 C.ar      1 XD61215     0.0000 
      4 C4        -19.8370    5.3300   -3.5590 C.ar      1 XD61215     0.0000 
      5 C5        -18.9020    5.1160   -2.4930 C.ar      1 XD61215     0.0000 
      6 C6        -17.8910    3.9030   -2.5390 C.ar      1 XD61215     0.0000 
      7 C7        -17.8900    2.9860   -3.6450 C.ar      1 XD61215     0.0000 
      8 C8        -16.9000    1.8330   -3.6940 C.3       1 XD61215     0.0000 
      9 C9        -15.4430    2.1980   -3.8190 C.2       1 XD61215     0.0000 
     10 C10       -14.3840    1.1680   -3.4700 C.3       1 XD61215     0.0000 
     11 C11       -13.1140    1.1130   -4.3050 C.3       1 XD61215     0.0000 
     12 C12       -13.2160    0.8620   -5.7960 C.3       1 XD61215     0.0000 
     13 C13       -13.1920    2.0850   -6.7430 C.3       1 XD61215     0.0000 
     14 C14       -14.3520    2.2420   -7.6980 C.2       1 XD61215     0.0000 
     15 C15       -15.2220    1.1770   -7.8560 C.2       1 XD61215     0.0000 
     16 C16       -16.5000    1.4090   -8.5470 C.3       1 XD61215     0.0000 
     17 C17       -17.7300    1.3060   -7.7060 C.3       1 XD61215     0.0000 
     18 O1        -17.7390    2.0470   -6.5110 O.3       1 XD61215     0.0000 
     19 O2        -19.9310    1.7580   -6.2830 O.2       1 XD61215     0.0000 
     20 O3        -20.7320    4.5080   -5.7720 O.co2     1 XD61215     0.0000 
     21 O4        -18.8300    5.9760   -1.4070 O.3       1 XD61215     0.0000 
     22 CL1       -16.8490    3.6760   -1.1850 Cl        1 XD61215     0.0000 
     23 O5        -15.1340    3.3100   -4.2850 O.2       1 XD61215     0.0000 
     24 C21       -14.7050    3.6060   -8.4050 C.2       1 XD61215     0.0000 
     25 O22       -13.7380    4.5890   -8.5730 O.2       1 XD61215     0.0000 
     26 H         -20.4850    6.0846   -3.5541 H         1 XD61215     0.0000 
     27 H         -17.1800    1.1634   -4.5437 H         1 XD61215     0.0000 
     28 H         -17.0398    1.2087   -2.7778 H         1 XD61215     0.0000 
     29 H         -14.8614    0.1484   -3.4861 H         1 XD61215     0.0000 
     30 H         -14.0917    1.3105   -2.3920 H         1 XD61215     0.0000 
     31 H         -12.4335    0.3304   -3.8586 H         1 XD61215     0.0000 
     32 H         -12.5461    2.0755   -4.1447 H         1 XD61215     0.0000 
     33 H         -14.1543    0.2866   -6.0051 H         1 XD61215     0.0000 
     34 H         -12.3888    0.1732   -6.1067 H         1 XD61215     0.0000 
     35 H         -12.2396    2.0471   -7.3252 H         1 XD61215     0.0000 
     36 H         -13.1086    3.0032   -6.1125 H         1 XD61215     0.0000 
     37 H         -15.0216    0.2497   -7.5201 H         1 XD61215     0.0000 
     38 H         -16.5945    0.6926   -9.4051 H         1 XD61215     0.0000 
     39 H         -16.4832    2.4210   -9.0306 H         1 XD61215     0.0000 
     40 H         -17.9059    0.2077   -7.4985 H         1 XD61215     0.0000 
     41 H         -18.6100    1.5873   -8.3593 H         1 XD61215     0.0000 
     42 H         -15.6608    3.6877   -8.7087 H         1 XD61215     0.0000 
     43 H         -19.4800    6.7075   -1.6128 H         1 XD61215     0.0000 
@<TRIPOS>BOND
     1    2    1 1    
     2   18    1 1    
     3   19    1 2    
     4    3    2 ar   
     5    7    2 ar   
     6    4    3 ar   
     7   20    3 ar   
     8    5    4 ar   
     9   26    4 1    
    10    6    5 ar   
    11   21    5 1    
    12    7    6 ar   
    13   22    6 1    
    14    8    7 1    
    15    9    8 1    
    16   27    8 1    
    17   28    8 1    
    18   10    9 1    
    19   23    9 2    
    20   11   10 1    
    21   29   10 1    
    22   30   10 1    
    23   12   11 1    
    24   31   11 1    
    25   32   11 1    
    26   13   12 1    
    27   33   12 1    
    28   34   12 1    
    29   14   13 1    
    30   35   13 1    
    31   36   13 1    
    32   15   14 2    
    33   24   14 1    
    34   16   15 1    
    35   37   15 1    
    36   17   16 1    
    37   38   16 1    
    38   39   16 1    
    39   18   17 1    
    40   40   17 1    
    41   41   17 1    
    42   43   21 1    
    43   25   24 2    
    44   42   24 1    
@<TRIPOS>SUBSTRUCTURE
     1 XD61215     1 GROUP   
@<TRIPOS>SET

