#    Name: 3omm_OMM_1_INTS_M
#    Modification time : Tue Mar 25 04:51:56 2014

@<TRIPOS>MOLECULE
3omm_OMM_1_INTS_M
  111     0    12     0     0
SMALL
NO_CHARGES


@<TRIPOS>ATOM
      1 N          13.7735   26.1245    0.9620 N.am      2 SEC2        0.0000 
      2 N          13.2470   25.7640    2.1550 N.am     10 SEL2        0.0000 
      3 N          14.3000   26.4850   -0.2310 N.am      6 SEP2        0.0000 
      4 CA         15.1370   21.6680    4.4440 C.3       4 GLC5        0.0000 
      5 CA         13.2960   22.8910    4.3450 C.3      12 GLL5        0.0000 
      6 CA         16.9780   20.4450    4.5430 C.3       8 GLP5        0.0000 
      7 O          12.1975   22.2845    1.3580 O.2       1 ALC1        0.0000 
      8 O          12.0580   21.6120    2.6660 O.2       9 ALL1        0.0000 
      9 O          12.3370   22.9570    0.0500 O.2       5 ALP1        0.0000 
     10 CA         10.1020   17.5835   -0.4880 C.3       4 GLC5        0.0000 
     11 CA          9.3630   18.7370    1.2150 C.3      12 GLL5        0.0000 
     12 CA         10.8410   16.4300   -2.1910 C.3       8 GLP5        0.0000 
     13 CA         11.4030   16.7730    0.6065 C.3       4 GLC5        0.0000 
     14 CA         10.6660   18.3760    1.5710 C.3      12 GLL5        0.0000 
     15 CA         12.1400   15.1700   -0.3580 C.3       8 GLP5        0.0000 
     16 N           9.0600   15.8335    1.7990 N.am      2 SEC2        0.0000 
     17 N           8.8080   16.5740    0.6150 N.am     10 SEL2        0.0000 
     18 N           9.3120   15.0930    2.9830 N.am      6 SEP2        0.0000 
     19 CA          8.7180   21.5345    3.5715 C.3       4 GLC5        0.0000 
     20 CA          9.8650   21.0340    1.8220 C.3      12 GLL5        0.0000 
     21 CA          7.5710   22.0350    5.3210 C.3       8 GLP5        0.0000 
     22 CA         10.1500   22.4945    0.3650 C.3       4 GLC5        0.0000 
     23 CA         10.4350   23.9550   -1.0920 C.3       8 GLP5        0.0000 
     24 CA          7.3625   19.6060    2.6265 C.3       4 GLC5        0.0000 
     25 CA          8.9890   20.0820    1.3210 C.3      12 GLL5        0.0000 
     26 CA          5.7360   19.1300    3.9320 C.3       8 GLP5        0.0000 
     27 CA         11.4030   23.8235    6.8440 C.3       4 GLC5        0.0000 
     28 CA         13.2270   23.2860    5.8410 C.3      12 GLL5        0.0000 
     29 CA          9.5790   24.3610    7.8470 C.3       8 GLP5        0.0000 
     30 CA          6.6490   25.4180    4.8085 C.3       4 GLC5        0.0000 
     31 CA          8.3170   25.0340    4.3400 C.3      12 GLL5        0.0000 
     32 CA          4.9810   25.8020    5.2770 C.3       8 GLP5        0.0000 
     33 CA          7.9035   26.6275    5.6420 C.3       4 GLC5        0.0000 
     34 CA          7.4900   28.2210    6.9440 C.3       8 GLP5        0.0000 
     35 CA          7.2630   25.7445    2.4040 C.3       4 GLC5        0.0000 
     36 CA          8.6210   27.1270    2.6080 C.3      12 GLL5        0.0000 
     37 CA          5.9050   24.3620    2.2000 C.3       8 GLP5        0.0000 
     38 CA          7.8255   27.9030    1.5655 C.3       4 GLC5        0.0000 
     39 CA          7.0300   28.6790    0.5230 C.3       8 GLP5        0.0000 
     40 CA          7.5375   28.1575    3.7390 C.3       4 GLC5        0.0000 
     41 CA          6.4540   29.1880    4.8700 C.3       8 GLP5        0.0000 
     42 CA         13.9515   17.2550    2.5315 C.3       4 GLC5        0.0000 
     43 CA         12.7930   18.9690    2.4420 C.3      12 GLL5        0.0000 
     44 CA         15.1100   15.5410    2.6210 C.3       8 GLP5        0.0000 
     45 NZ          6.4935   18.6895   -0.7885 N.4       3 LYC4        0.0000 
     46 NZ          7.1660   17.9770    0.2900 N.4      11 LYL4        0.0000 
     47 NZ          4.5300   19.2020   -2.0820 N.4       7 LYP4        0.0000 
     48 N           6.4935   18.6895   -0.7885 N.am      2 SEC2        0.0000 
     49 N           7.1660   17.9770    0.2900 N.am     10 SEL2        0.0000 
     50 N           5.8210   19.4020   -1.8670 N.am      6 SEP2        0.0000 
     51 CA         19.3270   22.0500    3.9680 C.3       4 GLC5        0.0000 
     52 CA         19.5890   23.1000    2.1280 C.3      12 GLL5        0.0000 
     53 CA         19.0650   21.0000    5.8080 C.3       8 GLP5        0.0000 
     54 CA         19.1000   23.4305    0.2860 C.3       4 GLC5        0.0000 
     55 CA         18.6110   23.7610   -1.5560 C.3       8 GLP5        0.0000 
     56 CA         21.5235   23.7050    1.6425 C.3       4 GLC5        0.0000 
     57 CA         23.4580   24.3100    1.1570 C.3       8 GLP5        0.0000 
     58 CA         20.5910   21.6080    2.7355 C.3       4 GLC5        0.0000 
     59 CA         21.5930   20.1160    3.3430 C.3       8 GLP5        0.0000 
     60 CA         19.7525   23.7515    4.2520 C.3       4 GLC5        0.0000 
     61 CA         19.9160   24.4030    6.3760 C.3       8 GLP5        0.0000 
     62 CA         19.5495   21.3865    0.8070 C.3       4 GLC5        0.0000 
     63 CA         19.5100   19.6730   -0.5140 C.3       8 GLP5        0.0000 
     64 CA         11.7400   24.6925    7.6900 C.3       4 GLC5        0.0000 
     65 CA         13.9010   25.0240    7.5330 C.3      12 GLL5        0.0000 
     66 CA         12.9835   21.1600    9.1100 C.3       4 GLC5        0.0000 
     67 CA         13.9050   22.6010    8.1990 C.3      12 GLL5        0.0000 
     68 CA         12.0620   19.7190   10.0210 C.3       8 GLP5        0.0000 
     69 CA         15.5260   23.8635   10.2220 C.3       4 GLC5        0.0000 
     70 CA         14.6330   23.9460    8.3530 C.3      12 GLL5        0.0000 
     71 CA         16.4190   23.7810   12.0910 C.3       8 GLP5        0.0000 
     72 CA         16.7820   24.2180    8.4735 C.3       4 GLC5        0.0000 
     73 CA         18.9310   24.4900    8.5940 C.3       8 GLP5        0.0000 
     74 CA         11.4540   26.9593    4.0682 C.3       4 GLC5        0.0000 
     75 CA         11.9630   25.7760    2.5420 C.3      12 GLL5        0.0000 
     76 CA         11.0390   28.6860    5.1590 C.3       8 GLP5        0.0000 
     77 CA         10.5328   26.7718    4.5162 C.3       4 GLC5        0.0000 
     78 CA         10.5500   24.4400    4.0080 C.3      12 GLL5        0.0000 
     79 CA         11.6320   25.0069    0.9709 C.3       4 GLC5        0.0000 
     80 CA         10.8810   26.6170    2.2720 C.3      12 GLL5        0.0000 
     81 CA         11.8890   24.0890   -0.6830 C.3       8 GLP5        0.0000 
     82 CA          9.3575   27.7968    1.3405 C.3       4 GLC5        0.0000 
     83 CA          8.4400   29.1170    0.1150 C.3       8 GLP5        0.0000 
     84 CA          8.6860   19.5598   -0.5780 C.3       4 GLC5        0.0000 
     85 CA          8.1960   19.7100   -2.4240 C.3       8 GLP5        0.0000 
     86 CA          7.8927   20.9199    1.2675 C.3       4 GLC5        0.0000 
     87 CA          6.2650   21.6180    0.9900 C.3       8 GLP5        0.0000 
     88 CA         15.6233   21.5757    0.7820 C.3       4 GLC5        0.0000 
     89 CA         16.8980   22.7470    1.7700 C.3      12 GLL5        0.0000 
     90 CA         15.0070   20.2000   -0.2560 C.3       8 GLP5        0.0000 
     91 CA          8.3714   23.4904    4.7139 C.3       4 GLC5        0.0000 
     92 CA          9.5030   25.2750    3.7390 C.3      12 GLL5        0.0000 
     93 CA          9.3754   24.6534    5.9769 C.3       4 GLC5        0.0000 
     94 CA          7.4283   24.8909    3.0099 C.3       4 GLC5        0.0000 
     95 CA         10.2435   27.7439    3.8730 C.3       4 GLC5        0.0000 
     96 CA         12.0685   18.1414    3.7031 C.3       4 GLC5        0.0000 
     97 CA         12.1840   17.3710    5.2840 C.3       8 GLP5        0.0000 
     98 CA         13.3915   18.7369    1.2271 C.3       4 GLC5        0.0000 
     99 CA         14.8300   18.5620    0.3320 C.3       8 GLP5        0.0000 
    100 CA         17.0259   21.8491    3.2930 C.3       4 GLC5        0.0000 
    101 CA         17.8189   25.8994    1.9366 C.3       4 GLC5        0.0000 
    102 CA         17.9080   23.5550    2.2660 C.3      12 GLL5        0.0000 
    103 CA         18.2190   27.5620    1.2310 C.3       8 GLP5        0.0000 
    104 CA         14.9255   20.7287    7.3492 C.3       4 GLC5        0.0000 
    105 CA         13.8810   22.2020    6.7140 C.3      12 GLL5        0.0000 
    106 CA         15.9580   19.0560    7.2420 C.3       8 GLP5        0.0000 
    107 CA         12.9655   26.6425    6.5132 C.3       4 GLC5        0.0000 
    108 CA         13.9930   24.6000    6.0520 C.3      12 GLL5        0.0000 
    109 CA         11.9840   28.4730    6.2340 C.3       8 GLP5        0.0000 
    110 CA         15.3460   25.8555    8.8215 C.3       4 GLC5        0.0000 
    111 CA         16.4250   27.2260    9.7000 C.3       8 GLP5        0.0000 
@<TRIPOS>BOND
@<TRIPOS>SUBSTRUCTURE
     1 ALC1        7 GROUP        1 X    ALC  0     ROOT ALC X 1
     2 SEC2        1 GROUP        1 X    SEC  0     **** SEC X 2
     3 LYC4       45 GROUP        1 X    LYC  0     **** LYC X 4
     4 GLC5        4 GROUP        1 X    GLC  0     **** GLC X 6
     5 ALP1        9 GROUP        1 Y    ALP  0     ROOT ALP Y 8
     6 SEP2        3 GROUP        1 Y    SEP  0     **** SEP Y 9
     7 LYP4       47 GROUP        1 Y    LYP  0     **** LYP Y 11
     8 GLP5        6 GROUP        1 Y    GLP  0     **** GLP Y 13
     9 ALL1        8 GROUP        1 Z    ALL  0     ROOT ALL Z 15
    10 SEL2        2 GROUP        1 Z    SEL  0     **** SEL Z 16
    11 LYL4       46 GROUP        1 Z    LYL  0     **** LYL Z 18
    12 GLL5        5 GROUP        1 Z    GLL  0     **** GLL Z 20
@<TRIPOS>SET

