#    Name: 3omm_OMM_1_ligand
#    Modification time : Tue Mar 25 04:51:57 2014

@<TRIPOS>MOLECULE
3omm_OMM_1_ligand
   60    64     1     0     0
SMALL
NO_CHARGES


@<TRIPOS>ATOM
      1 N1         12.9810   24.0630    3.5100 N.pl3     1 OMM1        0.0000 
      2 C2         13.8570   24.7570    2.7100 C.2       1 OMM1        0.0000 
      3 N3         13.2470   25.7640    2.1550 N.2       1 OMM1        0.0000 
      4 C4         11.7750   24.6890    3.4130 C.ar      1 OMM1        0.0000 
      5 C5         11.9630   25.7760    2.5420 C.ar      1 OMM1        0.0000 
      6 C6         12.3870   21.7510    3.9800 C.2       1 OMM1        0.0000 
      7 C7         13.2960   22.8910    4.3450 C.3       1 OMM1        0.0000 
      8 C8         10.5500   24.4400    4.0080 C.ar      1 OMM1        0.0000 
      9 N9         12.0580   21.6120    2.6660 N.am      1 OMM1        0.0000 
     10 C10        10.8810   26.6170    2.2720 C.ar      1 OMM1        0.0000 
     11 C11         9.5030   25.2750    3.7390 C.ar      1 OMM1        0.0000 
     12 C12        11.1750   20.6570    2.1580 C.ar      1 OMM1        0.0000 
     13 C13         8.4240   17.7020    0.7000 C.2       1 OMM1        0.0000 
     14 C14        15.2670   24.3620    2.5130 C.ar      1 OMM1        0.0000 
     15 C15         9.6690   26.3360    2.8600 C.ar      1 OMM1        0.0000 
     16 C16         9.3630   18.7370    1.2150 C.ar      1 OMM1        0.0000 
     17 C17        11.5600   19.3330    2.0340 C.ar      1 OMM1        0.0000 
     18 C18        10.6660   18.3760    1.5710 C.ar      1 OMM1        0.0000 
     19 O19        11.9640   21.0010    4.8510 O.2       1 OMM1        0.0000 
     20 O20         8.8080   16.5740    0.6150 O.co2     1 OMM1        0.0000 
     21 C21         9.8650   21.0340    1.8220 C.ar      1 OMM1        0.0000 
     22 C22         8.9890   20.0820    1.3210 C.ar      1 OMM1        0.0000 
     23 C23        13.2270   23.2860    5.8410 C.3       1 OMM1        0.0000 
     24 C24        16.2780   25.1200    3.0880 C.ar      1 OMM1        0.0000 
     25 C25        15.5810   23.1560    1.8700 C.ar      1 OMM1        0.0000 
     26 F26         8.3170   25.0340    4.3400 F         1 OMM1        0.0000 
     27 F27         8.6210   27.1270    2.6080 F         1 OMM1        0.0000 
     28 F28        12.7930   18.9690    2.4420 F         1 OMM1        0.0000 
     29 O29         7.1660   17.9770    0.2900 O.co2     1 OMM1        0.0000 
     30 C30        17.9080   23.5550    2.2660 C.ar      1 OMM1        0.0000 
     31 C31        16.8980   22.7470    1.7700 C.ar      1 OMM1        0.0000 
     32 C32        17.5810   24.7170    2.9490 C.ar      1 OMM1        0.0000 
     33 CL33       19.5890   23.1000    2.1280 Cl        1 OMM1        0.0000 
     34 C34        13.8810   22.2020    6.7140 C.3       1 OMM1        0.0000 
     35 C35        13.9930   24.6000    6.0520 C.3       1 OMM1        0.0000 
     36 C36        13.9010   25.0240    7.5330 C.3       1 OMM1        0.0000 
     37 C37        13.9050   22.6010    8.1990 C.3       1 OMM1        0.0000 
     38 C38        14.6330   23.9460    8.3530 C.3       1 OMM1        0.0000 
     39 H          14.3319   22.5899    4.1388 H         1 OMM1        0.0000 
     40 H          10.4390   23.6390    4.6395 H         1 OMM1        0.0000 
     41 H          12.5018   22.2775    1.9592 H         1 OMM1        0.0000 
     42 H          10.9962   27.4179    1.6525 H         1 OMM1        0.0000 
     43 H          10.9612   17.3923    1.4879 H         1 OMM1        0.0000 
     44 H           9.5663   22.0038    1.9482 H         1 OMM1        0.0000 
     45 H           8.0401   20.3659    1.0185 H         1 OMM1        0.0000 
     46 H          12.2173   23.4163    6.1290 H         1 OMM1        0.0000 
     47 H          16.0441   25.9728    3.6107 H         1 OMM1        0.0000 
     48 H          14.8251   22.5817    1.4755 H         1 OMM1        0.0000 
     49 H          17.1281   21.8465    1.3292 H         1 OMM1        0.0000 
     50 H          18.3461   25.2904    3.3623 H         1 OMM1        0.0000 
     51 H          14.9039   22.0379    6.3723 H         1 OMM1        0.0000 
     52 H          13.3234   21.2709    6.6039 H         1 OMM1        0.0000 
     53 H          13.5574   25.3735    5.4344 H         1 OMM1        0.0000 
     54 H          15.0321   24.4570    5.7884 H         1 OMM1        0.0000 
     55 H          12.8740   25.0626    7.8285 H         1 OMM1        0.0000 
     56 H          14.3893   25.9664    7.6639 H         1 OMM1        0.0000 
     57 H          14.4291   21.8438    8.7639 H         1 OMM1        0.0000 
     58 H          12.8911   22.6997    8.5588 H         1 OMM1        0.0000 
     59 H          14.6382   24.2332    9.3950 H         1 OMM1        0.0000 
     60 H          15.6462   23.8485    7.9894 H         1 OMM1        0.0000 
@<TRIPOS>BOND
     1    2    1 1    
     2    4    1 1    
     3    7    1 1    
     4    3    2 2    
     5   14    2 1    
     6    5    3 1    
     7    5    4 ar   
     8    8    4 ar   
     9   10    5 ar   
    10    7    6 1    
    11    9    6 am   
    12   19    6 2    
    13   23    7 1    
    14   39    7 1    
    15   11    8 ar   
    16   40    8 1    
    17   12    9 1    
    18   41    9 1    
    19   15   10 ar   
    20   42   10 1    
    21   15   11 ar   
    22   26   11 1    
    23   17   12 ar   
    24   21   12 ar   
    25   16   13 1    
    26   20   13 ar   
    27   29   13 ar   
    28   24   14 ar   
    29   25   14 ar   
    30   27   15 1    
    31   18   16 ar   
    32   22   16 ar   
    33   18   17 ar   
    34   28   17 1    
    35   43   18 1    
    36   22   21 ar   
    37   44   21 1    
    38   45   22 1    
    39   34   23 1    
    40   35   23 1    
    41   46   23 1    
    42   32   24 ar   
    43   47   24 1    
    44   31   25 ar   
    45   48   25 1    
    46   31   30 ar   
    47   32   30 ar   
    48   33   30 1    
    49   49   31 1    
    50   50   32 1    
    51   37   34 1    
    52   51   34 1    
    53   52   34 1    
    54   36   35 1    
    55   53   35 1    
    56   54   35 1    
    57   38   36 1    
    58   55   36 1    
    59   56   36 1    
    60   38   37 1    
    61   57   37 1    
    62   58   37 1    
    63   59   38 1    
    64   60   38 1    
@<TRIPOS>SUBSTRUCTURE
     1 OMM1        1 GROUP   
@<TRIPOS>SET

