#    Name: 3gqz_GF7_1_INTS_M
#    Modification time : Tue Mar 25 12:52:10 2014

@<TRIPOS>MOLECULE
3gqz_GF7_1_INTS_M
   34     0     9     0     0
SMALL
NO_CHARGES


@<TRIPOS>ATOM
      1 CA        -33.6855   13.5920   20.1460 C.3       3 GLC5        0.0000 
      2 CA        -34.5690   11.9670   20.0620 C.3       9 GLL5        0.0000 
      3 CA        -32.8020   15.2170   20.2300 C.3       6 GLP5        0.0000 
      4 CA        -34.6950   12.0375   15.5805 C.3       3 GLC5        0.0000 
      5 CA        -35.0950   11.9500   17.3260 C.3       9 GLL5        0.0000 
      6 CA        -34.2950   12.1250   13.8350 C.3       6 GLP5        0.0000 
      7 CA        -33.1020   11.1250   16.2015 C.3       3 GLC5        0.0000 
      8 CA        -34.0860   11.1390   17.8410 C.3       9 GLL5        0.0000 
      9 CA        -32.1180   11.1110   14.5620 C.3       6 GLP5        0.0000 
     10 CA        -30.1255   10.9075   19.2625 C.3       3 GLC5        0.0000 
     11 CA        -31.5480   10.9320   20.1440 C.3       9 GLL5        0.0000 
     12 CA        -28.7030   10.8830   18.3810 C.3       6 GLP5        0.0000 
     13 CA        -31.3815   12.4355   19.0145 C.3       3 GLC5        0.0000 
     14 CA        -31.2150   13.9390   17.8850 C.3       6 GLP5        0.0000 
     15 CA        -29.9425    9.5605   19.3755 C.3       3 GLC5        0.0000 
     16 CA        -30.7960    9.6770   20.6010 C.3       9 GLL5        0.0000 
     17 CA        -29.0890    9.4440   18.1500 C.3       6 GLP5        0.0000 
     18 CA        -30.9850    8.7975   18.9940 C.3       3 GLC5        0.0000 
     19 CA        -31.7540    8.4810   20.5950 C.3       9 GLL5        0.0000 
     20 CA        -30.2160    9.1140   17.3930 C.3       6 GLP5        0.0000 
     21 CA        -32.6205    8.4950   22.6545 C.3       3 GLC5        0.0000 
     22 CA        -33.4870    8.5090   24.7140 C.3       6 GLP5        0.0000 
     23 NZ        -29.1285    8.5070   23.7910 N.4       2 LYC4        0.0000 
     24 NZ        -29.7250    8.8930   22.5690 N.4       8 LYL4        0.0000 
     25 NZ        -28.5320    8.1210   25.0130 N.4       5 LYP4        0.0000 
     26 N         -29.1285    8.5070   23.7910 N.am      1 SEC2        0.0000 
     27 N         -29.7250    8.8930   22.5690 N.am      7 SEL2        0.0000 
     28 N         -28.5320    8.1210   25.0130 N.am      4 SEP2        0.0000 
     29 CA        -35.1448   13.7363   21.4775 C.3       3 GLC5        0.0000 
     30 CA        -35.5760   12.7760   19.5440 C.3       9 GLL5        0.0000 
     31 CA        -35.2170   15.1010   23.1520 C.3       6 GLP5        0.0000 
     32 CA        -34.2606   13.8862   18.4163 C.3       3 GLC5        0.0000 
     33 CA        -33.1190   15.4110   18.7400 C.3       6 GLP5        0.0000 
     34 CA        -32.5855   12.5418   18.2055 C.3       3 GLC5        0.0000 
@<TRIPOS>BOND
@<TRIPOS>SUBSTRUCTURE
     1 SEC2       26 GROUP        1 X    SEC  0     ROOT SEC X 2
     2 LYC4       23 GROUP        1 X    LYC  0     **** LYC X 4
     3 GLC5        1 GROUP        1 X    GLC  0     **** GLC X 6
     4 SEP2       28 GROUP        1 Y    SEP  0     ROOT SEP Y 9
     5 LYP4       25 GROUP        1 Y    LYP  0     **** LYP Y 11
     6 GLP5        3 GROUP        1 Y    GLP  0     **** GLP Y 13
     7 SEL2       27 GROUP        1 Z    SEL  0     ROOT SEL Z 16
     8 LYL4       24 GROUP        1 Z    LYL  0     **** LYL Z 18
     9 GLL5        2 GROUP        1 Z    GLL  0     **** GLL Z 20
@<TRIPOS>SET

