#    Name: 3gqz_GF7_1_ligand
#    Modification time : Tue Mar 25 12:52:10 2014

@<TRIPOS>MOLECULE
3gqz_GF7_1_ligand
   30    31     1     0     0
SMALL
NO_CHARGES


@<TRIPOS>ATOM
      1 O18       -37.1580   13.5970   16.4040 O.2       1 GF7362      0.0000 
      2 C16       -36.9260   13.6420   17.6020 C.2       1 GF7362      0.0000 
      3 C17       -37.7020   14.5660   18.4960 C.3       1 GF7362      0.0000 
      4 C9        -35.8430   12.7700   18.1740 C.ar      1 GF7362      0.0000 
      5 C8        -35.5760   12.7760   19.5440 C.ar      1 GF7362      0.0000 
      6 C7        -34.5690   11.9670   20.0620 C.ar      1 GF7362      0.0000 
      7 C10       -35.0950   11.9500   17.3260 C.ar      1 GF7362      0.0000 
      8 C11       -34.0860   11.1390   17.8410 C.ar      1 GF7362      0.0000 
      9 C6        -33.8260   11.1500   19.2110 C.ar      1 GF7362      0.0000 
     10 N1        -32.8160   10.3450   19.7500 N.am      1 GF7362      0.0000 
     11 C2        -32.9860    9.0460   19.9330 C.2       1 GF7362      0.0000 
     12 O12       -33.9690    8.3770   19.6320 O.2       1 GF7362      0.0000 
     13 C5        -31.5480   10.9320   20.1440 C.3       1 GF7362      0.0000 
     14 C4        -30.7960    9.6770   20.6010 C.3       1 GF7362      0.0000 
     15 C3        -31.7540    8.4810   20.5950 C.3       1 GF7362      0.0000 
     16 C13       -30.1750    9.8910   21.9570 C.2       1 GF7362      0.0000 
     17 O14       -30.0970   11.0500   22.4210 O.co2     1 GF7362      0.0000 
     18 O15       -29.7250    8.8930   22.5690 O.co2     1 GF7362      0.0000 
     19 H         -36.1248   13.3793   20.1695 H         1 GF7362      0.0000 
     20 H         -34.3725   11.9710   21.0701 H         1 GF7362      0.0000 
     21 H         -35.2914   11.9460   16.3157 H         1 GF7362      0.0000 
     22 H         -33.5384   10.5383   17.2179 H         1 GF7362      0.0000 
     23 H         -31.6519   11.5833   20.9686 H         1 GF7362      0.0000 
     24 H         -31.0346   11.3541   19.3235 H         1 GF7362      0.0000 
     25 H         -30.0095    9.4807   19.8750 H         1 GF7362      0.0000 
     26 H         -31.3428    7.7031   20.0077 H         1 GF7362      0.0000 
     27 H         -31.9677    8.1957   21.5910 H         1 GF7362      0.0000 
     28 H         -37.4065   14.4959   19.4488 H         1 GF7362      0.0000 
     29 H         -37.5938   15.5225   18.2252 H         1 GF7362      0.0000 
     30 H         -38.6814   14.3651   18.4773 H         1 GF7362      0.0000 
@<TRIPOS>BOND
     1    2    1 2    
     2    3    2 1    
     3    4    2 1    
     4   28    3 1    
     5   29    3 1    
     6   30    3 1    
     7    5    4 ar   
     8    7    4 ar   
     9    6    5 ar   
    10   19    5 1    
    11    9    6 ar   
    12   20    6 1    
    13    8    7 ar   
    14   21    7 1    
    15    9    8 ar   
    16   22    8 1    
    17   10    9 1    
    18   11   10 am   
    19   13   10 1    
    20   12   11 2    
    21   15   11 1    
    22   14   13 1    
    23   23   13 1    
    24   24   13 1    
    25   15   14 1    
    26   16   14 1    
    27   25   14 1    
    28   26   15 1    
    29   27   15 1    
    30   17   16 ar   
    31   18   16 ar   
@<TRIPOS>SUBSTRUCTURE
     1 GF7362      1 GROUP   
@<TRIPOS>SET

