#    Name: 3ufl_508_1_INTS_M
#    Modification time : Mon Mar 24 22:17:44 2014

@<TRIPOS>MOLECULE
3ufl_508_1_INTS_M
   71     0     6     0     0
SMALL
NO_CHARGES


@<TRIPOS>ATOM
      1 CA         31.0240   39.9565    5.3575 C.3       2 GLC5        0.0000 
      2 CA         30.6730   39.1810    3.7760 C.3       6 GLL5        0.0000 
      3 CA         31.3750   40.7320    6.9390 C.3       4 GLP5        0.0000 
      4 CA         29.4415   40.7045    4.5925 C.3       2 GLC5        0.0000 
      5 CA         28.2100   42.2280    5.4090 C.3       4 GLP5        0.0000 
      6 OD1        31.6635   37.3155    4.7255 O.co2     1 ASC3        0.0000 
      7 OD1        30.1720   38.0200    4.5650 O.co2     5 ASL3        0.0000 
      8 OD1        33.1550   36.6110    4.8860 O.co2     3 ASP3        0.0000 
      9 OD1        31.0170   37.6605    5.5310 O.co2     1 ASC3        0.0000 
     10 OD1        31.8620   37.3010    6.4970 O.co2     3 ASP3        0.0000 
     11 OD1        29.6215   38.0865    5.8070 O.co2     1 ASC3        0.0000 
     12 OD1        29.0710   38.1530    7.0490 O.co2     3 ASP3        0.0000 
     13 OD1        28.8890   38.0030    5.0030 O.co2     1 ASC3        0.0000 
     14 OD1        27.6060   37.9860    5.4410 O.co2     3 ASP3        0.0000 
     15 CA         29.8475   35.8275    5.2005 C.3       2 GLC5        0.0000 
     16 CA         30.1630   36.8240    3.6840 C.3       6 GLL5        0.0000 
     17 CA         29.5320   34.8310    6.7170 C.3       4 GLP5        0.0000 
     18 CA         31.5935   35.1275    3.8335 C.3       2 GLC5        0.0000 
     19 CA         33.0240   33.4310    3.9830 C.3       4 GLP5        0.0000 
     20 CA         33.0665   34.6695    2.4300 C.3       2 GLC5        0.0000 
     21 CA         33.1090   35.9080    0.8770 C.3       6 GLL5        0.0000 
     22 CA         35.4965   37.6605   -0.3055 C.3       2 GLC5        0.0000 
     23 CA         33.7710   36.7900   -0.1880 C.3       6 GLL5        0.0000 
     24 CA         37.2220   38.5310   -0.4230 C.3       4 GLP5        0.0000 
     25 CA         35.5800   40.4935   -3.8745 C.3       2 GLC5        0.0000 
     26 CA         33.7740   39.5690   -3.9500 C.3       6 GLL5        0.0000 
     27 CA         37.3860   41.4180   -3.7990 C.3       4 GLP5        0.0000 
     28 CA         34.1450   39.1585   -6.6405 C.3       2 GLC5        0.0000 
     29 CA         34.7220   38.9270   -4.7490 C.3       6 GLL5        0.0000 
     30 CA         33.5680   39.3900   -8.5320 C.3       4 GLP5        0.0000 
     31 CA         34.6220   34.8660   -2.8920 C.3       2 GLC5        0.0000 
     32 CA         34.5020   36.9180   -3.4070 C.3       6 GLL5        0.0000 
     33 CA         34.7420   32.8140   -2.3770 C.3       4 GLP5        0.0000 
     34 CA         29.7590   40.0655   -1.6960 C.3       2 GLC5        0.0000 
     35 CA         30.5950   40.5570   -0.1380 C.3       6 GLL5        0.0000 
     36 CA         28.9230   39.5740   -3.2540 C.3       4 GLP5        0.0000 
     37 CA         30.0560   30.7315    3.1005 C.3       2 GLC5        0.0000 
     38 CA         30.5970   31.7430    1.2880 C.3       6 GLL5        0.0000 
     39 CA         29.5150   29.7200    4.9130 C.3       4 GLP5        0.0000 
     40 CA         32.8290   29.5920   -1.3990 C.3       2 GLC5        0.0000 
     41 CA         31.2550   31.1190   -0.9470 C.3       6 GLL5        0.0000 
     42 CA         34.4030   28.0650   -1.8510 C.3       4 GLP5        0.0000 
     43 CA         34.7620   36.7245    1.9552 C.3       2 GLC5        0.0000 
     44 CA         36.0840   37.1000    3.5660 C.3       4 GLP5        0.0000 
     45 CA         33.2818   34.0165   -1.7820 C.3       2 GLC5        0.0000 
     46 CA         32.2710   35.4670   -1.7630 C.3       6 GLL5        0.0000 
     47 CA         30.6977   36.2047   -2.1525 C.3       2 GLC5        0.0000 
     48 CA         31.3720   34.9710   -0.6110 C.3       6 GLL5        0.0000 
     49 CA         29.4220   36.8460   -3.2000 C.3       4 GLP5        0.0000 
     50 CA         32.2370   37.6142   -3.9040 C.3       2 GLC5        0.0000 
     51 CA         33.5450   37.5440   -2.6020 C.3       6 GLL5        0.0000 
     52 CA         31.1040   37.0200   -5.0650 C.3       4 GLP5        0.0000 
     53 CA         32.6760   38.1340   -4.7073 C.3       2 GLC5        0.0000 
     54 CA         36.5285   39.1770   -4.1940 C.3       2 GLC5        0.0000 
     55 CA         35.0820   37.6050   -4.4710 C.3       6 GLL5        0.0000 
     56 CA         38.1550   40.0880   -3.7780 C.3       4 GLP5        0.0000 
     57 CA         32.9480   37.1407   -4.5020 C.3       2 GLC5        0.0000 
     58 CA         35.1910   37.0100   -5.6733 C.3       2 GLC5        0.0000 
     59 CA         35.6800   36.4280   -7.3380 C.3       4 GLP5        0.0000 
     60 CA         28.8745   39.2785   -0.5590 C.3       2 GLC5        0.0000 
     61 CA         29.4720   40.4950    0.8990 C.3       6 GLL5        0.0000 
     62 CA         28.2530   38.7490   -2.3570 C.3       4 GLP5        0.0000 
     63 CA         34.9073   40.2515    3.4215 C.3       2 GLC5        0.0000 
     64 CA         33.2770   39.3470    2.2560 C.3       6 GLL5        0.0000 
     65 CA         35.9450   40.8040    4.8730 C.3       4 GLP5        0.0000 
     66 CA         34.9768   38.3995    2.7680 C.3       2 GLC5        0.0000 
     67 CA         34.4620   40.0510    1.6840 C.3       6 GLL5        0.0000 
     68 CA         31.8563   32.9222    2.5503 C.3       2 GLC5        0.0000 
     69 CA         30.7800   33.0840    0.9470 C.3       6 GLL5        0.0000 
     70 CA         33.0134   32.4306   -1.6264 C.3       2 GLC5        0.0000 
     71 CA         31.2010   33.4810   -0.3330 C.3       6 GLL5        0.0000 
@<TRIPOS>BOND
@<TRIPOS>SUBSTRUCTURE
     1 ASC3        6 GROUP        1 X    ASC  0     ROOT ASC X 3
     2 GLC5        1 GROUP        1 X    GLC  0     **** GLC X 6
     3 ASP3        8 GROUP        1 Y    ASP  0     ROOT ASP Y 10
     4 GLP5        3 GROUP        1 Y    GLP  0     **** GLP Y 13
     5 ASL3        7 GROUP        1 Z    ASL  0     ROOT ASL Z 17
     6 GLL5        2 GROUP        1 Z    GLL  0     **** GLL Z 20
@<TRIPOS>SET

