#    Name: 3ufl_508_1_ligand
#    Modification time : Mon Mar 24 22:17:44 2014

@<TRIPOS>MOLECULE
3ufl_508_1_ligand
   67    72     1     0     0
SMALL
NO_CHARGES


@<TRIPOS>ATOM
      1 C          30.8330   38.7490    2.3120 C.3       1 508449      0.0000 
      2 C1         30.6730   39.1810    3.7760 C.3       1 508449      0.0000 
      3 N          30.1720   38.0200    4.5650 N.4       1 508449      0.0000 
      4 C2         30.1630   36.8240    3.6840 C.3       1 508449      0.0000 
      5 C3         31.0160   37.2280    2.4800 C.3       1 508449      0.0000 
      6 C4         30.6680   36.3700    1.2810 C.2       1 508449      0.0000 
      7 O          29.4880   36.2200    0.9890 O.2       1 508449      0.0000 
      8 N5         31.6700   35.8030    0.5710 N.am      1 508449      0.0000 
      9 C6         33.1090   35.9080    0.8770 C.3       1 508449      0.0000 
     10 C7         33.7710   36.7900   -0.1880 C.3       1 508449      0.0000 
     11 C8         32.8790   36.8450   -1.4350 C.3       1 508449      0.0000 
     12 C9         32.2710   35.4670   -1.7630 C.3       1 508449      0.0000 
     13 C10        31.3720   34.9710   -0.6110 C.3       1 508449      0.0000 
     14 C11        33.5450   37.5440   -2.6020 C.ar      1 508449      0.0000 
     15 C12        33.1950   38.8730   -2.8840 C.ar      1 508449      0.0000 
     16 C13        33.7740   39.5690   -3.9500 C.ar      1 508449      0.0000 
     17 C14        34.7220   38.9270   -4.7490 C.ar      1 508449      0.0000 
     18 C15        35.0820   37.6050   -4.4710 C.ar      1 508449      0.0000 
     19 C16        34.5020   36.9180   -3.4070 C.ar      1 508449      0.0000 
     20 C17        29.5200   39.1210    1.5790 C.3       1 508449      0.0000 
     21 C18        29.4720   40.4950    0.8990 C.3       1 508449      0.0000 
     22 C19        30.5950   40.5570   -0.1380 C.3       1 508449      0.0000 
     23 C20        31.9310   40.3460    0.5290 C.ar      1 508449      0.0000 
     24 C21        32.0570   39.4610    1.7340 C.ar      1 508449      0.0000 
     25 C22        32.9780   40.9790    0.0140 C.ar      1 508449      0.0000 
     26 C23        34.3310   40.8290    0.6190 C.ar      1 508449      0.0000 
     27 C24        34.4620   40.0510    1.6840 C.ar      1 508449      0.0000 
     28 C25        33.2770   39.3470    2.2560 C.ar      1 508449      0.0000 
     29 C26        31.2010   33.4810   -0.3330 C.ar      1 508449      0.0000 
     30 C27        30.7800   33.0840    0.9470 C.ar      1 508449      0.0000 
     31 C28        30.5970   31.7430    1.2880 C.ar      1 508449      0.0000 
     32 C29        30.8380   30.7560    0.3350 C.ar      1 508449      0.0000 
     33 C30        31.2550   31.1190   -0.9470 C.ar      1 508449      0.0000 
     34 C31        31.4280   32.4700   -1.2760 C.ar      1 508449      0.0000 
     35 H          29.9679   40.0023    3.8206 H         1 508449      0.0000 
     36 H          31.6367   39.5057    4.1496 H         1 508449      0.0000 
     37 H          29.1725   36.6038    3.3514 H         1 508449      0.0000 
     38 H          30.6190   35.9898    4.1702 H         1 508449      0.0000 
     39 H          32.0575   37.0497    2.7678 H         1 508449      0.0000 
     40 H          33.5804   34.9312    0.8566 H         1 508449      0.0000 
     41 H          33.2649   36.3654    1.8482 H         1 508449      0.0000 
     42 H          34.7324   36.3709   -0.4539 H         1 508449      0.0000 
     43 H          33.9001   37.7901    0.2041 H         1 508449      0.0000 
     44 H          31.9945   37.4989   -1.1339 H         1 508449      0.0000 
     45 H          33.0732   34.7518   -1.9210 H         1 508449      0.0000 
     46 H          31.6767   35.5459   -2.6689 H         1 508449      0.0000 
     47 H          30.3031   35.3468   -0.9365 H         1 508449      0.0000 
     48 H          32.4930   39.3469   -2.2893 H         1 508449      0.0000 
     49 H          33.5059   40.5352   -4.1408 H         1 508449      0.0000 
     50 H          35.1524   39.4217   -5.5357 H         1 508449      0.0000 
     51 H          35.7853   37.1349   -5.0618 H         1 508449      0.0000 
     52 H          34.7770   35.9467   -3.2107 H         1 508449      0.0000 
     53 H          28.6839   39.0541    2.3097 H         1 508449      0.0000 
     54 H          29.3142   38.3372    0.8168 H         1 508449      0.0000 
     55 H          29.6208   41.2649    1.6377 H         1 508449      0.0000 
     56 H          28.5210   40.6179    0.4081 H         1 508449      0.0000 
     57 H          30.5745   41.5304   -0.6236 H         1 508449      0.0000 
     58 H          30.4293   39.7838   -0.8853 H         1 508449      0.0000 
     59 H          32.9283   41.5952   -0.8097 H         1 508449      0.0000 
     60 H          35.0835   41.3403    0.1716 H         1 508449      0.0000 
     61 H          35.3516   39.8842    2.1712 H         1 508449      0.0000 
     62 H          33.4810   38.7620    3.0928 H         1 508449      0.0000 
     63 H          30.5993   33.8178    1.6629 H         1 508449      0.0000 
     64 H          30.2887   31.4885    2.2295 H         1 508449      0.0000 
     65 H          30.7102   29.7672    0.5725 H         1 508449      0.0000 
     66 H          31.4361   30.3952   -1.6528 H         1 508449      0.0000 
     67 H          31.7283   32.7251   -2.2310 H         1 508449      0.0000 
@<TRIPOS>BOND
     1    2    1 1    
     2    5    1 1    
     3   20    1 1    
     4   24    1 1    
     5    3    2 1    
     6   35    2 1    
     7   36    2 1    
     8    4    3 1    
     9    5    4 1    
    10   37    4 1    
    11   38    4 1    
    12    6    5 1    
    13   39    5 1    
    14    7    6 2    
    15    8    6 am   
    16    9    8 1    
    17   13    8 1    
    18   10    9 1    
    19   40    9 1    
    20   41    9 1    
    21   11   10 1    
    22   42   10 1    
    23   43   10 1    
    24   12   11 1    
    25   14   11 1    
    26   44   11 1    
    27   13   12 1    
    28   45   12 1    
    29   46   12 1    
    30   29   13 1    
    31   47   13 1    
    32   15   14 ar   
    33   19   14 ar   
    34   16   15 ar   
    35   48   15 1    
    36   17   16 ar   
    37   49   16 1    
    38   18   17 ar   
    39   50   17 1    
    40   19   18 ar   
    41   51   18 1    
    42   52   19 1    
    43   21   20 1    
    44   53   20 1    
    45   54   20 1    
    46   22   21 1    
    47   55   21 1    
    48   56   21 1    
    49   23   22 1    
    50   57   22 1    
    51   58   22 1    
    52   24   23 ar   
    53   25   23 ar   
    54   28   24 ar   
    55   26   25 ar   
    56   59   25 1    
    57   27   26 ar   
    58   60   26 1    
    59   28   27 ar   
    60   61   27 1    
    61   62   28 1    
    62   30   29 ar   
    63   34   29 ar   
    64   31   30 ar   
    65   63   30 1    
    66   32   31 ar   
    67   64   31 1    
    68   33   32 ar   
    69   65   32 1    
    70   34   33 ar   
    71   66   33 1    
    72   67   34 1    
@<TRIPOS>SUBSTRUCTURE
     1 508449      1 GROUP   
@<TRIPOS>SET

