#    Name: 4mxy_DB8_1_INTS_M
#    Modification time : Tue Mar 25 12:27:00 2014

@<TRIPOS>MOLECULE
4mxy_DB8_1_INTS_M
   87     0     6     0     0
SMALL
NO_CHARGES


@<TRIPOS>ATOM
      1 CA         11.7975  -41.3735   -6.6275 C.3       2 GLC5        0.0000 
      2 CA         10.9590  -40.4850   -5.0740 C.3       6 GLL5        0.0000 
      3 CA         12.6360  -42.2620   -8.1810 C.3       4 GLP5        0.0000 
      4 CA         10.5205  -40.1935   -7.1970 C.3       2 GLC5        0.0000 
      5 CA         10.0820  -39.9020   -9.3200 C.3       4 GLP5        0.0000 
      6 CA          2.1580  -32.8740  -10.4105 C.3       2 GLC5        0.0000 
      7 CA          3.8810  -33.6760   -9.3940 C.3       6 GLL5        0.0000 
      8 CA          0.4350  -32.0720  -11.4270 C.3       4 GLP5        0.0000 
      9 CA          4.7570  -34.4115   -5.0725 C.3       2 GLC5        0.0000 
     10 CA          6.8270  -35.2340   -5.0320 C.3       6 GLL5        0.0000 
     11 CA          2.6870  -33.5890   -5.1130 C.3       4 GLP5        0.0000 
     12 CA          9.4850  -31.8180   -8.6105 C.3       2 GLC5        0.0000 
     13 CA          9.4950  -33.7530   -8.6480 C.3       6 GLL5        0.0000 
     14 CA          9.4750  -29.8830   -8.5730 C.3       4 GLP5        0.0000 
     15 CA          9.2645  -32.8200  -10.6605 C.3       2 GLC5        0.0000 
     16 CA          9.0340  -31.8870  -12.6730 C.3       4 GLP5        0.0000 
     17 CA         13.5200  -33.5575   -9.4175 C.3       2 GLC5        0.0000 
     18 CA         11.9990  -34.2900   -8.4650 C.3       6 GLL5        0.0000 
     19 CA         15.0410  -32.8250  -10.3700 C.3       4 GLP5        0.0000 
     20 CA         12.6215  -32.7790   -7.3810 C.3       2 GLC5        0.0000 
     21 CA         13.2440  -31.2680   -6.2970 C.3       4 GLP5        0.0000 
     22 CA          6.0385  -32.8935   -6.2715 C.3       2 GLC5        0.0000 
     23 CA          5.4970  -34.5420   -7.3350 C.3       6 GLL5        0.0000 
     24 CA          6.5800  -31.2450   -5.2080 C.3       4 GLP5        0.0000 
     25 CA          4.0920  -34.0655   -6.2240 C.3       2 GLC5        0.0000 
     26 CA         17.4280  -37.0390   -3.1940 C.3       2 GLC5        0.0000 
     27 CA         17.2150  -38.7720   -4.5870 C.3       6 GLL5        0.0000 
     28 CA         17.6410  -35.3060   -1.8010 C.3       4 GLP5        0.0000 
     29 CA         15.6860  -40.2625   -6.7250 C.3       2 GLC5        0.0000 
     30 CA         16.2580  -38.4840   -5.7420 C.3       6 GLL5        0.0000 
     31 CA         15.1140  -42.0410   -7.7080 C.3       4 GLP5        0.0000 
     32 CA         16.9850  -37.7005   -7.2885 C.3       2 GLC5        0.0000 
     33 CA         17.7120  -36.9170   -8.8350 C.3       4 GLP5        0.0000 
     34 N          14.0120  -33.9835   -7.9475 N.am      1 SEC2        0.0000 
     35 N          13.1050  -35.0320   -7.9540 N.am      5 SEL2        0.0000 
     36 N          14.9190  -32.9350   -7.9410 N.am      3 SEP2        0.0000 
     37 CA          6.3890  -33.3590  -10.7050 C.3       2 GLC5        0.0000 
     38 CA          6.3100  -35.1030   -9.7260 C.3       6 GLL5        0.0000 
     39 CA          6.4680  -31.6150  -11.6840 C.3       4 GLP5        0.0000 
     40 CA          8.6700  -34.4850   -6.5370 C.3       2 GLC5        0.0000 
     41 CA          7.7200  -35.8440   -7.6830 C.3       6 GLL5        0.0000 
     42 CA          9.6200  -33.1260   -5.3910 C.3       4 GLP5        0.0000 
     43 CA         10.1770  -37.9460   -8.3965 C.3       2 GLC5        0.0000 
     44 CA         10.2720  -35.9900   -7.4730 C.3       6 GLL5        0.0000 
     45 CA         11.2195  -35.8990   -9.4885 C.3       2 GLC5        0.0000 
     46 CA         12.1670  -35.8080  -11.5040 C.3       4 GLP5        0.0000 
     47 CA          9.9460  -34.5580   -6.4320 C.3       2 GLC5        0.0000 
     48 CA         12.5320  -36.0230   -9.3520 C.3       2 GLC5        0.0000 
     49 CA         12.8970  -36.2380   -7.2000 C.3       6 GLL5        0.0000 
     50 CA         13.5090  -34.2970   -6.4565 C.3       2 GLC5        0.0000 
     51 CA         14.1210  -32.3560   -5.7130 C.3       4 GLP5        0.0000 
     52 CA         11.9760  -35.4390   -5.5930 C.3       2 GLC5        0.0000 
     53 CA         11.0550  -34.6400   -3.9860 C.3       4 GLP5        0.0000 
     54 CA          8.3310  -36.3635  -13.2055 C.3       2 GLC5        0.0000 
     55 CA          7.3100  -34.9370  -11.8780 C.3       6 GLL5        0.0000 
     56 CA          9.3520  -37.7900  -14.5330 C.3       4 GLP5        0.0000 
     57 CA          6.1945  -36.2815  -12.0270 C.3       2 GLC5        0.0000 
     58 CA          5.0790  -37.6260  -12.1760 C.3       4 GLP5        0.0000 
     59 CA          6.0020  -34.3850  -13.1600 C.3       2 GLC5        0.0000 
     60 CA          4.6940  -33.8330  -14.4420 C.3       4 GLP5        0.0000 
     61 CA          7.4405  -33.4350  -12.4665 C.3       2 GLC5        0.0000 
     62 CA          7.5710  -31.9330  -13.0550 C.3       4 GLP5        0.0000 
     63 CA          3.8438  -35.7385   -9.8530 C.3       2 GLC5        0.0000 
     64 CA          5.2960  -34.4780   -8.8040 C.3       6 GLL5        0.0000 
     65 CA          3.0990  -37.4000  -10.6070 C.3       4 GLP5        0.0000 
     66 CA          5.5282  -32.8460  -10.3915 C.3       2 GLC5        0.0000 
     67 CA          3.5488  -33.2450   -7.5885 C.3       2 GLC5        0.0000 
     68 CA          2.5090  -32.4130   -6.0780 C.3       4 GLP5        0.0000 
     69 CA          8.1907  -34.1755   -5.6448 C.3       2 GLC5        0.0000 
     70 CA          6.6960  -35.2160   -6.7650 C.3       6 GLL5        0.0000 
     71 CA          6.6707  -33.2350   -5.5533 C.3       2 GLC5        0.0000 
     72 CA         11.5920  -35.0353   -9.9817 C.3       2 GLC5        0.0000 
     73 CA         10.3185  -33.6942   -6.9253 C.3       2 GLC5        0.0000 
     74 CA          7.5987  -37.8985   -8.7518 C.3       2 GLC5        0.0000 
     75 CA          7.5790  -39.9810   -9.0760 C.3       4 GLP5        0.0000 
     76 CA          5.9962  -36.5357  -10.8125 C.3       2 GLC5        0.0000 
     77 CA          7.5170  -35.7880   -9.1720 C.3       6 GLL5        0.0000 
     78 CA         10.7333  -38.6440   -7.9305 C.3       2 GLC5        0.0000 
     79 CA         11.2790  -38.0170   -6.1460 C.3       6 GLL5        0.0000 
     80 CA         11.2198  -36.0130   -5.2635 C.3       2 GLC5        0.0000 
     81 CA         15.3311  -37.7059   -3.6742 C.3       2 GLC5        0.0000 
     82 CA         14.0900  -36.5370   -2.4230 C.3       4 GLP5        0.0000 
     83 CA         13.5738  -39.2315   -7.4980 C.3       2 GLC5        0.0000 
     84 CA         14.0860  -37.0120   -6.6610 C.3       6 GLL5        0.0000 
     85 CA         13.9270  -40.2610   -9.0480 C.3       4 GLP5        0.0000 
     86 CA         13.6552  -37.3695   -4.1855 C.3       2 GLC5        0.0000 
     87 CA         13.8580  -38.2700   -5.8810 C.3       6 GLL5        0.0000 
@<TRIPOS>BOND
@<TRIPOS>SUBSTRUCTURE
     1 SEC2       34 GROUP        1 X    SEC  0     ROOT SEC X 2
     2 GLC5        1 GROUP        1 X    GLC  0     **** GLC X 6
     3 SEP2       36 GROUP        1 Y    SEP  0     ROOT SEP Y 9
     4 GLP5        3 GROUP        1 Y    GLP  0     **** GLP Y 13
     5 SEL2       35 GROUP        1 Z    SEL  0     ROOT SEL Z 16
     6 GLL5        2 GROUP        1 Z    GLL  0     **** GLL Z 20
@<TRIPOS>SET

