#    Name: 4mxy_DB8_1_ligand
#    Modification time : Tue Mar 25 12:27:00 2014

@<TRIPOS>MOLECULE
4mxy_DB8_1_ligand
   66    69     1     0     0
SMALL
NO_CHARGES


@<TRIPOS>ATOM
      1 CAA        10.9590  -40.4850   -5.0740 C.3       1 DB8601      0.0000 
      2 O02         6.1670  -35.0660  -11.0910 O.3       1 DB8601      0.0000 
      3 CAC        16.5580  -39.7590   -3.6310 C.3       1 DB8601      0.0000 
      4 NAD         8.6790  -33.0220   -8.9500 N.1       1 DB8601      0.0000 
      5 CL1         3.8810  -33.6760   -9.3940 Cl        1 DB8601      0.0000 
      6 CL2         6.8270  -35.2340   -5.0320 Cl        1 DB8601      0.0000 
      7 CAG         9.4950  -33.7530   -8.6480 C.1       1 DB8601      0.0000 
      8 CAH        11.9990  -34.2900   -8.4650 C.ar      1 DB8601      0.0000 
      9 CAI         5.4970  -34.5420   -7.3350 C.ar      1 DB8601      0.0000 
     10 CAJ         7.5170  -35.7880   -9.1720 C.ar      1 DB8601      0.0000 
     11 CAK        14.0860  -37.0120   -6.6610 C.ar      1 DB8601      0.0000 
     12 CAL        11.2790  -38.0170   -6.1460 C.ar      1 DB8601      0.0000 
     13 CAM        17.2150  -38.7720   -4.5870 C.3       1 DB8601      0.0000 
     14 CAN        16.2580  -38.4840   -5.7420 C.3       1 DB8601      0.0000 
     15 CAO        20.5500  -40.8800    0.4190 C.3       1 DB8601      0.0000 
     16 CAP        17.2040  -39.9490   -1.1030 C.3       1 DB8601      0.0000 
     17 CAQ        18.9100  -39.7610   -2.7710 C.3       1 DB8601      0.0000 
     18 CAR        18.1740  -40.7830   -0.2370 C.3       1 DB8601      0.0000 
     19 CAS        19.8010  -40.6730   -1.9810 C.3       1 DB8601      0.0000 
     20 NAT        13.1050  -35.0320   -7.9540 N.ar      1 DB8601      0.0000 
     21 NAU         8.9140  -36.5110   -7.1880 N.pl3     1 DB8601      0.0000 
     22 OAV        12.2150  -39.9120   -4.9170 O.3       1 DB8601      0.0000 
     23 OAW        14.9810  -38.9540   -5.3970 O.3       1 DB8601      0.0000 
     24 CAX         6.3100  -35.1030   -9.7260 C.ar      1 DB8601      0.0000 
     25 CAY         5.2960  -34.4780   -8.8040 C.ar      1 DB8601      0.0000 
     26 CAZ         6.6960  -35.2160   -6.7650 C.ar      1 DB8601      0.0000 
     27 CBA        10.5750  -34.7170   -8.2600 C.ar      1 DB8601      0.0000 
     28 CBB         7.7200  -35.8440   -7.6830 C.ar      1 DB8601      0.0000 
     29 CBC        12.4690  -38.7630   -5.6250 C.ar      1 DB8601      0.0000 
     30 CBD        13.8580  -38.2700   -5.8810 C.ar      1 DB8601      0.0000 
     31 CBE        10.2720  -35.9900   -7.4730 C.ar      1 DB8601      0.0000 
     32 CBF        12.8970  -36.2380   -7.2000 C.ar      1 DB8601      0.0000 
     33 CBG        11.4900  -36.7550   -6.9360 C.ar      1 DB8601      0.0000 
     34 NBH        17.5250  -40.1050   -2.5300 N.3       1 DB8601      0.0000 
     35 NBI        19.5520  -40.4990   -0.5760 N.4       1 DB8601      0.0000 
     36 C01         7.3100  -34.9370  -11.8780 C.3       1 DB8601      0.0000 
     37 H          16.2846  -40.6562   -4.1773 H         1 DB8601      0.0000 
     38 H          15.6657  -39.3069   -3.2097 H         1 DB8601      0.0000 
     39 H          12.1506  -33.4282   -8.9964 H         1 DB8601      0.0000 
     40 H           4.8232  -34.1299   -6.7216 H         1 DB8601      0.0000 
     41 H           8.1801  -36.2029   -9.7768 H         1 DB8601      0.0000 
     42 H          15.0000  -36.6812   -6.8281 H         1 DB8601      0.0000 
     43 H          10.3661  -38.3478   -5.9741 H         1 DB8601      0.0000 
     44 H          18.1292  -39.1997   -4.9767 H         1 DB8601      0.0000 
     45 H          17.4323  -37.8508   -4.0630 H         1 DB8601      0.0000 
     46 H          16.6596  -38.9785   -6.6329 H         1 DB8601      0.0000 
     47 H          16.2726  -37.4034   -5.9194 H         1 DB8601      0.0000 
     48 H          17.2906  -38.9047   -0.7955 H         1 DB8601      0.0000 
     49 H          16.1876  -40.2882   -0.8924 H         1 DB8601      0.0000 
     50 H          19.1578  -39.8601   -3.8341 H         1 DB8601      0.0000 
     51 H          19.1128  -38.7257   -2.4736 H         1 DB8601      0.0000 
     52 H          17.9319  -41.8420   -0.3961 H         1 DB8601      0.0000 
     53 H          17.9632  -40.5484    0.8146 H         1 DB8601      0.0000 
     54 H          20.8454  -40.4427   -2.2288 H         1 DB8601      0.0000 
     55 H          19.6063  -41.7078   -2.2917 H         1 DB8601      0.0000 
     56 H           8.8273  -37.3558   -6.6320 H         1 DB8601      0.0000 
     57 H          19.5522  -39.2674   -0.4778 H         1 DB8601      0.0000 
     58 H          10.7815  -40.7358   -6.0256 H         1 DB8601      0.0000 
     59 H          10.8595  -41.3170   -4.5282 H         1 DB8601      0.0000 
     60 H          10.2288  -39.8617   -4.7941 H         1 DB8601      0.0000 
     61 H          21.4775  -40.6568    0.1191 H         1 DB8601      0.0000 
     62 H          20.4031  -40.4120    1.2904 H         1 DB8601      0.0000 
     63 H          20.5311  -41.8620    0.6069 H         1 DB8601      0.0000 
     64 H           7.8067  -34.0929  -11.6760 H         1 DB8601      0.0000 
     65 H           7.9475  -35.6939  -11.7339 H         1 DB8601      0.0000 
     66 H           7.0896  -34.9211  -12.8533 H         1 DB8601      0.0000 
@<TRIPOS>BOND
     1   22    1 1    
     2   58    1 1    
     3   59    1 1    
     4   60    1 1    
     5   24    2 1    
     6   36    2 1    
     7   13    3 1    
     8   34    3 1    
     9   37    3 1    
    10   38    3 1    
    11    7    4 3    
    12   25    5 1    
    13   26    6 1    
    14   27    7 1    
    15   20    8 ar   
    16   27    8 ar   
    17   39    8 1    
    18   25    9 ar   
    19   26    9 ar   
    20   40    9 1    
    21   24   10 ar   
    22   28   10 ar   
    23   41   10 1    
    24   30   11 ar   
    25   32   11 ar   
    26   42   11 1    
    27   29   12 ar   
    28   33   12 ar   
    29   43   12 1    
    30   14   13 1    
    31   44   13 1    
    32   45   13 1    
    33   23   14 1    
    34   46   14 1    
    35   47   14 1    
    36   35   15 1    
    37   61   15 1    
    38   62   15 1    
    39   63   15 1    
    40   18   16 1    
    41   34   16 1    
    42   48   16 1    
    43   49   16 1    
    44   19   17 1    
    45   34   17 1    
    46   50   17 1    
    47   51   17 1    
    48   35   18 1    
    49   52   18 1    
    50   53   18 1    
    51   35   19 1    
    52   54   19 1    
    53   55   19 1    
    54   32   20 ar   
    55   28   21 1    
    56   31   21 1    
    57   56   21 1    
    58   29   22 1    
    59   30   23 1    
    60   25   24 ar   
    61   28   26 ar   
    62   31   27 ar   
    63   30   29 ar   
    64   33   31 ar   
    65   33   32 ar   
    66   57   35 1    
    67   64   36 1    
    68   65   36 1    
    69   66   36 1    
@<TRIPOS>SUBSTRUCTURE
     1 DB8601      1 GROUP   
@<TRIPOS>SET

