#    Name: 3rpv_26Z_1_INTS_M
#    Modification time : Tue Mar 25 11:48:34 2014

@<TRIPOS>MOLECULE
3rpv_26Z_1_INTS_M
   61     0     9     0     0
SMALL
NO_CHARGES


@<TRIPOS>ATOM
      1 N          64.3115  118.3515  -87.8935 N.am      2 SEC2        0.0000 
      2 N          65.3520  117.6420  -86.8150 N.am      8 SEL2        0.0000 
      3 N          63.2710  119.0610  -88.9720 N.am      5 SEP2        0.0000 
      4 O          66.7825  117.5725  -89.5220 O.2       1 ALC1        0.0000 
      5 O          66.8850  116.7830  -88.3510 O.2       7 ALL1        0.0000 
      6 O          66.6800  118.3620  -90.6930 O.2       4 ALP1        0.0000 
      7 O          67.4315  110.8410  -82.4425 O.2       1 ALC1        0.0000 
      8 O          67.3660  112.3040  -82.4470 O.2       7 ALL1        0.0000 
      9 O          67.4970  109.3780  -82.4380 O.2       4 ALP1        0.0000 
     10 O          61.5900  115.1070  -79.7755 O.2       1 ALC1        0.0000 
     11 O          61.4110  116.4060  -79.1560 O.2       7 ALL1        0.0000 
     12 O          61.7690  113.8080  -80.3950 O.2       4 ALP1        0.0000 
     13 CA         72.5590  113.8065  -83.9600 C.3       3 GLC5        0.0000 
     14 CA         70.4700  113.6150  -83.7810 C.3       9 GLL5        0.0000 
     15 CA         74.6480  113.9980  -84.1390 C.3       6 GLP5        0.0000 
     16 CA         66.1330  114.0080  -85.8870 C.3       3 GLC5        0.0000 
     17 CA         67.6830  113.7430  -84.3010 C.3       9 GLL5        0.0000 
     18 CA         64.5830  114.2730  -87.4730 C.3       6 GLP5        0.0000 
     19 CA         63.3905  115.1000  -84.3435 C.3       3 GLC5        0.0000 
     20 CA         63.5090  116.7830  -83.1570 C.3       9 GLL5        0.0000 
     21 CA         63.2720  113.4170  -85.5300 C.3       6 GLP5        0.0000 
     22 CA         61.9155  114.7730  -82.2855 C.3       3 GLC5        0.0000 
     23 CA         62.6600  116.5720  -82.0470 C.3       9 GLL5        0.0000 
     24 CA         61.1710  112.9740  -82.5240 C.3       6 GLP5        0.0000 
     25 CA         64.3680  119.5705  -83.3245 C.3       3 GLC5        0.0000 
     26 CA         62.3550  118.9140  -83.6130 C.3       9 GLL5        0.0000 
     27 CA         66.3810  120.2270  -83.0360 C.3       6 GLP5        0.0000 
     28 N          59.4960  115.5755  -82.0590 N.am      2 SEC2        0.0000 
     29 N          59.4980  116.4510  -80.8600 N.am      8 SEL2        0.0000 
     30 N          59.4940  114.7000  -83.2580 N.am      5 SEP2        0.0000 
     31 CA         66.2655  118.3620  -83.8500 C.3       3 GLC5        0.0000 
     32 CA         66.1500  116.4970  -84.6640 C.3       9 GLL5        0.0000 
     33 CA         68.0965  117.0775  -83.8140 C.3       3 GLC5        0.0000 
     34 CA         70.0430  117.6580  -82.9640 C.3       6 GLP5        0.0000 
     35 CA         67.3860  117.9130  -85.8020 C.3       3 GLC5        0.0000 
     36 CA         68.6220  119.3290  -86.9400 C.3       6 GLP5        0.0000 
     37 CA         65.3665  115.3850  -86.0685 C.3       3 GLC5        0.0000 
     38 CA         67.6840  117.9075  -86.7862 C.3       3 GLC5        0.0000 
     39 CA         67.0380  116.1290  -86.1100 C.3       9 GLL5        0.0000 
     40 CA         65.6645  115.3795  -87.0528 C.3       3 GLC5        0.0000 
     41 CA         66.4540  116.8430  -87.1550 C.3       9 GLL5        0.0000 
     42 CA         64.6135  117.7823  -82.2490 C.3       3 GLC5        0.0000 
     43 CA         63.3670  117.9620  -83.9610 C.3       9 GLL5        0.0000 
     44 CA         65.7890  118.1920  -80.9390 C.3       6 GLP5        0.0000 
     45 CA         69.6685  116.0477  -83.9843 C.3       3 GLC5        0.0000 
     46 CA         68.5960  114.4770  -85.1430 C.3       9 GLL5        0.0000 
     47 CA         67.4787  112.8575  -86.2540 C.3       3 GLC5        0.0000 
     48 CA         66.8180  111.6050  -87.7860 C.3       6 GLP5        0.0000 
     49 CA         70.2555  112.1103  -84.7438 C.3       3 GLC5        0.0000 
     50 CA         69.9920  114.3980  -84.8660 C.3       9 GLL5        0.0000 
     51 CA         70.2800  110.2140  -85.1640 C.3       6 GLP5        0.0000 
     52 CA         70.5402  114.6235  -82.3750 C.3       3 GLC5        0.0000 
     53 CA         71.0620  115.9910  -81.3840 C.3       6 GLP5        0.0000 
     54 CA         69.2786  111.7742  -84.4267 C.3       3 GLC5        0.0000 
     55 CA         69.5670  112.8970  -82.9510 C.3       9 GLL5        0.0000 
     56 CA         63.9760  117.6220  -81.4140 C.3       3 GLC5        0.0000 
     57 CA         60.6983  119.3020  -84.6917 C.3       3 GLC5        0.0000 
     58 CA         61.5180  118.7020  -82.5140 C.3       9 GLL5        0.0000 
     59 CA         59.4600  119.7960  -86.3200 C.3       6 GLP5        0.0000 
     60 CA         60.3072  117.6573  -83.5299 C.3       3 GLC5        0.0000 
     61 CA         58.6410  116.7990  -84.1920 C.3       6 GLP5        0.0000 
@<TRIPOS>BOND
@<TRIPOS>SUBSTRUCTURE
     1 ALC1        4 GROUP        1 X    ALC  0     ROOT ALC X 1
     2 SEC2        1 GROUP        1 X    SEC  0     **** SEC X 2
     3 GLC5       13 GROUP        1 X    GLC  0     **** GLC X 6
     4 ALP1        6 GROUP        1 Y    ALP  0     ROOT ALP Y 8
     5 SEP2        3 GROUP        1 Y    SEP  0     **** SEP Y 9
     6 GLP5       15 GROUP        1 Y    GLP  0     **** GLP Y 13
     7 ALL1        5 GROUP        1 Z    ALL  0     ROOT ALL Z 15
     8 SEL2        2 GROUP        1 Z    SEL  0     **** SEL Z 16
     9 GLL5       14 GROUP        1 Z    GLL  0     **** GLL Z 20
@<TRIPOS>SET

