#    Name: 3rpv_26Z_1_ligand
#    Modification time : Tue Mar 25 11:48:34 2014

@<TRIPOS>MOLECULE
3rpv_26Z_1_ligand
   41    43     1     0     0
SMALL
NO_CHARGES


@<TRIPOS>ATOM
      1 N01        65.3520  117.6420  -86.8150 N.2       1 26Z495      0.0000 
      2 N02        64.1000  118.2300  -85.0070 N.pl3     1 26Z495      0.0000 
      3 N03        66.8850  116.7830  -88.3510 N.pl3     1 26Z495      0.0000 
      4 N04        67.3660  112.3040  -82.4470 N.pl3     1 26Z495      0.0000 
      5 N05        61.4110  116.4060  -79.1560 N.pl3     1 26Z495      0.0000 
      6 C06        67.0380  116.1290  -86.1100 C.2       1 26Z495      0.0000 
      7 C07        66.4540  116.8430  -87.1550 C.2       1 26Z495      0.0000 
      8 C08        65.0930  117.5450  -85.5330 C.2       1 26Z495      0.0000 
      9 C09        63.3670  117.9620  -83.9610 C.ar      1 26Z495      0.0000 
     10 C10        68.1490  115.2670  -86.2190 C.2       1 26Z495      0.0000 
     11 C11        68.5960  114.4770  -85.1430 C.ar      1 26Z495      0.0000 
     12 C12        69.9920  114.3980  -84.8660 C.ar      1 26Z495      0.0000 
     13 C13        70.4700  113.6150  -83.7810 C.ar      1 26Z495      0.0000 
     14 C14        69.5670  112.8970  -82.9510 C.ar      1 26Z495      0.0000 
     15 C15        68.1760  112.9550  -83.2050 C.ar      1 26Z495      0.0000 
     16 C16        67.6830  113.7430  -84.3010 C.ar      1 26Z495      0.0000 
     17 C17        63.5090  116.7830  -83.1570 C.ar      1 26Z495      0.0000 
     18 C18        62.6600  116.5720  -82.0470 C.ar      1 26Z495      0.0000 
     19 C19        61.6660  117.5320  -81.7310 C.ar      1 26Z495      0.0000 
     20 C20        61.5180  118.7020  -82.5140 C.ar      1 26Z495      0.0000 
     21 C21        62.3550  118.9140  -83.6130 C.ar      1 26Z495      0.0000 
     22 O22        68.7600  115.2090  -87.2890 O.2       1 26Z495      0.0000 
     23 O23        59.4980  116.4510  -80.8600 O.2       1 26Z495      0.0000 
     24 O24        60.0780  118.5260  -79.8530 O.2       1 26Z495      0.0000 
     25 S25        66.1500  116.4970  -84.6640 S.3       1 26Z495      0.0000 
     26 S26        60.5900  117.2570  -80.3620 S.o2      1 26Z495      0.0000 
     27 H          63.8500  119.1833  -85.5384 H         1 26Z495      0.0000 
     28 H          67.6914  116.2107  -88.4999 H         1 26Z495      0.0000 
     29 H          66.3766  117.3138  -89.0291 H         1 26Z495      0.0000 
     30 H          66.7177  112.8542  -81.9207 H         1 26Z495      0.0000 
     31 H          67.4601  111.3084  -82.4547 H         1 26Z495      0.0000 
     32 H          61.8723  116.9599  -78.4629 H         1 26Z495      0.0000 
     33 H          61.3775  115.4087  -79.2206 H         1 26Z495      0.0000 
     34 H          70.6527  114.9093  -85.4536 H         1 26Z495      0.0000 
     35 H          71.4750  113.5674  -83.5951 H         1 26Z495      0.0000 
     36 H          69.9233  112.3420  -82.1748 H         1 26Z495      0.0000 
     37 H          66.6857  113.7850  -84.4860 H         1 26Z495      0.0000 
     38 H          64.2274  116.1004  -83.3944 H         1 26Z495      0.0000 
     39 H          62.7602  115.7355  -81.4761 H         1 26Z495      0.0000 
     40 H          60.7984  119.3852  -82.2697 H         1 26Z495      0.0000 
     41 H          62.2552  119.7586  -84.1880 H         1 26Z495      0.0000 
@<TRIPOS>BOND
     1    7    1 1    
     2    8    1 2    
     3    8    2 1    
     4    9    2 1    
     5   27    2 1    
     6    7    3 1    
     7   28    3 1    
     8   29    3 1    
     9   15    4 1    
    10   30    4 1    
    11   31    4 1    
    12   26    5 1    
    13   32    5 1    
    14   33    5 1    
    15    7    6 2    
    16   10    6 1    
    17   25    6 1    
    18   25    8 1    
    19   17    9 ar   
    20   21    9 ar   
    21   11   10 1    
    22   22   10 2    
    23   12   11 ar   
    24   16   11 ar   
    25   13   12 ar   
    26   34   12 1    
    27   14   13 ar   
    28   35   13 1    
    29   15   14 ar   
    30   36   14 1    
    31   16   15 ar   
    32   37   16 1    
    33   18   17 ar   
    34   38   17 1    
    35   19   18 ar   
    36   39   18 1    
    37   20   19 ar   
    38   26   19 1    
    39   21   20 ar   
    40   40   20 1    
    41   41   21 1    
    42   26   23 2    
    43   26   24 2    
@<TRIPOS>SUBSTRUCTURE
     1 26Z495      1 GROUP   
@<TRIPOS>SET

