#    Name: 2fxs_RDA_1_INTS_M
#    Modification time : Tue Mar 25 13:13:12 2014

@<TRIPOS>MOLECULE
2fxs_RDA_1_INTS_M
   40     0     9     0     0
SMALL
NO_CHARGES


@<TRIPOS>ATOM
      1 CA         18.5525   33.8505    8.3740 C.3       3 GLC5        0.0000 
      2 CA         19.4390   35.7150    7.9830 C.3       9 GLL5        0.0000 
      3 CA         17.6660   31.9860    8.7650 C.3       6 GLP5        0.0000 
      4 CA         18.5905   35.6840    9.5630 C.3       3 GLC5        0.0000 
      5 CA         17.7420   35.6530   11.1430 C.3       6 GLP5        0.0000 
      6 CA         18.6570   37.2125    6.9825 C.3       3 GLC5        0.0000 
      7 CA         17.8750   38.7100    5.9820 C.3       6 GLP5        0.0000 
      8 CA         15.5370   33.5630    4.6880 C.3       3 GLC5        0.0000 
      9 CA         17.3560   32.7330    4.9060 C.3       9 GLL5        0.0000 
     10 CA         13.7180   34.3930    4.4700 C.3       6 GLP5        0.0000 
     11 O          15.5670   31.6290    5.8270 O.2       1 ALC1        0.0000 
     12 O          16.4430   32.5690    5.9000 O.2       7 ALL1        0.0000 
     13 O          14.6910   30.6890    5.7540 O.2       4 ALP1        0.0000 
     14 CA         17.2975   30.0460    4.9820 C.3       3 GLC5        0.0000 
     15 CA         17.3310   31.8790    3.8090 C.3       9 GLL5        0.0000 
     16 CA         17.2640   28.2130    6.1550 C.3       6 GLP5        0.0000 
     17 CA         15.7245   33.3015    3.4240 C.3       3 GLC5        0.0000 
     18 CA         14.1180   34.7240    3.0390 C.3       6 GLP5        0.0000 
     19 CA         20.6930   35.2635    0.8650 C.3       3 GLC5        0.0000 
     20 CA         20.3870   33.2070    1.6210 C.3       9 GLL5        0.0000 
     21 CA         20.9990   37.3200    0.1090 C.3       6 GLP5        0.0000 
     22 CA         20.3635   33.1850   -0.0710 C.3       3 GLC5        0.0000 
     23 CA         20.3400   33.1630   -1.7630 C.3       6 GLP5        0.0000 
     24 N          26.6745   38.5565    3.0655 N.am      2 SEC2        0.0000 
     25 N          26.5400   38.8020    4.5330 N.am      8 SEL2        0.0000 
     26 N          26.8090   38.3110    1.5980 N.am      5 SEP2        0.0000 
     27 CA         17.7530   32.6088    6.8590 C.3       3 GLC5        0.0000 
     28 CA         18.3240   33.7300    5.0000 C.3       9 GLL5        0.0000 
     29 CA         19.2470   30.7238    3.4403 C.3       3 GLC5        0.0000 
     30 CA         18.2870   32.0340    2.8100 C.3       9 GLL5        0.0000 
     31 CA         20.6850   29.4910    3.5710 C.3       6 GLP5        0.0000 
     32 CA         16.6905   32.2538    1.8137 C.3       3 GLC5        0.0000 
     33 CA         15.5720   32.5510    0.3180 C.3       6 GLP5        0.0000 
     34 CA         20.2510   31.3060    2.9185 C.3       3 GLC5        0.0000 
     35 CA         19.2470   33.0350    2.9110 C.3       9 GLL5        0.0000 
     36 CA         18.5328   35.8122    3.9949 C.3       3 GLC5        0.0000 
     37 CA         17.4920   37.2130    3.6890 C.3       6 GLP5        0.0000 
     38 CA         23.9439   38.7289    4.5970 C.3       3 GLC5        0.0000 
     39 CA         23.9910   36.9160    6.0970 C.3       9 GLL5        0.0000 
     40 CA         22.7810   39.6910    3.6840 C.3       6 GLP5        0.0000 
@<TRIPOS>BOND
@<TRIPOS>SUBSTRUCTURE
     1 ALC1       11 GROUP        1 X    ALC  0     ROOT ALC X 1
     2 SEC2       24 GROUP        1 X    SEC  0     **** SEC X 2
     3 GLC5        1 GROUP        1 X    GLC  0     **** GLC X 6
     4 ALP1       13 GROUP        1 Y    ALP  0     ROOT ALP Y 8
     5 SEP2       26 GROUP        1 Y    SEP  0     **** SEP Y 9
     6 GLP5        3 GROUP        1 Y    GLP  0     **** GLP Y 13
     7 ALL1       12 GROUP        1 Z    ALL  0     ROOT ALL Z 15
     8 SEL2       25 GROUP        1 Z    SEL  0     **** SEL Z 16
     9 GLL5        2 GROUP        1 Z    GLL  0     **** GLL Z 20
@<TRIPOS>SET

