#    Name: 2fxs_RDA_1_ligand
#    Modification time : Tue Mar 25 13:13:12 2014

@<TRIPOS>MOLECULE
2fxs_RDA_1_ligand
   46    47     1     0     0
SMALL
NO_CHARGES


@<TRIPOS>ATOM
      1 C7         19.4390   35.7150    7.9830 C.3       1 RDA1001     0.0000 
      2 O4         19.5700   34.8980    6.8150 O.3       1 RDA1001     0.0000 
      3 C6         18.3630   34.6030    6.2580 C.2       1 RDA1001     0.0000 
      4 O3         17.3240   35.0640    6.7280 O.2       1 RDA1001     0.0000 
      5 C5         18.3240   33.7300    5.0000 C.ar      1 RDA1001     0.0000 
      6 C4         17.3560   32.7330    4.9060 C.ar      1 RDA1001     0.0000 
      7 O2         16.4430   32.5690    5.9000 O.3       1 RDA1001     0.0000 
      8 C3         17.3310   31.8790    3.8090 C.ar      1 RDA1001     0.0000 
      9 C2         18.2870   32.0340    2.8100 C.ar      1 RDA1001     0.0000 
     10 O1         18.2990   31.1870    1.7460 O.3       1 RDA1001     0.0000 
     11 C1         19.2470   33.0350    2.9110 C.ar      1 RDA1001     0.0000 
     12 CL         20.3870   33.2070    1.6210 Cl        1 RDA1001     0.0000 
     13 C8         19.2860   33.9000    4.0050 C.ar      1 RDA1001     0.0000 
     14 C9         20.3420   35.0080    4.0990 C.3       1 RDA1001     0.0000 
     15 C10        21.6830   34.4570    4.5910 C.3       1 RDA1001     0.0000 
     16 C11        22.7690   35.5340    4.6240 C.2       1 RDA1001     0.0000 
     17 O5         23.2910   35.9330    3.5840 O.2       1 RDA1001     0.0000 
     18 N1         23.0650   35.9930    5.8390 N.am      1 RDA1001     0.0000 
     19 C12        23.9910   36.9160    6.0970 C.ar      1 RDA1001     0.0000 
     20 C18        24.8080   37.4450    5.1010 C.ar      1 RDA1001     0.0000 
     21 C17        25.8140   38.3530    5.4210 C.ar      1 RDA1001     0.0000 
     22 O8         26.5400   38.8020    4.5330 O.3       1 RDA1001     0.0000 
     23 C15        26.0100   38.7420    6.7430 C.ar      1 RDA1001     0.0000 
     24 O7         27.0150   39.5990    7.0650 O.3       1 RDA1001     0.0000 
     25 C16        26.5750   40.9610    7.0320 C.3       1 RDA1001     0.0000 
     26 C14        25.1900   38.2190    7.7410 C.ar      1 RDA1001     0.0000 
     27 C13        24.1860   37.3120    7.4180 C.ar      1 RDA1001     0.0000 
     28 O6         23.4610   36.8620    8.3050 O.3       1 RDA1001     0.0000 
     29 H          16.6210   31.1480    3.7371 H         1 RDA1001     0.0000 
     30 H          19.9940   35.7754    4.7900 H         1 RDA1001     0.0000 
     31 H          20.4775   35.4567    3.1153 H         1 RDA1001     0.0000 
     32 H          22.0014   33.6470    3.9291 H         1 RDA1001     0.0000 
     33 H          21.5540   34.0470    5.5964 H         1 RDA1001     0.0000 
     34 H          22.5151   35.5881    6.6754 H         1 RDA1001     0.0000 
     35 H          24.6669   37.1623    4.1196 H         1 RDA1001     0.0000 
     36 H          25.3285   38.5054    8.7198 H         1 RDA1001     0.0000 
     37 H          20.3279   35.9294    8.3879 H         1 RDA1001     0.0000 
     38 H          18.9922   36.5860    7.7788 H         1 RDA1001     0.0000 
     39 H          18.8949   35.2655    8.6915 H         1 RDA1001     0.0000 
     40 H          27.3122   41.5952    7.2651 H         1 RDA1001     0.0000 
     41 H          26.2399   41.2212    6.1265 H         1 RDA1001     0.0000 
     42 H          25.8305   41.1266    7.6788 H         1 RDA1001     0.0000 
     43 H          15.8751   31.8004    5.6054 H         1 RDA1001     0.0000 
     44 H          17.6370   30.4736    1.9758 H         1 RDA1001     0.0000 
     45 H          26.7704   39.7284    4.8309 H         1 RDA1001     0.0000 
     46 H          23.3086   35.9060    8.0544 H         1 RDA1001     0.0000 
@<TRIPOS>BOND
     1    2    1 1    
     2   37    1 1    
     3   38    1 1    
     4   39    1 1    
     5    3    2 1    
     6    4    3 2    
     7    5    3 1    
     8    6    5 ar   
     9   13    5 ar   
    10    7    6 1    
    11    8    6 ar   
    12   43    7 1    
    13    9    8 ar   
    14   29    8 1    
    15   10    9 1    
    16   11    9 ar   
    17   44   10 1    
    18   12   11 1    
    19   13   11 ar   
    20   14   13 1    
    21   15   14 1    
    22   30   14 1    
    23   31   14 1    
    24   16   15 1    
    25   32   15 1    
    26   33   15 1    
    27   17   16 2    
    28   18   16 am   
    29   19   18 1    
    30   34   18 1    
    31   20   19 ar   
    32   27   19 ar   
    33   21   20 ar   
    34   35   20 1    
    35   22   21 1    
    36   23   21 ar   
    37   45   22 1    
    38   24   23 1    
    39   26   23 ar   
    40   25   24 1    
    41   40   25 1    
    42   41   25 1    
    43   42   25 1    
    44   27   26 ar   
    45   36   26 1    
    46   28   27 1    
    47   46   28 1    
@<TRIPOS>SUBSTRUCTURE
     1 RDA1001     1 GROUP   
@<TRIPOS>SET

