#    Name: 3w1r_MRO_2_INTS_M
#    Modification time : Tue Mar 25 01:59:27 2014

@<TRIPOS>MOLECULE
3w1r_MRO_2_INTS_M
   50     0    12     0     0
SMALL
NO_CHARGES


@<TRIPOS>ATOM
      1 NZ         -7.4245  -16.1190   14.8175 N.4       3 LYC4        0.0000 
      2 NZ         -6.0560  -15.8150   14.1770 N.4      11 LYL4        0.0000 
      3 NZ         -8.7930  -16.4230   15.4580 N.4       7 LYP4        0.0000 
      4 N          -5.6895  -17.0255   13.4740 N.am      2 SEC2        0.0000 
      5 N          -6.0560  -15.8150   14.1770 N.am     10 SEL2        0.0000 
      6 N          -5.3230  -18.2360   12.7710 N.am      6 SEP2        0.0000 
      7 N          -7.4245  -16.1190   14.8175 N.am      2 SEC2        0.0000 
      8 N          -8.7930  -16.4230   15.4580 N.am      6 SEP2        0.0000 
      9 N          -3.5100  -16.3195   14.2720 N.am      2 SEC2        0.0000 
     10 N          -4.0430  -14.8740   14.3810 N.am     10 SEL2        0.0000 
     11 N          -2.9770  -17.7650   14.1630 N.am      6 SEP2        0.0000 
     12 CA         -7.0610  -13.2600   15.8610 C.3       4 GLC5        0.0000 
     13 CA         -5.8830  -13.5050   14.1340 C.3      12 GLL5        0.0000 
     14 CA         -8.2390  -13.0150   17.5880 C.3       8 GLP5        0.0000 
     15 O          -4.5265  -13.0060   16.2640 O.2       1 ALC1        0.0000 
     16 O          -5.4650  -12.6740   15.2230 O.2       9 ALL1        0.0000 
     17 O          -3.5880  -13.3380   17.3050 O.2       5 ALP1        0.0000 
     18 N          -4.7085  -10.9850   17.2720 N.am      2 SEC2        0.0000 
     19 N          -5.4310  -10.5350   16.0990 N.am     10 SEL2        0.0000 
     20 N          -3.9860  -11.4350   18.4450 N.am      6 SEP2        0.0000 
     21 N          -4.8370   -9.2955   15.9425 N.am      2 SEC2        0.0000 
     22 N          -4.2430   -8.0560   15.7860 N.am      6 SEP2        0.0000 
     23 O          -6.9670   -9.4905   14.1705 O.2       1 ALC1        0.0000 
     24 O          -6.6380  -10.8350   14.2100 O.2       9 ALL1        0.0000 
     25 O          -7.2960   -8.1460   14.1310 O.2       5 ALP1        0.0000 
     26 N          -8.9490  -11.3640   11.4280 N.am      2 SEC2        0.0000 
     27 N          -7.8550  -11.1420   12.3630 N.am     10 SEL2        0.0000 
     28 N         -10.0430  -11.5860   10.4930 N.am      6 SEP2        0.0000 
     29 N          -8.2295   -9.7410   12.3150 N.am      2 SEC2        0.0000 
     30 N          -8.6040   -8.3400   12.2670 N.am      6 SEP2        0.0000 
     31 CA         -5.4310  -10.6830   10.1440 C.3       4 GLC5        0.0000 
     32 CA         -4.2790  -12.3030   11.0310 C.3      12 GLL5        0.0000 
     33 CA         -6.5830   -9.0630    9.2570 C.3       8 GLP5        0.0000 
     34 CA         -2.9655  -16.5815   11.9160 C.3       4 GLC5        0.0000 
     35 CA         -2.9510  -14.6770   10.9240 C.3      12 GLL5        0.0000 
     36 CA         -2.9800  -18.4860   12.9080 C.3       8 GLP5        0.0000 
     37 CA         -5.5645  -16.4355   10.8220 C.3       4 GLC5        0.0000 
     38 CA         -4.3670  -14.7230   10.8030 C.3      12 GLL5        0.0000 
     39 CA         -6.7620  -18.1480   10.8410 C.3       8 GLP5        0.0000 
     40 CA         -4.1845  -15.1520    9.0400 C.3       4 GLC5        0.0000 
     41 CA         -4.0020  -15.5810    7.2770 C.3       8 GLP5        0.0000 
     42 CA         -7.8473  -15.3208   11.1165 C.3       4 GLC5        0.0000 
     43 CA         -6.4560  -13.4700   10.6890 C.3      12 GLL5        0.0000 
     44 CA         -8.9120  -16.9280   10.9000 C.3       8 GLP5        0.0000 
     45 CA         -4.5922  -14.1303    8.9563 C.3       4 GLC5        0.0000 
     46 CA         -5.0540  -13.4890   10.8190 C.3      12 GLL5        0.0000 
     47 CA         -4.9460  -12.7280    6.9260 C.3       8 GLP5        0.0000 
     48 CA         -4.9815  -12.8096    8.9093 C.3       4 GLC5        0.0000 
     49 CA         -2.1313  -14.3993    9.2342 C.3       4 GLC5        0.0000 
     50 CA         -1.6820  -14.6940    7.4320 C.3       8 GLP5        0.0000 
@<TRIPOS>BOND
@<TRIPOS>SUBSTRUCTURE
     1 ALC1       15 GROUP        1 X    ALC  0     ROOT ALC X 1
     2 SEC2        4 GROUP        1 X    SEC  0     **** SEC X 2
     3 LYC4        1 GROUP        1 X    LYC  0     **** LYC X 4
     4 GLC5       12 GROUP        1 X    GLC  0     **** GLC X 6
     5 ALP1       17 GROUP        1 Y    ALP  0     ROOT ALP Y 8
     6 SEP2        6 GROUP        1 Y    SEP  0     **** SEP Y 9
     7 LYP4        3 GROUP        1 Y    LYP  0     **** LYP Y 11
     8 GLP5       14 GROUP        1 Y    GLP  0     **** GLP Y 13
     9 ALL1       16 GROUP        1 Z    ALL  0     ROOT ALL Z 15
    10 SEL2        5 GROUP        1 Z    SEL  0     **** SEL Z 16
    11 LYL4        2 GROUP        1 Z    LYL  0     **** LYL Z 18
    12 GLL5       13 GROUP        1 Z    GLL  0     **** GLL Z 20
@<TRIPOS>SET

