#    Name: 3w1r_MRO_2_ligand
#    Modification time : Tue Mar 25 01:59:27 2014

@<TRIPOS>MOLECULE
3w1r_MRO_2_ligand
   30    31     1     0     0
SMALL
NO_CHARGES


@<TRIPOS>ATOM
      1 OAA        -6.0560  -15.8150   14.1770 O.co2     1 MRO402      0.0000 
      2 CAN        -5.2820  -14.8420   14.2520 C.2       1 MRO402      0.0000 
      3 OAD        -4.0430  -14.8740   14.3810 O.co2     1 MRO402      0.0000 
      4 CAQ        -5.8830  -13.5050   14.1340 C.2       1 MRO402      0.0000 
      5 NAL        -5.4650  -12.6740   15.2230 N.am      1 MRO402      0.0000 
      6 CAR        -5.7720  -11.3290   15.2010 C.2       1 MRO402      0.0000 
      7 OAB        -5.4310  -10.5350   16.0990 O.2       1 MRO402      0.0000 
      8 NAM        -6.6380  -10.8350   14.2100 N.am      1 MRO402      0.0000 
      9 CAS        -7.1120  -11.6700   13.1920 C.2       1 MRO402      0.0000 
     10 OAC        -7.8550  -11.1420   12.3630 O.2       1 MRO402      0.0000 
     11 CAP        -6.6710  -13.0150   13.1340 C.2       1 MRO402      0.0000 
     12 CAK        -7.1090  -13.9570   11.9770 C.3       1 MRO402      0.0000 
     13 CAJ        -6.4560  -13.4700   10.6890 C.3       1 MRO402      0.0000 
     14 CAO        -5.0540  -13.4890   10.8190 C.ar      1 MRO402      0.0000 
     15 CAH        -4.2790  -12.3030   11.0310 C.ar      1 MRO402      0.0000 
     16 CAF        -2.8520  -12.3290   11.1840 C.ar      1 MRO402      0.0000 
     17 CAE        -2.2100  -13.5320   11.1490 C.ar      1 MRO402      0.0000 
     18 CAG        -2.9510  -14.6770   10.9240 C.ar      1 MRO402      0.0000 
     19 CAI        -4.3670  -14.7230   10.8030 C.ar      1 MRO402      0.0000 
     20 H          -4.9484  -13.0935   15.9935 H         1 MRO402      0.0000 
     21 H          -6.9254   -9.8464   14.2359 H         1 MRO402      0.0000 
     22 H          -8.1801  -13.9170   11.8847 H         1 MRO402      0.0000 
     23 H          -6.7804  -14.9566   12.2013 H         1 MRO402      0.0000 
     24 H          -6.8402  -12.4588   10.4853 H         1 MRO402      0.0000 
     25 H          -6.8060  -14.1216    9.8739 H         1 MRO402      0.0000 
     26 H          -4.7649  -11.3929   11.0757 H         1 MRO402      0.0000 
     27 H          -2.3587  -11.4492   11.3144 H         1 MRO402      0.0000 
     28 H          -1.1950  -13.5948   11.2863 H         1 MRO402      0.0000 
     29 H          -2.4379  -15.6009   10.8322 H         1 MRO402      0.0000 
     30 H          -4.8504  -15.5920   10.7109 H         1 MRO402      0.0000 
@<TRIPOS>BOND
     1    2    1 ar   
     2    3    2 ar   
     3    4    2 1    
     4    5    4 1    
     5   11    4 2    
     6    6    5 am   
     7   20    5 1    
     8    7    6 2    
     9    8    6 am   
    10    9    8 am   
    11   21    8 1    
    12   10    9 2    
    13   11    9 1    
    14   12   11 1    
    15   13   12 1    
    16   22   12 1    
    17   23   12 1    
    18   14   13 1    
    19   24   13 1    
    20   25   13 1    
    21   15   14 ar   
    22   19   14 ar   
    23   16   15 ar   
    24   26   15 1    
    25   17   16 ar   
    26   27   16 1    
    27   18   17 ar   
    28   28   17 1    
    29   19   18 ar   
    30   29   18 1    
    31   30   19 1    
@<TRIPOS>SUBSTRUCTURE
     1 MRO402      1 GROUP   
@<TRIPOS>SET

