#    Name: 3OJO_4_CAVITY_N1_6.mol2
#    Modification time : Tue Mar 11 20:27:31 2014

@<TRIPOS>MOLECULE
3OJO_4_CAVITY_N1_6.mol2
   71     0     3     0     0
SMALL
NO_CHARGES


@<TRIPOS>ATOM
      1 CA          9.8258   85.6104  106.8396 C.3       2 GLY6        0.0000 
      2 CA          8.1362   86.6279  107.6205 C.3       2 GLY6        0.0000 
      3 CA          7.9129   87.6664  105.7843 C.3       2 GLY6        0.0000 
      4 DU          7.1798   87.6560  107.0929 H         3 CUB7        0.0000 
      5 DU         11.0688   81.4236  109.2220 H         3 CUB7        0.0000 
      6 DU         10.8456   82.4621  107.3858 H         3 CUB7        0.0000 
      7 DU         10.6223   83.5006  105.5495 H         3 CUB7        0.0000 
      8 DU          9.8891   83.4901  106.8581 H         3 CUB7        0.0000 
      9 CA          9.1559   83.4796  108.1667 C.3       2 GLY6        0.0000 
     10 CA          9.6659   84.5286  105.0219 C.3       2 GLY6        0.0000 
     11 CA          8.9327   84.5181  106.3305 C.3       2 GLY6        0.0000 
     12 CA          8.1995   84.5076  107.6390 C.3       2 GLY6        0.0000 
     13 CA          7.9762   85.5461  105.8028 C.3       2 GLY6        0.0000 
     14 DU          7.2431   85.5357  107.1114 H         3 CUB7        0.0000 
     15 CA          7.0198   86.5741  105.2752 C.3       2 GLY6        0.0000 
     16 DU          6.2866   86.5637  106.5837 H         3 CUB7        0.0000 
     17 CA          5.5535   86.5532  107.8923 C.3       2 GLY6        0.0000 
     18 O          10.1757   80.3313  108.7128 O.2       1 ALA2        0.0000 
     19 O          11.4188   81.3908  104.2595 O.2       1 ALA2        0.0000 
     20 O          10.6856   81.3803  105.5680 O.2       1 ALA2        0.0000 
     21 DU          9.9524   81.3698  106.8766 H         3 CUB7        0.0000 
     22 O           9.2193   81.3593  108.1852 O.2       1 ALA2        0.0000 
     23 CA          8.4861   81.3489  109.4937 C.3       2 GLY6        0.0000 
     24 N          10.4623   82.4188  103.7318 N.2       1 ALA2        0.0000 
     25 DU          9.7292   82.4083  105.0404 H         3 CUB7        0.0000 
     26 CA          8.2628   82.3874  107.6575 C.3       2 GLY6        0.0000 
     27 CA          7.5296   82.3769  108.9661 C.3       2 GLY6        0.0000 
     28 O           9.5059   83.4468  103.2042 O.2       1 ALA2        0.0000 
     29 CA          8.7727   83.4363  104.5127 C.3       2 GLY6        0.0000 
     30 DU          8.0396   83.4258  105.8213 H         3 CUB7        0.0000 
     31 O           7.3064   83.4154  107.1299 O.2       1 ALA2        0.0000 
     32 O           6.5732   83.4049  108.4384 O.2       1 ALA2        0.0000 
     33 CA          7.8163   84.4643  103.9851 C.3       2 GLY6        0.0000 
     34 CA          7.0831   84.4538  105.2937 C.3       2 GLY6        0.0000 
     35 O           6.3499   84.4434  106.6022 O.2       1 ALA2        0.0000 
     36 CA          6.8598   85.4923  103.4574 C.3       2 GLY6        0.0000 
     37 CA          6.1267   85.4819  104.7660 C.3       2 GLY6        0.0000 
     38 CA          5.3935   85.4714  106.0746 C.3       2 GLY6        0.0000 
     39 O          10.7489   79.2600  105.5865 O.2       1 ALA2        0.0000 
     40 O          10.0157   79.2495  106.8951 O.2       1 ALA2        0.0000 
     41 N           9.7925   80.2880  105.0589 N.2       1 ALA2        0.0000 
     42 CA          9.0593   80.2775  106.3675 C.3       2 GLY6        0.0000 
     43 O           8.3261   80.2671  107.6760 O.2       1 ALA2        0.0000 
     44 N           8.8360   81.3160  104.5312 N.2       1 ALA2        0.0000 
     45 CA          8.1029   81.3055  105.8398 C.3       2 GLY6        0.0000 
     46 O           7.3697   81.2951  107.1484 O.2       1 ALA2        0.0000 
     47 O           6.6365   81.2846  108.4569 O.2       1 ALA2        0.0000 
     48 O           8.6128   82.3545  102.6950 O.2       1 ALA2        0.0000 
     49 O           7.8796   82.3440  104.0036 O.2       1 ALA2        0.0000 
     50 N           7.1464   82.3336  105.3122 N.2       1 ALA2        0.0000 
     51 O           6.4132   82.3231  106.6207 O.2       1 ALA2        0.0000 
     52 O           6.9232   83.3720  103.4759 O.2       1 ALA2        0.0000 
     53 N           6.1900   83.3616  104.7845 N.2       1 ALA2        0.0000 
     54 N           5.4568   83.3511  106.0931 N.2       1 ALA2        0.0000 
     55 O           5.9667   84.4001  102.9483 O.2       1 ALA2        0.0000 
     56 O           9.8558   78.1677  105.0774 O.2       1 ALA2        0.0000 
     57 N           8.8993   79.1957  104.5497 N.2       1 ALA2        0.0000 
     58 N           7.9429   80.2237  104.0221 N.2       1 ALA2        0.0000 
     59 CA          7.2097   80.2133  105.3307 C.3       2 GLY6        0.0000 
     60 O           7.7196   81.2622  102.1859 O.2       1 ALA2        0.0000 
     61 N           6.9865   81.2517  103.4944 N.2       1 ALA2        0.0000 
     62 N           6.2533   81.2413  104.8030 N.2       1 ALA2        0.0000 
     63 CA          5.5201   81.2308  106.1116 C.3       2 GLY6        0.0000 
     64 N           6.0300   82.2798  102.9668 N.2       1 ALA2        0.0000 
     65 CA          8.9626   77.0754  104.5682 C.3       2 GLY6        0.0000 
     66 N           8.7394   78.1139  102.7320 N.2       1 ALA2        0.0000 
     67 CA          8.0062   78.1034  104.0406 C.3       2 GLY6        0.0000 
     68 CA          7.7829   79.1419  102.2044 C.3       2 GLY6        0.0000 
     69 N           7.0498   79.1314  103.5129 N.2       1 ALA2        0.0000 
     70 N           6.0933   80.1595  102.9853 N.2       1 ALA2        0.0000 
     71 N           5.3602   80.1490  104.2939 N.2       1 ALA2        0.0000 
@<TRIPOS>BOND
@<TRIPOS>SUBSTRUCTURE
     1 ALA2       18 GROUP   
     2 GLY6        1 GROUP   
     3 CUB7        4 GROUP   
@<TRIPOS>SET

