#    Name: 3ojo_PDC_4_ligand
#    Modification time : Tue Mar 25 04:45:26 2014

@<TRIPOS>MOLECULE
3ojo_PDC_4_ligand
   15    15     1     0     0
SMALL
NO_CHARGES


@<TRIPOS>ATOM
      1 N1         11.6780   81.6840  107.4770 N.ar      1 PDC504      0.0000 
      2 C2         10.6510   81.3950  108.3490 C.ar      1 PDC504      0.0000 
      3 C3         10.8570   80.7130  109.5930 C.ar      1 PDC504      0.0000 
      4 C4         12.1730   80.3310  109.9020 C.ar      1 PDC504      0.0000 
      5 C5         13.2000   80.6700  108.9840 C.ar      1 PDC504      0.0000 
      6 C6         12.9470   81.3550  107.7560 C.ar      1 PDC504      0.0000 
      7 C7          9.3050   81.7960  107.9720 C.2       1 PDC504      0.0000 
      8 O1          8.3190   81.6040  108.6980 O.co2     1 PDC504      0.0000 
      9 O2          9.2460   82.4440  106.8090 O.co2     1 PDC504      0.0000 
     10 C8         14.0850   81.6350  106.7920 C.2       1 PDC504      0.0000 
     11 O3         15.2320   81.3390  107.0040 O.co2     1 PDC504      0.0000 
     12 O4         13.9310   82.2430  105.6250 O.co2     1 PDC504      0.0000 
     13 H          10.0902   80.5243  110.2032 H         1 PDC504      0.0000 
     14 H          12.3880   79.8304  110.7498 H         1 PDC504      0.0000 
     15 H          14.1792   80.4110  109.2105 H         1 PDC504      0.0000 
@<TRIPOS>BOND
     1    2    1 ar   
     2    6    1 ar   
     3    3    2 ar   
     4    7    2 1    
     5    4    3 ar   
     6   13    3 1    
     7    5    4 ar   
     8   14    4 1    
     9    6    5 ar   
    10   15    5 1    
    11   10    6 1    
    12    8    7 ar   
    13    9    7 ar   
    14   11   10 ar   
    15   12   10 ar   
@<TRIPOS>SUBSTRUCTURE
     1 PDC504      1 GROUP   
@<TRIPOS>SET

