#    Name: 4fj1_GEN_1_INTS_M
#    Modification time : Mon Mar 24 20:06:12 2014

@<TRIPOS>MOLECULE
4fj1_GEN_1_INTS_M
   36     0     3     0     0
SMALL
NO_CHARGES


@<TRIPOS>ATOM
      1 CA        -20.4540   15.3680   10.2265 C.3       1 GLC5        0.0000 
      2 CA        -18.5850   15.5280   10.5010 C.3       3 GLL5        0.0000 
      3 CA        -22.3230   15.2080    9.9520 C.3       2 GLP5        0.0000 
      4 CA        -19.4010   14.0110   11.0100 C.3       1 GLC5        0.0000 
      5 CA        -20.2170   12.4940   11.5190 C.3       2 GLP5        0.0000 
      6 CA        -18.5840   18.0665   13.1595 C.3       1 GLC5        0.0000 
      7 CA        -17.1040   17.3350   12.2560 C.3       3 GLL5        0.0000 
      8 CA        -20.0640   18.7980   14.0630 C.3       2 GLP5        0.0000 
      9 CA        -16.8735   19.9165   13.4025 C.3       1 GLC5        0.0000 
     10 CA        -16.6150   18.0540   13.3330 C.3       3 GLL5        0.0000 
     11 CA        -17.1320   21.7790   13.4720 C.3       2 GLP5        0.0000 
     12 CA        -20.1165   13.2950    6.1162 C.3       1 GLC5        0.0000 
     13 CA        -19.3890   13.0730    7.9470 C.3       3 GLL5        0.0000 
     14 CA        -21.1150   14.0870    4.5880 C.3       2 GLP5        0.0000 
     15 CA        -20.9620   11.6750    7.7748 C.3       1 GLC5        0.0000 
     16 CA        -22.8060   10.8470    7.9050 C.3       2 GLP5        0.0000 
     17 CA        -20.6810   14.3075    9.1990 C.3       1 GLC5        0.0000 
     18 CA        -16.5018   12.5970    6.9863 C.3       1 GLC5        0.0000 
     19 CA        -18.8470   11.9330    7.3420 C.3       3 GLL5        0.0000 
     20 CA        -14.7890   13.5060    6.4500 C.3       2 GLP5        0.0000 
     21 CA        -15.9377   13.0888    7.7348 C.3       1 GLC5        0.0000 
     22 CA        -16.8210   12.0720    8.6810 C.3       3 GLL5        0.0000 
     23 CA        -17.9148   15.9225    8.7315 C.3       1 GLC5        0.0000 
     24 CA        -17.3080   15.2020   10.9850 C.3       3 GLL5        0.0000 
     25 CA        -17.8830   16.4800    6.7200 C.3       2 GLP5        0.0000 
     26 CA        -16.8768   16.9085   10.0250 C.3       1 GLC5        0.0000 
     27 CA        -15.8070   18.4520    9.3070 C.3       2 GLP5        0.0000 
     28 CA        -16.3623   17.5630   10.7417 C.3       1 GLC5        0.0000 
     29 CA        -16.7310   16.0130   12.0970 C.3       3 GLL5        0.0000 
     30 CA        -17.9145   17.8115   14.4893 C.3       1 GLC5        0.0000 
     31 CA        -19.6420   17.8560   15.1780 C.3       2 GLP5        0.0000 
     32 CA        -15.5840   18.4970   12.0682 C.3       1 GLC5        0.0000 
     33 CA        -14.9810   19.2270   10.3360 C.3       2 GLP5        0.0000 
     34 CA        -17.7476   14.4661   12.9195 C.3       1 GLC5        0.0000 
     35 CA        -15.9030   15.4150   13.0670 C.3       3 GLL5        0.0000 
     36 CA        -19.0340   13.4210   13.5350 C.3       2 GLP5        0.0000 
@<TRIPOS>BOND
@<TRIPOS>SUBSTRUCTURE
     1 GLC5        1 GROUP        1 X    GLC  0     ROOT GLC X 6
     2 GLP5        3 GROUP        1 Y    GLP  0     ROOT GLP Y 13
     3 GLL5        2 GROUP        1 Z    GLL  0     ROOT GLL Z 20
@<TRIPOS>SET

