#    Name: 4fj1_GEN_1_ligand
#    Modification time : Mon Mar 24 20:06:12 2014

@<TRIPOS>MOLECULE
4fj1_GEN_1_ligand
   30    32     1     0     0
SMALL
NO_CHARGES


@<TRIPOS>ATOM
      1 C1        -19.3890   13.0730    7.9470 C.ar      1 GEN302      0.0000 
      2 C2        -18.8470   11.9330    7.3420 C.ar      1 GEN302      0.0000 
      3 O2        -19.5800   11.2840    6.3850 O.3       1 GEN302      0.0000 
      4 C3        -17.5820   11.4430    7.7030 C.ar      1 GEN302      0.0000 
      5 C4        -16.8210   12.0720    8.6810 C.ar      1 GEN302      0.0000 
      6 O4        -15.6070   11.6010    9.0300 O.3       1 GEN302      0.0000 
      7 C5        -17.3520   13.2710    9.3580 C.ar      1 GEN302      0.0000 
      8 C6        -16.6290   14.0250   10.4220 C.2       1 GEN302      0.0000 
      9 O6        -15.4990   13.6970   10.8100 O.2       1 GEN302      0.0000 
     10 C7        -17.3080   15.2020   10.9850 C.2       1 GEN302      0.0000 
     11 C8        -18.5850   15.5280   10.5010 C.2       1 GEN302      0.0000 
     12 O9        -19.2080   14.8490    9.5430 O.3       1 GEN302      0.0000 
     13 C10       -18.6890   13.7410    8.9450 C.ar      1 GEN302      0.0000 
     14 C11       -16.7310   16.0130   12.0970 C.ar      1 GEN302      0.0000 
     15 C12       -17.1040   17.3350   12.2560 C.ar      1 GEN302      0.0000 
     16 C13       -16.6150   18.0540   13.3330 C.ar      1 GEN302      0.0000 
     17 C14       -15.7590   17.4800   14.2680 C.ar      1 GEN302      0.0000 
     18 O14       -15.3070   18.2600   15.2930 O.3       1 GEN302      0.0000 
     19 C15       -15.3950   16.1490   14.1340 C.ar      1 GEN302      0.0000 
     20 C16       -15.9030   15.4150   13.0670 C.ar      1 GEN302      0.0000 
     21 H         -20.3130   13.4158    7.6477 H         1 GEN302      0.0000 
     22 H         -17.2158   10.5997    7.2298 H         1 GEN302      0.0000 
     23 H         -19.0551   16.3713   10.9459 H         1 GEN302      0.0000 
     24 H         -17.7376   17.7797   11.5820 H         1 GEN302      0.0000 
     25 H         -16.8931   19.0507   13.4494 H         1 GEN302      0.0000 
     26 H         -14.7632   15.7117   14.8077 H         1 GEN302      0.0000 
     27 H         -15.6727   14.4109   12.9776 H         1 GEN302      0.0000 
     28 H         -19.2979   10.3267    6.4481 H         1 GEN302      0.0000 
     29 H         -15.3491   12.1263    9.8409 H         1 GEN302      0.0000 
     30 H         -14.9160   19.0672   14.8508 H         1 GEN302      0.0000 
@<TRIPOS>BOND
     1    2    1 ar   
     2   13    1 ar   
     3   21    1 1    
     4    3    2 1    
     5    4    2 ar   
     6   28    3 1    
     7    5    4 ar   
     8   22    4 1    
     9    6    5 1    
    10    7    5 ar   
    11   29    6 1    
    12    8    7 1    
    13   13    7 ar   
    14    9    8 2    
    15   10    8 1    
    16   11   10 2    
    17   14   10 1    
    18   12   11 1    
    19   23   11 1    
    20   13   12 1    
    21   15   14 ar   
    22   20   14 ar   
    23   16   15 ar   
    24   24   15 1    
    25   17   16 ar   
    26   25   16 1    
    27   18   17 1    
    28   19   17 ar   
    29   30   18 1    
    30   20   19 ar   
    31   26   19 1    
    32   27   20 1    
@<TRIPOS>SUBSTRUCTURE
     1 GEN302      1 GROUP   
@<TRIPOS>SET

