#    Name: 3sr5_Q12_1_INTS_M
#    Modification time : Mon Mar 24 18:05:47 2014

@<TRIPOS>MOLECULE
3sr5_Q12_1_INTS_M
   63     0     9     0     0
SMALL
NO_CHARGES


@<TRIPOS>ATOM
      1 CA          4.9745  -27.9995   -1.9660 C.3       3 GLC5        0.0000 
      2 CA          4.3320  -28.6900   -3.8750 C.3       9 GLL5        0.0000 
      3 CA          5.6170  -27.3090   -0.0570 C.3       6 GLP5        0.0000 
      4 CA          3.9815  -26.7060   -3.8635 C.3       3 GLC5        0.0000 
      5 CA          3.6310  -24.7220   -3.8520 C.3       6 GLP5        0.0000 
      6 CA          6.0200  -27.4865   -2.2250 C.3       3 GLC5        0.0000 
      7 CA          6.4230  -27.6640   -4.3930 C.3       9 GLL5        0.0000 
      8 CA          5.0270  -26.1930   -4.1225 C.3       3 GLC5        0.0000 
      9 CA          6.4885  -26.4935   -6.0145 C.3       3 GLC5        0.0000 
     10 CA          6.5540  -25.3230   -7.6360 C.3       6 GLP5        0.0000 
     11 CA          7.4395  -28.7295   -3.4880 C.3       3 GLC5        0.0000 
     12 CA          8.4560  -29.7950   -2.5830 C.3       6 GLP5        0.0000 
     13 N           7.9430  -28.4925   -5.8935 N.am      2 SEC2        0.0000 
     14 N           6.8220  -28.6850   -5.2000 N.am      8 SEL2        0.0000 
     15 N           9.0640  -28.3000   -6.5870 N.am      5 SEP2        0.0000 
     16 O           2.8365  -27.4870   -2.5875 O.2       1 ALC1        0.0000 
     17 O           3.1450  -28.6480   -3.2540 O.2       7 ALL1        0.0000 
     18 O           2.5280  -26.3260   -1.9210 O.2       4 ALP1        0.0000 
     19 O           1.8785  -29.2640   -3.1885 O.2       1 ALC1        0.0000 
     20 O           0.6120  -29.8800   -3.1230 O.2       4 ALP1        0.0000 
     21 O           8.5250  -26.5655   -4.8915 O.2       1 ALC1        0.0000 
     22 O           7.2800  -26.6120   -4.2420 O.2       7 ALL1        0.0000 
     23 O           9.7700  -26.5190   -5.5410 O.2       4 ALP1        0.0000 
     24 O           8.1720  -27.4560   -5.4145 O.2       1 ALC1        0.0000 
     25 O           9.0640  -28.3000   -6.5870 O.2       4 ALP1        0.0000 
     26 O           7.6585  -25.4345   -3.3040 O.2       1 ALC1        0.0000 
     27 O           8.0370  -24.2570   -2.3660 O.2       4 ALP1        0.0000 
     28 CA          1.2860  -33.3995   -5.4975 C.3       3 GLC5        0.0000 
     29 CA          3.3700  -33.2110   -5.9010 C.3       9 GLL5        0.0000 
     30 CA         -0.7980  -33.5880   -5.0940 C.3       6 GLP5        0.0000 
     31 CA          3.0685  -35.0615   -6.0860 C.3       3 GLC5        0.0000 
     32 CA          2.7670  -36.9120   -6.2710 C.3       6 GLP5        0.0000 
     33 CA          3.1670  -33.3720   -4.1315 C.3       3 GLC5        0.0000 
     34 CA          2.9640  -33.5330   -2.3620 C.3       6 GLP5        0.0000 
     35 CA          1.8080  -31.6910   -6.0490 C.3       3 GLC5        0.0000 
     36 CA          0.2460  -30.1710   -6.1970 C.3       6 GLP5        0.0000 
     37 CA          4.8230  -32.0175   -8.4775 C.3       3 GLC5        0.0000 
     38 CA          6.2000  -33.0510   -7.2270 C.3       9 GLL5        0.0000 
     39 CA          3.4460  -30.9840   -9.7280 C.3       6 GLP5        0.0000 
     40 CA          6.0115  -31.1085   -8.9800 C.3       3 GLC5        0.0000 
     41 CA          6.6750  -32.8450   -8.5210 C.3       9 GLL5        0.0000 
     42 CA          5.3480  -29.3720   -9.4390 C.3       6 GLP5        0.0000 
     43 CA          4.5560  -35.6075   -6.4330 C.3       3 GLC5        0.0000 
     44 CA          6.3450  -34.3030   -6.5950 C.3       9 GLL5        0.0000 
     45 CA          4.6705  -36.8925   -5.8335 C.3       3 GLC5        0.0000 
     46 CA          6.5740  -36.8730   -5.3960 C.3       9 GLL5        0.0000 
     47 CA          6.7635  -37.3330   -3.7980 C.3       3 GLC5        0.0000 
     48 CA          6.9530  -37.7930   -2.2000 C.3       6 GLP5        0.0000 
     49 CA          6.4908  -29.5330   -3.4443 C.3       3 GLC5        0.0000 
     50 CA          4.7190  -29.8520   -4.7360 C.3       9 GLL5        0.0000 
     51 CA          7.3525  -30.0543   -4.1870 C.3       3 GLC5        0.0000 
     52 CA          6.4630  -30.8440   -6.1950 C.3       9 GLL5        0.0000 
     53 CA          3.6400  -31.8010   -7.7700 C.3       3 GLC5        0.0000 
     54 CA          4.2980  -32.0250   -5.7230 C.3       9 GLL5        0.0000 
     55 CA          5.6440  -30.2524   -7.7643 C.3       3 GLC5        0.0000 
     56 CA          5.6310  -31.9520   -6.3880 C.3       9 GLL5        0.0000 
     57 CA          7.7865  -32.2245   -6.2067 C.3       3 GLC5        0.0000 
     58 CA          9.5260  -33.0510   -6.1220 C.3       6 GLP5        0.0000 
     59 CA          7.9817  -32.9995   -6.9980 C.3       3 GLC5        0.0000 
     60 CA          8.4192  -33.7948   -7.5452 C.3       3 GLC5        0.0000 
     61 CA          7.2430  -33.9040   -9.2600 C.3       9 GLL5        0.0000 
     62 CA          8.0770  -33.9445   -6.5330 C.3       3 GLC5        0.0000 
     63 CA          6.9110  -35.3730   -7.2930 C.3       9 GLL5        0.0000 
@<TRIPOS>BOND
@<TRIPOS>SUBSTRUCTURE
     1 ALC1       16 GROUP        1 X    ALC  0     ROOT ALC X 1
     2 SEC2       13 GROUP        1 X    SEC  0     **** SEC X 2
     3 GLC5        1 GROUP        1 X    GLC  0     **** GLC X 6
     4 ALP1       18 GROUP        1 Y    ALP  0     ROOT ALP Y 8
     5 SEP2       15 GROUP        1 Y    SEP  0     **** SEP Y 9
     6 GLP5        3 GROUP        1 Y    GLP  0     **** GLP Y 13
     7 ALL1       17 GROUP        1 Z    ALL  0     ROOT ALL Z 15
     8 SEL2       14 GROUP        1 Z    SEL  0     **** SEL Z 16
     9 GLL5        2 GROUP        1 Z    GLL  0     **** GLL Z 20
@<TRIPOS>SET

