#    Name: 3sr5_Q12_1_ligand
#    Modification time : Mon Mar 24 18:05:47 2014

@<TRIPOS>MOLECULE
3sr5_Q12_1_ligand
   41    43     1     0     0
SMALL
NO_CHARGES


@<TRIPOS>ATOM
      1 C1          4.3320  -28.6900   -3.8750 C.ar      1 Q12169      0.0000 
      2 N2          5.2220  -27.6590   -3.7550 N.ar      1 Q12169      0.0000 
      3 C3          6.4230  -27.6640   -4.3930 C.ar      1 Q12169      0.0000 
      4 N4          6.8220  -28.6850   -5.2000 N.ar      1 Q12169      0.0000 
      5 C5          6.0350  -29.7830   -5.3870 C.ar      1 Q12169      0.0000 
      6 C6          4.7190  -29.8520   -4.7360 C.ar      1 Q12169      0.0000 
      7 C7          3.8750  -30.9590   -4.9140 C.ar      1 Q12169      0.0000 
      8 C8          4.2980  -32.0250   -5.7230 C.ar      1 Q12169      0.0000 
      9 C9          5.6310  -31.9520   -6.3880 C.ar      1 Q12169      0.0000 
     10 C10         6.4630  -30.8440   -6.1950 C.ar      1 Q12169      0.0000 
     11 N11         3.1450  -28.6480   -3.2540 N.pl3     1 Q12169      0.0000 
     12 N12         7.2800  -26.6120   -4.2420 N.pl3     1 Q12169      0.0000 
     13 C13         3.3700  -33.2110   -5.9010 C.3       1 Q12169      0.0000 
     14 C14         6.2000  -33.0510   -7.2270 C.ar      1 Q12169      0.0000 
     15 C15         6.6750  -32.8450   -8.5210 C.ar      1 Q12169      0.0000 
     16 C16         7.2430  -33.9040   -9.2600 C.ar      1 Q12169      0.0000 
     17 C17         7.3820  -35.1730   -8.6770 C.ar      1 Q12169      0.0000 
     18 C18         6.9110  -35.3730   -7.2930 C.ar      1 Q12169      0.0000 
     19 C19         6.3450  -34.3030   -6.5950 C.ar      1 Q12169      0.0000 
     20 O20         7.0380  -36.6260   -6.7190 O.3       1 Q12169      0.0000 
     21 C21         6.5740  -36.8730   -5.3960 C.3       1 Q12169      0.0000 
     22 O22         7.9370  -36.2570   -9.3630 O.3       1 Q12169      0.0000 
     23 C23         8.7310  -36.0540  -10.5300 C.3       1 Q12169      0.0000 
     24 H           2.9625  -30.9887   -4.4596 H         1 Q12169      0.0000 
     25 H           7.3832  -30.8081   -6.6432 H         1 Q12169      0.0000 
     26 H           2.5433  -29.4331   -3.4012 H         1 Q12169      0.0000 
     27 H           2.9673  -27.8354   -2.6990 H         1 Q12169      0.0000 
     28 H           7.2152  -26.1121   -3.3784 H         1 Q12169      0.0000 
     29 H           7.8972  -26.4338   -5.0083 H         1 Q12169      0.0000 
     30 H           6.6139  -31.9102   -8.9499 H         1 Q12169      0.0000 
     31 H           7.5530  -33.7434  -10.2219 H         1 Q12169      0.0000 
     32 H           6.0348  -34.4220   -5.6276 H         1 Q12169      0.0000 
     33 H           3.7684  -33.9082   -6.4970 H         1 Q12169      0.0000 
     34 H           3.1627  -33.6545   -5.0290 H         1 Q12169      0.0000 
     35 H           2.4970  -32.9417   -6.3077 H         1 Q12169      0.0000 
     36 H           6.7291  -37.8213   -5.1190 H         1 Q12169      0.0000 
     37 H           7.0365  -36.2925   -4.7258 H         1 Q12169      0.0000 
     38 H           5.5933  -36.6985   -5.3077 H         1 Q12169      0.0000 
     39 H           9.5371  -35.4942  -10.3380 H         1 Q12169      0.0000 
     40 H           9.0585  -36.9185  -10.9114 H         1 Q12169      0.0000 
     41 H           8.2177  -35.5907  -11.2524 H         1 Q12169      0.0000 
@<TRIPOS>BOND
     1    2    1 ar   
     2    6    1 ar   
     3   11    1 1    
     4    3    2 ar   
     5    4    3 ar   
     6   12    3 1    
     7    5    4 ar   
     8    6    5 ar   
     9   10    5 ar   
    10    7    6 ar   
    11    8    7 ar   
    12   24    7 1    
    13    9    8 ar   
    14   13    8 1    
    15   10    9 ar   
    16   14    9 1    
    17   25   10 1    
    18   26   11 1    
    19   27   11 1    
    20   28   12 1    
    21   29   12 1    
    22   33   13 1    
    23   34   13 1    
    24   35   13 1    
    25   15   14 ar   
    26   19   14 ar   
    27   16   15 ar   
    28   30   15 1    
    29   17   16 ar   
    30   31   16 1    
    31   18   17 ar   
    32   22   17 1    
    33   19   18 ar   
    34   20   18 1    
    35   32   19 1    
    36   21   20 1    
    37   36   21 1    
    38   37   21 1    
    39   38   21 1    
    40   23   22 1    
    41   39   23 1    
    42   40   23 1    
    43   41   23 1    
@<TRIPOS>SUBSTRUCTURE
     1 Q12169      1 GROUP   
@<TRIPOS>SET

