#    Name: 4c37_Z21_1_INTS_M
#    Modification time : Tue Mar 25 08:46:46 2014

@<TRIPOS>MOLECULE
4c37_Z21_1_INTS_M
   43     0     9     0     0
SMALL
NO_CHARGES


@<TRIPOS>ATOM
      1 CA         22.8825  -10.7630    0.5700 C.3       3 GLC5        0.0000 
      2 CA         24.0650   -9.6280   -0.0460 C.3       9 GLL5        0.0000 
      3 CA         21.7000  -11.8980    1.1860 C.3       6 GLP5        0.0000 
      4 CA         29.0340   -7.8740    4.6695 C.3       3 GLC5        0.0000 
      5 CA         27.8030   -9.4490    4.4990 C.3       9 GLL5        0.0000 
      6 CA         30.2650   -6.2990    4.8400 C.3       6 GLP5        0.0000 
      7 CA         28.0570  -12.2030    6.3325 C.3       3 GLC5        0.0000 
      8 CA         27.3510  -10.7320    5.1440 C.3       9 GLL5        0.0000 
      9 CA         28.7630  -13.6740    7.5210 C.3       6 GLP5        0.0000 
     10 CA         25.8535  -11.8875    5.9150 C.3       3 GLC5        0.0000 
     11 CA         24.3560  -13.0430    6.6860 C.3       6 GLP5        0.0000 
     12 CA         27.3850  -12.4065    4.1445 C.3       3 GLC5        0.0000 
     13 CA         27.4190  -14.0810    3.1450 C.3       6 GLP5        0.0000 
     14 CA         27.3120  -11.4860   -1.5090 C.3       3 GLC5        0.0000 
     15 CA         28.0290  -10.0350   -0.3850 C.3       9 GLL5        0.0000 
     16 CA         26.5950  -12.9370   -2.6330 C.3       6 GLP5        0.0000 
     17 CA         27.3360   -8.3685   -1.6695 C.3       3 GLC5        0.0000 
     18 CA         26.6430   -6.7020   -2.9540 C.3       6 GLP5        0.0000 
     19 N          26.0240  -10.3945   -1.8335 N.am      2 SEC2        0.0000 
     20 N          26.7170   -9.9270   -0.6230 N.am      8 SEL2        0.0000 
     21 N          25.3310  -10.8620   -3.0440 N.am      5 SEP2        0.0000 
     22 O          34.0050  -10.2505    1.8695 O.2       1 ALC1        0.0000 
     23 O          32.6690   -9.7780    2.0520 O.2       7 ALL1        0.0000 
     24 O          35.3410  -10.7230    1.6870 O.2       4 ALP1        0.0000 
     25 N          34.3400   -9.8160    4.8665 N.am      2 SEC2        0.0000 
     26 N          32.9270  -10.1560    4.3370 N.am      8 SEL2        0.0000 
     27 N          35.7530   -9.4760    5.3960 N.am      5 SEP2        0.0000 
     28 CA         25.1000  -10.9928   -1.2577 C.3       3 GLC5        0.0000 
     29 CA         25.8970   -9.7290    0.4430 C.3       9 GLL5        0.0000 
     30 CA         25.2190  -12.3070   -2.7140 C.3       6 GLP5        0.0000 
     31 CA         25.1805   -8.0708   -0.9592 C.3       3 GLC5        0.0000 
     32 CA         25.3800   -6.4630   -2.1170 C.3       6 GLP5        0.0000 
     33 CA         26.4067  -11.5057    1.5375 C.3       3 GLC5        0.0000 
     34 CA         26.7480  -13.3440    1.9630 C.3       6 GLP5        0.0000 
     35 CA         28.7380   -9.9582    6.6313 C.3       3 GLC5        0.0000 
     36 CA         29.8990   -9.8260    8.4410 C.3       6 GLP5        0.0000 
     37 CA         29.6463  -10.8635   -0.6670 C.3       3 GLC5        0.0000 
     38 CA         28.5180   -9.9350    0.9490 C.3       9 GLL5        0.0000 
     39 CA         31.0190  -11.7420   -1.6160 C.3       6 GLP5        0.0000 
     40 CA         27.3965  -11.6387    1.2529 C.3       3 GLC5        0.0000 
     41 CA         29.0450   -8.3012    0.1724 C.3       3 GLC5        0.0000 
     42 CA         27.6040   -9.7290    1.9920 C.3       9 GLL5        0.0000 
     43 CA         30.0450   -6.6690   -0.1980 C.3       6 GLP5        0.0000 
@<TRIPOS>BOND
@<TRIPOS>SUBSTRUCTURE
     1 ALC1       22 GROUP        1 X    ALC  0     ROOT ALC X 1
     2 SEC2       19 GROUP        1 X    SEC  0     **** SEC X 2
     3 GLC5        1 GROUP        1 X    GLC  0     **** GLC X 6
     4 ALP1       24 GROUP        1 Y    ALP  0     ROOT ALP Y 8
     5 SEP2       21 GROUP        1 Y    SEP  0     **** SEP Y 9
     6 GLP5        3 GROUP        1 Y    GLP  0     **** GLP Y 13
     7 ALL1       23 GROUP        1 Z    ALL  0     ROOT ALL Z 15
     8 SEL2       20 GROUP        1 Z    SEL  0     **** SEL Z 16
     9 GLL5        2 GROUP        1 Z    GLL  0     **** GLL Z 20
@<TRIPOS>SET

