#    Name: 4c37_Z21_1_ligand
#    Modification time : Tue Mar 25 08:46:46 2014

@<TRIPOS>MOLECULE
4c37_Z21_1_ligand
   26    28     1     0     0
SMALL
NO_CHARGES


@<TRIPOS>ATOM
      1 BR         24.0650   -9.6280   -0.0460 Br        1 Z211351     0.0000 
      2 C          25.8970   -9.7290    0.4430 C.ar      1 Z211351     0.0000 
      3 C1         26.2340   -9.6060    1.7810 C.ar      1 Z211351     0.0000 
      4 C2         27.6040   -9.7290    1.9920 C.ar      1 Z211351     0.0000 
      5 N2         28.3630   -9.6860    3.1550 N.pl3     1 Z211351     0.0000 
      6 C6         27.8030   -9.4490    4.4990 C.3       1 Z211351     0.0000 
      7 C7         27.3510  -10.7320    5.1440 C.3       1 Z211351     0.0000 
      8 C5         29.6670   -9.8760    2.7530 C.2       1 Z211351     0.0000 
      9 N1         29.8140  -10.0060    1.4480 N.2       1 Z211351     0.0000 
     10 C3         28.5180   -9.9350    0.9490 C.ar      1 Z211351     0.0000 
     11 C4         28.0290  -10.0350   -0.3850 C.ar      1 Z211351     0.0000 
     12 N          26.7170   -9.9270   -0.6230 N.ar      1 Z211351     0.0000 
     13 C8         30.7890  -10.0370    3.6620 C.2       1 Z211351     0.0000 
     14 C9         32.1790   -9.9770    3.2820 C.2       1 Z211351     0.0000 
     15 N5         32.6690   -9.7780    2.0520 N.pl3     1 Z211351     0.0000 
     16 N4         32.9270  -10.1560    4.3370 N.2       1 Z211351     0.0000 
     17 O          32.0490  -10.3420    5.3790 O.3       1 Z211351     0.0000 
     18 N3         30.7140  -10.2640    4.9530 N.2       1 Z211351     0.0000 
     19 H          25.5880   -9.4510    2.4955 H         1 Z211351     0.0000 
     20 H          26.9463   -8.7617    4.4354 H         1 Z211351     0.0000 
     21 H          28.5568   -8.9730    5.1437 H         1 Z211351     0.0000 
     22 H          28.7157  -10.1904   -1.1383 H         1 Z211351     0.0000 
     23 H          28.1055  -11.3793    5.2520 H         1 Z211351     0.0000 
     24 H          26.9670  -10.5751    6.0539 H         1 Z211351     0.0000 
     25 H          26.6460  -11.1911    4.6035 H         1 Z211351     0.0000 
     26 H          33.5811  -10.1877    2.0675 H         1 Z211351     0.0000 
@<TRIPOS>BOND
     1    2    1 1    
     2    3    2 ar   
     3   12    2 ar   
     4    4    3 ar   
     5   19    3 1    
     6    5    4 1    
     7   10    4 ar   
     8    6    5 1    
     9    8    5 1    
    10    7    6 1    
    11   20    6 1    
    12   21    6 1    
    13   23    7 1    
    14   24    7 1    
    15   25    7 1    
    16    9    8 2    
    17   13    8 1    
    18   10    9 1    
    19   11   10 ar   
    20   12   11 ar   
    21   22   11 1    
    22   14   13 1    
    23   18   13 2    
    24   15   14 1    
    25   16   14 2    
    26   26   15 1    
    27   17   16 1    
    28   18   17 1    
@<TRIPOS>SUBSTRUCTURE
     1 Z211351     1 GROUP   
@<TRIPOS>SET

