#    Name: 4f9a_ADP_2_INTS_M
#    Modification time : Mon Mar 24 19:06:45 2014

@<TRIPOS>MOLECULE
4f9a_ADP_2_INTS_M
   62     0    15     0     0
SMALL
NO_CHARGES


@<TRIPOS>ATOM
      1 Zn         35.3560  -10.6150   31.9955 Zn        4 ZIC7        0.0000 
      2 Zn         35.7870  -10.1380   31.1100 Zn       14 ZIL7        0.0000 
      3 Zn         34.9250  -11.0920   32.8810 Zn        9 ZIP7        0.0000 
      4 N          36.3155  -10.3140   27.5965 N.am      2 SEC2        0.0000 
      5 N          36.5950   -9.8020   28.7830 N.am     12 SEL2        0.0000 
      6 N          36.0360  -10.8260   26.4100 N.am      7 SEP2        0.0000 
      7 NZ         36.4385  -13.4620   29.0735 N.4       3 LYC4        0.0000 
      8 NZ         37.1900  -11.9810   29.8540 N.4      13 LYL4        0.0000 
      9 NZ         35.6870  -14.9430   28.2930 N.4       8 LYP4        0.0000 
     10 NZ         34.5740  -14.2645   28.9700 N.4       3 LYC4        0.0000 
     11 NZ         33.4610  -13.5860   29.6470 N.4      13 LYL4        0.0000 
     12 N          34.5740  -14.2645   28.9700 N.am      2 SEC2        0.0000 
     13 N          33.4610  -13.5860   29.6470 N.am     12 SEL2        0.0000 
     14 N          35.6870  -14.9430   28.2930 N.am      7 SEP2        0.0000 
     15 Zn         34.3035  -11.5005   32.2515 Zn        4 ZIC7        0.0000 
     16 Zn         33.6820  -11.9090   31.6220 Zn       14 ZIL7        0.0000 
     17 CA         30.8935   -7.7230   28.6325 C.3       5 GLC5        0.0000 
     18 CA         31.0680   -9.3400   29.8790 C.3      15 GLL5        0.0000 
     19 CA         30.7190   -6.1060   27.3860 C.3      10 GLP5        0.0000 
     20 O          30.9360  -10.1095   33.4970 O.2       1 ALC1        0.0000 
     21 O          30.9170   -9.6110   32.3340 O.2      11 ALL1        0.0000 
     22 O          30.9550  -10.6080   34.6600 O.2       6 ALP1        0.0000 
     23 CA         28.0720  -10.9405   32.2325 C.3       5 GLC5        0.0000 
     24 CA         28.9600   -9.9370   30.8360 C.3      15 GLL5        0.0000 
     25 CA         27.1840  -11.9440   33.6290 C.3      10 GLP5        0.0000 
     26 O          27.0400   -8.7075   31.6715 O.2       1 ALC1        0.0000 
     27 O          28.5280   -8.6370   31.2240 O.2      11 ALL1        0.0000 
     28 O          25.5520   -8.7780   32.1190 O.2       6 ALP1        0.0000 
     29 CA         27.5150   -9.8245   27.5770 C.3       5 GLC5        0.0000 
     30 CA         28.8750  -10.0550   29.3190 C.3      15 GLL5        0.0000 
     31 CA         26.1550   -9.5940   25.8350 C.3      10 GLP5        0.0000 
     32 CA         29.2825  -10.5515   27.2975 C.3       5 GLC5        0.0000 
     33 CA         29.6900  -11.0480   25.2760 C.3      10 GLP5        0.0000 
     34 CA         28.9275  -14.7970   27.2390 C.3       5 GLC5        0.0000 
     35 CA         27.7570  -13.4980   28.5420 C.3      15 GLL5        0.0000 
     36 CA         30.0980  -16.0960   25.9360 C.3      10 GLP5        0.0000 
     37 CA         26.1430  -16.2330   29.2215 C.3       5 GLC5        0.0000 
     38 CA         26.6130  -14.4060   28.2960 C.3      15 GLL5        0.0000 
     39 CA         25.6730  -18.0600   30.1470 C.3      10 GLP5        0.0000 
     40 O          25.5030  -16.4330   27.5085 O.2       1 ALC1        0.0000 
     41 O          26.8320  -15.7130   28.0190 O.2      11 ALL1        0.0000 
     42 O          24.1740  -17.1530   26.9980 O.2       6 ALP1        0.0000 
     43 N          23.8815  -14.2770   28.4585 N.am      2 SEC2        0.0000 
     44 N          25.3690  -13.9000   28.3840 N.am     12 SEL2        0.0000 
     45 N          22.3940  -14.6540   28.5330 N.am      7 SEP2        0.0000 
     46 CA         25.6545  -11.0880   27.2425 C.3       5 GLC5        0.0000 
     47 CA         25.1540  -12.5820   28.6500 C.3      15 GLL5        0.0000 
     48 CA         25.8680  -13.1840   26.7160 C.3       5 GLC5        0.0000 
     49 CA         26.5820  -13.7860   24.7820 C.3      10 GLP5        0.0000 
     50 CA         23.8905  -13.8090   27.3900 C.3       5 GLC5        0.0000 
     51 CA         22.6270  -15.0360   26.1300 C.3      10 GLP5        0.0000 
     52 CA         23.3970  -13.4865   29.2050 C.3       5 GLC5        0.0000 
     53 CA         21.6400  -14.3910   29.7600 C.3      10 GLP5        0.0000 
     54 CA         25.8010  -13.1325   30.3200 C.3       5 GLC5        0.0000 
     55 CA         26.4480  -13.6830   31.9900 C.3      10 GLP5        0.0000 
     56 CA         26.8045  -10.8400   27.3310 C.3       5 GLC5        0.0000 
     57 CA         27.4540  -12.0860   28.8270 C.3      15 GLL5        0.0000 
     58 CA         28.5720  -11.5670   27.0515 C.3       5 GLC5        0.0000 
     59 CA         31.9042  -10.1363   27.8422 C.3       5 GLC5        0.0000 
     60 CA         32.0440  -10.6840   25.9640 C.3      10 GLP5        0.0000 
     61 CA         26.9507  -13.4025   26.7025 C.3       5 GLC5        0.0000 
     62 CA         26.8837  -13.3510   30.3065 C.3       5 GLC5        0.0000 
@<TRIPOS>BOND
@<TRIPOS>SUBSTRUCTURE
     1 ALC1       20 GROUP        1 X    ALC  0     ROOT ALC X 1
     2 SEC2        4 GROUP        1 X    SEC  0     **** SEC X 2
     3 LYC4        7 GROUP        1 X    LYC  0     **** LYC X 4
     4 ZIC7        1 GROUP        1 X    ZIC  0     **** ZIC X 5
     5 GLC5       17 GROUP        1 X    GLC  0     **** GLC X 6
     6 ALP1       22 GROUP        1 Y    ALP  0     ROOT ALP Y 8
     7 SEP2        6 GROUP        1 Y    SEP  0     **** SEP Y 9
     8 LYP4        9 GROUP        1 Y    LYP  0     **** LYP Y 11
     9 ZIP7        3 GROUP        1 Y    ZIP  0     **** ZIP Y 12
    10 GLP5       19 GROUP        1 Y    GLP  0     **** GLP Y 13
    11 ALL1       21 GROUP        1 Z    ALL  0     ROOT ALL Z 15
    12 SEL2        5 GROUP        1 Z    SEL  0     **** SEL Z 16
    13 LYL4        8 GROUP        1 Z    LYL  0     **** LYL Z 18
    14 ZIL7        2 GROUP        1 Z    ZIL  0     **** ZIL Z 19
    15 GLL5       18 GROUP        1 Z    GLL  0     **** GLL Z 20
@<TRIPOS>SET

