#    Name: 4f9a_ADP_2_ligand
#    Modification time : Mon Mar 24 19:06:45 2014

@<TRIPOS>MOLECULE
4f9a_ADP_2_ligand
   39    41     1     0     0
SMALL
NO_CHARGES


@<TRIPOS>ATOM
      1 PB         36.2230  -10.8120   29.8300 P.3       1 ADP601      0.0000 
      2 O1B        35.7870  -10.1380   31.1100 O.co2     1 ADP601      0.0000 
      3 O2B        36.5950   -9.8020   28.7830 O.co2     1 ADP601      0.0000 
      4 O3B        37.1900  -11.9810   29.8540 O.co2     1 ADP601      0.0000 
      5 PA         33.6160  -12.1630   30.1260 P.3       1 ADP601      0.0000 
      6 O1A        33.4610  -13.5860   29.6470 O.co2     1 ADP601      0.0000 
      7 O2A        33.6820  -11.9090   31.6220 O.co2     1 ADP601      0.0000 
      8 O3A        34.8800  -11.5590   29.3010 O.3       1 ADP601      0.0000 
      9 O5'        32.4300  -11.2650   29.5040 O.3       1 ADP601      0.0000 
     10 C5'        32.4610   -9.8370   29.5620 C.3       1 ADP601      0.0000 
     11 C4'        31.0680   -9.3400   29.8790 C.3       1 ADP601      0.0000 
     12 O4'        30.1680   -9.6600   28.8120 O.3       1 ADP601      0.0000 
     13 C3'        30.4560  -10.0700   31.0630 C.3       1 ADP601      0.0000 
     14 O3'        30.9170   -9.6110   32.3340 O.3       1 ADP601      0.0000 
     15 C2'        28.9600   -9.9370   30.8360 C.3       1 ADP601      0.0000 
     16 O2'        28.5280   -8.6370   31.2240 O.3       1 ADP601      0.0000 
     17 C1'        28.8750  -10.0550   29.3190 C.3       1 ADP601      0.0000 
     18 N9         28.6410  -11.4900   28.9980 N.pl3     1 ADP601      0.0000 
     19 C8         29.6260  -12.3980   28.8270 C.2       1 ADP601      0.0000 
     20 N7         29.1010  -13.6250   28.5540 N.2       1 ADP601      0.0000 
     21 C5         27.7570  -13.4980   28.5420 C.ar      1 ADP601      0.0000 
     22 C6         26.6130  -14.4060   28.2960 C.ar      1 ADP601      0.0000 
     23 N6         26.8320  -15.7130   28.0190 N.pl3     1 ADP601      0.0000 
     24 N1         25.3690  -13.9000   28.3840 N.ar      1 ADP601      0.0000 
     25 C2         25.1540  -12.5820   28.6500 C.ar      1 ADP601      0.0000 
     26 N3         26.1450  -11.6950   28.8570 N.ar      1 ADP601      0.0000 
     27 C4         27.4540  -12.0860   28.8270 C.ar      1 ADP601      0.0000 
     28 H          32.7714   -9.4018   28.6096 H         1 ADP601      0.0000 
     29 H          33.1376   -9.4800   30.3415 H         1 ADP601      0.0000 
     30 H          31.0689   -8.3028   30.0810 H         1 ADP601      0.0000 
     31 H          30.6913  -11.1399   30.9074 H         1 ADP601      0.0000 
     32 H          28.4648  -10.7259   31.2735 H         1 ADP601      0.0000 
     33 H          28.1015   -9.4527   28.9659 H         1 ADP601      0.0000 
     34 H          30.5816  -12.2083   28.8890 H         1 ADP601      0.0000 
     35 H          26.0176  -16.2728   27.8658 H         1 ADP601      0.0000 
     36 H          27.7887  -16.0028   27.9921 H         1 ADP601      0.0000 
     37 H          24.1465  -12.2414   28.6953 H         1 ADP601      0.0000 
     38 H          30.7451  -10.3706   32.9613 H         1 ADP601      0.0000 
     39 H          27.5583   -8.7418   31.4448 H         1 ADP601      0.0000 
@<TRIPOS>BOND
     1    2    1 ar   
     2    3    1 ar   
     3    4    1 ar   
     4    8    1 1    
     5    6    5 ar   
     6    7    5 ar   
     7    8    5 1    
     8    9    5 1    
     9   10    9 1    
    10   11   10 1    
    11   28   10 1    
    12   29   10 1    
    13   12   11 1    
    14   13   11 1    
    15   30   11 1    
    16   17   12 1    
    17   14   13 1    
    18   15   13 1    
    19   31   13 1    
    20   38   14 1    
    21   16   15 1    
    22   17   15 1    
    23   32   15 1    
    24   39   16 1    
    25   18   17 1    
    26   33   17 1    
    27   19   18 1    
    28   27   18 1    
    29   20   19 2    
    30   34   19 1    
    31   21   20 1    
    32   22   21 ar   
    33   27   21 ar   
    34   23   22 1    
    35   24   22 ar   
    36   35   23 1    
    37   36   23 1    
    38   25   24 ar   
    39   26   25 ar   
    40   37   25 1    
    41   27   26 ar   
@<TRIPOS>SUBSTRUCTURE
     1 ADP601      1 GROUP   
@<TRIPOS>SET

