#    Name: 3ln3_NAD_1_INTS_M
#    Modification time : Mon Mar 24 21:54:18 2014

@<TRIPOS>MOLECULE
3ln3_NAD_1_INTS_M
  108     0     9     0     0
SMALL
NO_CHARGES


@<TRIPOS>ATOM
      1 N          28.7785   -0.6650   -3.2435 N.am      2 SEC2        0.0000 
      2 N          29.0570    0.6170   -2.5250 N.am      8 SEL2        0.0000 
      3 N          28.5000   -1.9470   -3.9620 N.am      5 SEP2        0.0000 
      4 N          30.1720    0.1720   -1.7155 N.am      2 SEC2        0.0000 
      5 N          31.2870   -0.2730   -0.9060 N.am      5 SEP2        0.0000 
      6 N          27.5755    3.4770   -4.7240 N.am      2 SEC2        0.0000 
      7 N          28.0820    2.3250   -4.0290 N.am      8 SEL2        0.0000 
      8 N          27.0690    4.6290   -5.4190 N.am      5 SEP2        0.0000 
      9 CA         30.4440    1.1520   -4.9885 C.3       3 GLC5        0.0000 
     10 CA         30.9520    3.2270   -4.3050 C.3       9 GLL5        0.0000 
     11 CA         29.9360   -0.9230   -5.6720 C.3       6 GLP5        0.0000 
     12 CA         31.4755    4.5875   -3.0730 C.3       3 GLC5        0.0000 
     13 CA         31.9990    5.9480   -1.8410 C.3       6 GLP5        0.0000 
     14 CA         29.5420    4.7420   -4.1485 C.3       3 GLC5        0.0000 
     15 CA         28.1320    6.2570   -3.9920 C.3       6 GLP5        0.0000 
     16 CA         32.9825    3.4680   -3.0800 C.3       3 GLC5        0.0000 
     17 CA         32.2770    2.8990   -4.9200 C.3       9 GLL5        0.0000 
     18 CA         33.6880    4.0370   -1.2400 C.3       6 GLP5        0.0000 
     19 CA         32.4500    5.0630   -3.6360 C.3       3 GLC5        0.0000 
     20 CA         32.9010    4.1780   -5.4310 C.3       9 GLL5        0.0000 
     21 CA         30.9635    1.4395   -7.3170 C.3       3 GLC5        0.0000 
     22 CA         32.9190    2.4040   -7.0970 C.3       9 GLL5        0.0000 
     23 CA         29.0080    0.4750   -7.5370 C.3       6 GLP5        0.0000 
     24 CA         33.3430    0.4635   -7.3395 C.3       3 GLC5        0.0000 
     25 CA         33.7670   -1.4770   -7.5820 C.3       6 GLP5        0.0000 
     26 N          29.0715    2.7615  -10.2030 N.am      2 SEC2        0.0000 
     27 N          30.5630    2.6270   -9.8580 N.am      8 SEL2        0.0000 
     28 N          27.5800    2.8960  -10.5480 N.am      5 SEP2        0.0000 
     29 CA         31.6920    3.4895  -11.3740 C.3       3 GLC5        0.0000 
     30 CA         31.5810    1.9490  -10.4480 C.3       9 GLL5        0.0000 
     31 CA         31.8030    5.0300  -12.3000 C.3       6 GLP5        0.0000 
     32 CA         32.4440    3.0050  -12.1245 C.3       3 GLC5        0.0000 
     33 CA         31.6980    1.4920  -11.7630 C.3       9 GLL5        0.0000 
     34 CA         33.1900    4.5180  -12.4860 C.3       6 GLP5        0.0000 
     35 O          30.8755    0.7710  -13.8675 O.2       1 ALC1        0.0000 
     36 O          30.6210    1.5330  -12.6830 O.2       7 ALL1        0.0000 
     37 O          31.1300    0.0090  -15.0520 O.2       4 ALP1        0.0000 
     38 O          29.2970    1.3680  -12.3380 O.2       1 ALC1        0.0000 
     39 O          27.9730    1.2030  -11.9930 O.2       4 ALP1        0.0000 
     40 CA         33.8530   -0.3825   -9.3370 C.3       3 GLC5        0.0000 
     41 CA         33.9390    0.7120  -11.0920 C.3       9 GLL5        0.0000 
     42 CA         32.2110   -0.4755  -11.0350 C.3       3 GLC5        0.0000 
     43 CA         30.4830   -1.6630  -10.9780 C.3       6 GLP5        0.0000 
     44 CA         33.5645    2.6150  -11.7890 C.3       3 GLC5        0.0000 
     45 CA         33.1845    0.1580   -8.5510 C.3       3 GLC5        0.0000 
     46 CA         32.6020    1.7930   -9.5200 C.3       9 GLL5        0.0000 
     47 CA         32.8960    3.1555  -11.0030 C.3       3 GLC5        0.0000 
     48 N          29.4710    6.5020   -0.9750 N.am      2 SEC2        0.0000 
     49 N          28.5930    5.4210   -0.9490 N.am      8 SEL2        0.0000 
     50 N          30.3490    7.5830   -1.0010 N.am      5 SEP2        0.0000 
     51 N          31.1165    3.4060   -0.1275 N.am      2 SEC2        0.0000 
     52 N          29.6260    3.6540    0.5450 N.am      8 SEL2        0.0000 
     53 N          32.6070    3.1580   -0.8000 N.am      5 SEP2        0.0000 
     54 N          29.6940    4.0035    1.8215 N.am      2 SEC2        0.0000 
     55 N          29.7620    4.3530    3.0980 N.am      5 SEP2        0.0000 
     56 N          26.7550    1.7250   -0.0695 N.am      2 SEC2        0.0000 
     57 N          27.2690    3.3770   -0.3120 N.am      8 SEL2        0.0000 
     58 N          26.2410    0.0730    0.1730 N.am      5 SEP2        0.0000 
     59 CA         27.1405    4.9725   -2.5795 C.3       3 GLC5        0.0000 
     60 CA         26.1490    3.6880   -1.1670 C.3       9 GLL5        0.0000 
     61 N          26.4960    8.3185   -0.1280 N.am      2 SEC2        0.0000 
     62 N          26.4360    6.9330   -0.6970 N.am      8 SEL2        0.0000 
     63 N          26.5560    9.7040    0.4410 N.am      5 SEP2        0.0000 
     64 CA         24.1765    7.8880    2.0895 C.3       3 GLC5        0.0000 
     65 CA         24.6260    6.4780    0.9510 C.3       9 GLL5        0.0000 
     66 CA         23.7270    9.2980    3.2280 C.3       6 GLP5        0.0000 
     67 N          24.1745    8.2485   -0.7495 N.am      2 SEC2        0.0000 
     68 N          23.5860    7.1630    0.1980 N.am      8 SEL2        0.0000 
     69 N          24.7630    9.3340   -1.6970 N.am      5 SEP2        0.0000 
     70 O          22.2455    7.0025    0.5670 O.2       1 ALC1        0.0000 
     71 O          23.5860    7.1630    0.1980 O.2       7 ALL1        0.0000 
     72 O          20.9050    6.8420    0.9360 O.2       4 ALP1        0.0000 
     73 CA         24.0665    6.7775    2.8765 C.3       3 GLC5        0.0000 
     74 CA         24.1340    5.1090    1.4830 C.3       9 GLL5        0.0000 
     75 CA         23.9990    8.4460    4.2700 C.3       6 GLP5        0.0000 
     76 CA         23.9860    3.1875    1.5635 C.3       3 GLC5        0.0000 
     77 CA         23.8380    1.2660    1.6440 C.3       6 GLP5        0.0000 
     78 CA         22.6615    4.3845    0.3815 C.3       3 GLC5        0.0000 
     79 CA         21.1890    3.6600   -0.7200 C.3       6 GLP5        0.0000 
     80 CA         21.6515    5.3385    4.0530 C.3       3 GLC5        0.0000 
     81 CA         23.6130    4.3100    3.7430 C.3       9 GLL5        0.0000 
     82 CA         19.6900    6.3670    4.3630 C.3       6 GLP5        0.0000 
     83 N          22.5000    2.3955    8.1845 N.am      2 SEC2        0.0000 
     84 N          23.1940    3.2610    7.2950 N.am      8 SEL2        0.0000 
     85 N          21.8060    1.5300    9.0740 N.am      5 SEP2        0.0000 
     86 O          20.4205    2.8250    6.3195 O.2       1 ALC1        0.0000 
     87 O          21.4460    3.5140    5.6090 O.2       7 ALL1        0.0000 
     88 O          19.3950    2.1360    7.0300 O.2       4 ALP1        0.0000 
     89 O          21.0490    3.4845    4.2325 O.2       1 ALC1        0.0000 
     90 O          20.6520    3.4550    2.8560 O.2       4 ALP1        0.0000 
     91 CA         27.4640    2.7805    4.8475 C.3       3 GLC5        0.0000 
     92 CA         26.1610    4.3410    4.6510 C.3       9 GLL5        0.0000 
     93 CA         28.7670    1.2200    5.0440 C.3       6 GLP5        0.0000 
     94 CA         26.9410    6.6095    2.7070 C.3       3 GLC5        0.0000 
     95 CA         25.9030    4.7590    3.3310 C.3       9 GLL5        0.0000 
     96 CA         27.9790    8.4600    2.0830 C.3       6 GLP5        0.0000 
     97 CA         24.8705    3.0125    2.4875 C.3       3 GLC5        0.0000 
     98 CA         30.5497    1.1730   -8.7605 C.3       3 GLC5        0.0000 
     99 CA         31.3019    0.0469  -10.6454 C.3       3 GLC5        0.0000 
    100 CA         24.7583    2.7440    0.3892 C.3       3 GLC5        0.0000 
    101 CA         23.9872    3.5705   -1.8382 C.3       3 GLC5        0.0000 
    102 CA         25.2080    4.7560   -0.5640 C.3       9 GLL5        0.0000 
    103 CA         22.2960    2.9190   -2.8110 C.3       6 GLP5        0.0000 
    104 CA         26.6000    7.3465    1.3103 C.3       3 GLC5        0.0000 
    105 CA         25.8160    5.9880    0.1240 C.3       9 GLL5        0.0000 
    106 CA         24.5895    6.6800   -1.3362 C.3       3 GLC5        0.0000 
    107 CA         24.1100    7.4350   -3.0380 C.3       6 GLP5        0.0000 
    108 CA         23.7873    2.7040    3.0257 C.3       3 GLC5        0.0000 
@<TRIPOS>BOND
@<TRIPOS>SUBSTRUCTURE
     1 ALC1       35 GROUP        1 X    ALC  0     ROOT ALC X 1
     2 SEC2        1 GROUP        1 X    SEC  0     **** SEC X 2
     3 GLC5        9 GROUP        1 X    GLC  0     **** GLC X 6
     4 ALP1       37 GROUP        1 Y    ALP  0     ROOT ALP Y 8
     5 SEP2        3 GROUP        1 Y    SEP  0     **** SEP Y 9
     6 GLP5       11 GROUP        1 Y    GLP  0     **** GLP Y 13
     7 ALL1       36 GROUP        1 Z    ALL  0     ROOT ALL Z 15
     8 SEL2        2 GROUP        1 Z    SEL  0     **** SEL Z 16
     9 GLL5       10 GROUP        1 Z    GLL  0     **** GLL Z 20
@<TRIPOS>SET

