#    Name: 3ln3_NAD_1_ligand
#    Modification time : Mon Mar 24 21:54:18 2014

@<TRIPOS>MOLECULE
3ln3_NAD_1_ligand
   70    74     1     0     0
SMALL
NO_CHARGES


@<TRIPOS>ATOM
      1 PA         29.0880    1.9700   -3.0130 P.3       1 NAD327      0.0000 
      2 O1A        29.0570    0.6170   -2.5250 O.co2     1 NAD327      0.0000 
      3 O2A        28.0820    2.3250   -4.0290 O.co2     1 NAD327      0.0000 
      4 O5B        30.5220    2.1620   -3.5420 O.3       1 NAD327      0.0000 
      5 C5B        30.9520    3.2270   -4.3050 C.3       1 NAD327      0.0000 
      6 C4B        32.2770    2.8990   -4.9200 C.3       1 NAD327      0.0000 
      7 O4B        32.0380    2.0690   -6.0620 O.3       1 NAD327      0.0000 
      8 C3B        32.9010    4.1780   -5.4310 C.3       1 NAD327      0.0000 
      9 O3B        33.8600    4.7830   -4.5700 O.3       1 NAD327      0.0000 
     10 C2B        33.5010    3.7610   -6.7750 C.3       1 NAD327      0.0000 
     11 O2B        34.8930    3.5720   -6.6990 O.3       1 NAD327      0.0000 
     12 C1B        32.9190    2.4040   -7.0970 C.3       1 NAD327      0.0000 
     13 N9A        32.1600    2.3880   -8.3590 N.pl3     1 NAD327      0.0000 
     14 C8A        30.8970    2.9120   -8.5810 C.2       1 NAD327      0.0000 
     15 N7A        30.5630    2.6270   -9.8580 N.2       1 NAD327      0.0000 
     16 C5A        31.5810    1.9490  -10.4480 C.ar      1 NAD327      0.0000 
     17 C6A        31.6980    1.4920  -11.7630 C.ar      1 NAD327      0.0000 
     18 N6A        30.6210    1.5330  -12.6830 N.pl3     1 NAD327      0.0000 
     19 N1A        32.9240    0.8360  -12.0200 N.ar      1 NAD327      0.0000 
     20 C2A        33.9390    0.7120  -11.0920 C.ar      1 NAD327      0.0000 
     21 N3A        33.7950    1.1880   -9.8060 N.ar      1 NAD327      0.0000 
     22 C4A        32.6020    1.7930   -9.5200 C.ar      1 NAD327      0.0000 
     23 O3         29.2340    3.1240   -1.8880 O.3       1 NAD327      0.0000 
     24 PN         28.7380    3.9750   -0.5810 P.3       1 NAD327      0.0000 
     25 O1N        28.5930    5.4210   -0.9490 O.co2     1 NAD327      0.0000 
     26 O2N        29.6260    3.6540    0.5450 O.co2     1 NAD327      0.0000 
     27 O5D        27.2690    3.3770   -0.3120 O.3       1 NAD327      0.0000 
     28 C5D        26.1490    3.6880   -1.1670 C.3       1 NAD327      0.0000 
     29 C4D        25.2080    4.7560   -0.5640 C.3       1 NAD327      0.0000 
     30 O4D        24.6430    4.1370    0.5860 O.3       1 NAD327      0.0000 
     31 C3D        25.8160    5.9880    0.1240 C.3       1 NAD327      0.0000 
     32 O3D        26.4360    6.9330   -0.6970 O.3       1 NAD327      0.0000 
     33 C2D        24.6260    6.4780    0.9510 C.3       1 NAD327      0.0000 
     34 O2D        23.5860    7.1630    0.1980 O.3       1 NAD327      0.0000 
     35 C1D        24.1340    5.1090    1.4830 C.3       1 NAD327      0.0000 
     36 N1N        24.5990    4.7440    2.8610 N.pl3     1 NAD327      0.0000 
     37 C2N        23.6130    4.3100    3.7430 C.ar      1 NAD327      0.0000 
     38 C3N        23.8600    3.9740    5.0720 C.ar      1 NAD327      0.0000 
     39 C7N        22.7580    3.5360    5.9940 C.2       1 NAD327      0.0000 
     40 O7N        23.1940    3.2610    7.2950 O.2       1 NAD327      0.0000 
     41 N7N        21.4460    3.5140    5.6090 N.am      1 NAD327      0.0000 
     42 C4N        25.1420    4.0300    5.5820 C.ar      1 NAD327      0.0000 
     43 C5N        26.1610    4.3410    4.6510 C.ar      1 NAD327      0.0000 
     44 C6N        25.9030    4.7590    3.3310 C.ar      1 NAD327      0.0000 
     45 H          31.0765    4.1498   -3.7108 H         1 NAD327      0.0000 
     46 H          30.2521    3.4700   -5.1244 H         1 NAD327      0.0000 
     47 H          32.9099    2.4467   -4.2199 H         1 NAD327      0.0000 
     48 H          32.0754    4.8572   -5.6762 H         1 NAD327      0.0000 
     49 H          33.2032    4.4404   -7.5225 H         1 NAD327      0.0000 
     50 H          33.7294    1.6908   -7.1506 H         1 NAD327      0.0000 
     51 H          30.3772    3.3829   -7.9382 H         1 NAD327      0.0000 
     52 H          30.8172    1.2000  -13.6053 H         1 NAD327      0.0000 
     53 H          29.7559    1.8914  -12.3321 H         1 NAD327      0.0000 
     54 H          34.8294    0.2503  -11.3694 H         1 NAD327      0.0000 
     55 H          25.5369    2.7894   -1.3705 H         1 NAD327      0.0000 
     56 H          26.4865    4.0663   -2.1501 H         1 NAD327      0.0000 
     57 H          24.4586    5.0392   -1.2267 H         1 NAD327      0.0000 
     58 H          26.5166    5.5552    0.8852 H         1 NAD327      0.0000 
     59 H          24.9980    7.0124    1.7832 H         1 NAD327      0.0000 
     60 H          23.0543    5.1095    1.4479 H         1 NAD327      0.0000 
     61 H          22.6252    4.2313    3.3856 H         1 NAD327      0.0000 
     62 H          20.7972    3.1510    6.2778 H         1 NAD327      0.0000 
     63 H          21.2505    3.8629    4.6924 H         1 NAD327      0.0000 
     64 H          25.3533    3.8646    6.5416 H         1 NAD327      0.0000 
     65 H          27.1556    4.2553    4.9613 H         1 NAD327      0.0000 
     66 H          26.6726    5.0669    2.7366 H         1 NAD327      0.0000 
     67 H          34.7467    4.4682   -4.9086 H         1 NAD327      0.0000 
     68 H          35.0491    2.6520   -7.0586 H         1 NAD327      0.0000 
     69 H          27.3379    6.5501   -0.8968 H         1 NAD327      0.0000 
     70 H          22.7280    6.8845    0.6297 H         1 NAD327      0.0000 
@<TRIPOS>BOND
     1    2    1 ar   
     2    3    1 ar   
     3    4    1 1    
     4   23    1 1    
     5    5    4 1    
     6    6    5 1    
     7   45    5 1    
     8   46    5 1    
     9    7    6 1    
    10    8    6 1    
    11   47    6 1    
    12   12    7 1    
    13    9    8 1    
    14   10    8 1    
    15   48    8 1    
    16   67    9 1    
    17   11   10 1    
    18   12   10 1    
    19   49   10 1    
    20   68   11 1    
    21   13   12 1    
    22   50   12 1    
    23   14   13 1    
    24   22   13 1    
    25   15   14 2    
    26   51   14 1    
    27   16   15 1    
    28   17   16 ar   
    29   22   16 ar   
    30   18   17 1    
    31   19   17 ar   
    32   52   18 1    
    33   53   18 1    
    34   20   19 ar   
    35   21   20 ar   
    36   54   20 1    
    37   22   21 ar   
    38   24   23 1    
    39   25   24 ar   
    40   26   24 ar   
    41   27   24 1    
    42   28   27 1    
    43   29   28 1    
    44   55   28 1    
    45   56   28 1    
    46   30   29 1    
    47   31   29 1    
    48   57   29 1    
    49   35   30 1    
    50   32   31 1    
    51   33   31 1    
    52   58   31 1    
    53   69   32 1    
    54   34   33 1    
    55   35   33 1    
    56   59   33 1    
    57   70   34 1    
    58   36   35 1    
    59   60   35 1    
    60   37   36 ar   
    61   44   36 ar   
    62   38   37 ar   
    63   61   37 1    
    64   39   38 1    
    65   42   38 ar   
    66   40   39 2    
    67   41   39 am   
    68   62   41 1    
    69   63   41 1    
    70   43   42 ar   
    71   64   42 1    
    72   44   43 ar   
    73   65   43 1    
    74   66   44 1    
@<TRIPOS>SUBSTRUCTURE
     1 NAD327      1 GROUP   
@<TRIPOS>SET

