#    Name: 4GEK_1_CAVITY_N1_ALL.mol2
#    Modification time : Mon Mar 10 23:27:43 2014

@<TRIPOS>MOLECULE
4GEK_1_CAVITY_N1_ALL.mol2
   91     0     6     0     0
SMALL
NO_CHARGES


@<TRIPOS>ATOM
      1 CA        -26.5713  -15.7012  -17.4981 C.3       5 GLY6        0.0000 
      2 CA        -27.7071  -13.2941  -21.4244 C.3       5 GLY6        0.0000 
      3 CZ        -27.5712  -14.4048  -20.4255 C.ar      4 PHE5        0.0000 
      4 CZ        -27.4353  -15.5156  -19.4266 C.ar      4 PHE5        0.0000 
      5 CZ        -27.2994  -16.6263  -18.4277 C.ar      4 PHE5        0.0000 
      6 N         -28.2993  -15.3299  -21.3551 N.2       2 ALA2        0.0000 
      7 N         -28.1635  -16.4406  -20.3562 N.2       2 ALA2        0.0000 
      8 DU        -28.0276  -17.5513  -19.3573 H         6 CUB7        0.0000 
      9 O         -28.8916  -17.3656  -21.2857 O.2       2 ALA2        0.0000 
     10 DU        -28.7557  -18.4764  -20.2868 H         6 CUB7        0.0000 
     11 O         -29.4839  -19.4014  -21.2164 O.2       2 ALA2        0.0000 
     12 CZ        -26.4027  -13.6948  -22.0474 C.ar      4 PHE5        0.0000 
     13 CZ        -26.1310  -15.9162  -20.0496 C.ar      4 PHE5        0.0000 
     14 CZ        -25.9951  -17.0270  -19.0507 C.ar      4 PHE5        0.0000 
     15 N         -26.9950  -15.7306  -21.9781 N.2       2 ALA2        0.0000 
     16 N         -26.8591  -16.8413  -20.9792 N.2       2 ALA2        0.0000 
     17 CZ        -26.7232  -17.9520  -19.9803 C.ar      4 PHE5        0.0000 
     18 N         -26.5874  -19.0628  -18.9814 N.2       2 ALA2        0.0000 
     19 N         -27.5873  -17.7663  -21.9087 N.2       2 ALA2        0.0000 
     20 N         -27.4514  -18.8771  -20.9098 N.2       2 ALA2        0.0000 
     21 N         -27.3155  -19.9878  -19.9109 N.2       2 ALA2        0.0000 
     22 O         -28.3154  -18.6914  -22.8383 O.2       2 ALA2        0.0000 
     23 N         -28.1795  -19.8021  -21.8394 N.2       2 ALA2        0.0000 
     24 N         -28.0436  -20.9129  -20.8405 N.2       2 ALA2        0.0000 
     25 N         -27.9078  -22.0236  -19.8416 N.2       2 ALA2        0.0000 
     26 O         -29.0436  -19.6164  -23.7679 O.2       2 ALA2        0.0000 
     27 O         -28.9077  -20.7272  -22.7690 O.2       2 ALA2        0.0000 
     28 N         -28.7718  -21.8379  -21.7701 N.2       2 ALA2        0.0000 
     29 NZ        -25.0984  -14.0955  -22.6704 N.2       3 LYS4        0.0000 
     30 CZ        -24.9625  -15.2062  -21.6715 C.ar      4 PHE5        0.0000 
     31 CZ        -24.8266  -16.3169  -20.6726 C.ar      4 PHE5        0.0000 
     32 NZ        -25.8265  -15.0205  -23.5999 N.2       3 LYS4        0.0000 
     33 N         -25.6906  -16.1312  -22.6010 N.2       2 ALA2        0.0000 
     34 CA        -25.5548  -17.2420  -21.6021 C.3       5 GLY6        0.0000 
     35 N         -26.4188  -17.0563  -23.5306 N.2       2 ALA2        0.0000 
     36 CA        -26.2829  -18.1670  -22.5317 C.3       5 GLY6        0.0000 
     37 CA        -26.1470  -19.2778  -21.5328 C.3       5 GLY6        0.0000 
     38 N         -27.2828  -16.8706  -25.4591 N.2       2 ALA2        0.0000 
     39 N         -27.1469  -17.9813  -24.4602 N.2       2 ALA2        0.0000 
     40 CA        -27.0111  -19.0921  -23.4613 C.3       5 GLY6        0.0000 
     41 N         -26.8752  -20.2028  -22.4624 N.2       2 ALA2        0.0000 
     42 CA        -28.0110  -17.7956  -26.3886 C.3       5 GLY6        0.0000 
     43 NZ        -27.8751  -18.9064  -25.3897 N.2       3 LYS4        0.0000 
     44 CA        -27.7392  -20.0171  -24.3908 C.3       5 GLY6        0.0000 
     45 CZ        -23.0659  -13.5711  -22.3638 C.ar      4 PHE5        0.0000 
     46 NZ        -23.7940  -14.4961  -23.2933 N.2       3 LYS4        0.0000 
     47 CZ        -23.6581  -15.6069  -22.2945 C.ar      4 PHE5        0.0000 
     48 NZ        -24.5222  -15.4212  -24.2229 N.2       3 LYS4        0.0000 
     49 DU        -24.3863  -16.5319  -23.2240 H         6 CUB7        0.0000 
     50 CA        -24.2504  -17.6427  -22.2251 C.3       5 GLY6        0.0000 
     51 CA        -25.2503  -16.3462  -25.1525 C.3       5 GLY6        0.0000 
     52 CA        -25.1144  -17.4570  -24.1536 C.3       5 GLY6        0.0000 
     53 CA        -24.9786  -18.5677  -23.1547 C.3       5 GLY6        0.0000 
     54 CA        -25.9785  -17.2713  -26.0820 C.3       5 GLY6        0.0000 
     55 CA        -25.8426  -18.3820  -25.0832 C.3       5 GLY6        0.0000 
     56 CA        -25.7067  -19.4928  -24.0843 C.3       5 GLY6        0.0000 
     57 CA        -25.5708  -20.6035  -23.0854 C.3       5 GLY6        0.0000 
     58 CA        -26.7066  -18.1963  -27.0116 C.3       5 GLY6        0.0000 
     59 CA        -26.5707  -19.3071  -26.0127 C.3       5 GLY6        0.0000 
     60 CA        -26.4348  -20.4178  -25.0138 C.3       5 GLY6        0.0000 
     61 OG        -21.7615  -13.9718  -22.9868 O.2       1 SER1        0.0000 
     62 CZ        -21.6256  -15.0825  -21.9879 C.ar      4 PHE5        0.0000 
     63 N         -22.4897  -14.8968  -23.9163 N.2       2 ALA2        0.0000 
     64 CZ        -22.3538  -16.0076  -22.9174 C.ar      4 PHE5        0.0000 
     65 CA        -23.2178  -15.8219  -24.8459 C.3       5 GLY6        0.0000 
     66 CA        -23.0819  -16.9326  -23.8470 C.3       5 GLY6        0.0000 
     67 CA        -22.9461  -18.0434  -22.8481 C.3       5 GLY6        0.0000 
     68 N         -23.6742  -18.9684  -23.7777 N.2       2 ALA2        0.0000 
     69 CA        -24.5382  -18.7827  -25.7061 C.3       5 GLY6        0.0000 
     70 CA        -24.4023  -19.8934  -24.7072 C.3       5 GLY6        0.0000 
     71 OG        -19.7290  -13.4474  -22.6802 O.2       1 SER1        0.0000 
     72 N         -19.5931  -14.5582  -21.6813 N.2       2 ALA2        0.0000 
     73 OG        -20.4572  -14.3725  -23.6098 O.2       1 SER1        0.0000 
     74 N         -21.0494  -16.4083  -23.5404 N.2       2 ALA2        0.0000 
     75 CA        -30.3158  -12.4927  -20.1784 C.3       5 GLY6        0.0000 
     76 O         -30.1799  -13.6034  -19.1795 O.2       2 ALA2        0.0000 
     77 CA        -30.0440  -14.7142  -18.1806 C.3       5 GLY6        0.0000 
     78 N         -31.0439  -13.4177  -21.1080 N.2       2 ALA2        0.0000 
     79 DU        -30.9081  -14.5285  -20.1091 H         6 CUB7        0.0000 
     80 O         -28.0115  -14.1898  -17.8741 O.2       2 ALA2        0.0000 
     81 N         -27.8756  -15.3006  -16.8752 N.2       2 ALA2        0.0000 
     82 N         -27.7398  -16.4113  -15.8763 N.2       2 ALA2        0.0000 
     83 CA        -29.0114  -12.8934  -20.8014 C.3       5 GLY6        0.0000 
     84 CZ        -28.8756  -14.0041  -19.8025 C.ar      4 PHE5        0.0000 
     85 CZ        -28.7397  -15.1149  -18.8036 C.ar      4 PHE5        0.0000 
     86 N         -28.6038  -16.2256  -17.8047 N.2       2 ALA2        0.0000 
     87 N         -29.7396  -13.8184  -21.7310 N.2       2 ALA2        0.0000 
     88 N         -29.6037  -14.9292  -20.7321 N.2       2 ALA2        0.0000 
     89 DU        -29.4678  -16.0399  -19.7332 H         6 CUB7        0.0000 
     90 O         -30.1960  -16.9650  -20.6628 O.2       2 ALA2        0.0000 
     91 OG        -31.6201  -12.0920  -19.5554 O.2       1 SER1        0.0000 
@<TRIPOS>BOND
@<TRIPOS>SUBSTRUCTURE
     1 SER1       61 GROUP   
     2 ALA2        6 GROUP   
     3 LYS4       29 GROUP   
     4 PHE5        3 GROUP   
     5 GLY6        1 GROUP   
     6 CUB7        8 GROUP   
@<TRIPOS>SET

