#    Name: 4gek_GEK_1_INTS_M
#    Modification time : Mon Mar 24 22:00:35 2014

@<TRIPOS>MOLECULE
4gek_GEK_1_INTS_M
   89     0    12     0     0
SMALL
NO_CHARGES


@<TRIPOS>ATOM
      1 O         -19.5630  -13.8100  -26.9170 O.2       1 ALC1        0.0000 
      2 O         -18.1450  -13.5140  -26.8690 O.2       9 ALL1        0.0000 
      3 O         -20.9810  -14.1060  -26.9650 O.2       5 ALP1        0.0000 
      4 O         -17.5275  -14.5660  -26.1515 O.2       1 ALC1        0.0000 
      5 O         -16.9100  -15.6180  -25.4340 O.2       5 ALP1        0.0000 
      6 O         -18.1140  -12.4310  -27.9650 O.2       1 ALC1        0.0000 
      7 O         -18.0830  -11.3480  -29.0610 O.2       5 ALP1        0.0000 
      8 N         -15.5660   -9.8740  -25.4040 N.am      2 SEC2        0.0000 
      9 N         -16.7090  -10.4760  -25.5610 N.am     10 SEL2        0.0000 
     10 N         -14.4230   -9.2720  -25.2470 N.am      6 SEP2        0.0000 
     11 N         -28.0380  -18.9770  -27.8740 N.am      2 SEC2        0.0000 
     12 N         -27.7030  -18.2510  -26.5550 N.am     10 SEL2        0.0000 
     13 N         -28.3730  -19.7030  -29.1930 N.am      6 SEP2        0.0000 
     14 CA        -27.0940  -15.2265  -27.4830 C.3       4 GLC5        0.0000 
     15 CA        -27.2110  -16.9910  -26.9780 C.3      12 GLL5        0.0000 
     16 CA        -26.9770  -13.4620  -27.9880 C.3       8 GLP5        0.0000 
     17 CA        -28.8065  -16.3295  -26.3000 C.3       4 GLC5        0.0000 
     18 CA        -30.4020  -15.6680  -25.6220 C.3       8 GLP5        0.0000 
     19 CA        -28.8835  -17.8950  -27.8245 C.3       4 GLC5        0.0000 
     20 CA        -30.5560  -18.7990  -28.6710 C.3       8 GLP5        0.0000 
     21 CA        -26.3475  -17.8880  -28.3225 C.3       4 GLC5        0.0000 
     22 CA        -25.4840  -18.7850  -29.6670 C.3       8 GLP5        0.0000 
     23 N         -27.5455  -15.2105  -26.2770 N.am      2 SEC2        0.0000 
     24 N         -26.3850  -16.2840  -26.0900 N.am     10 SEL2        0.0000 
     25 N         -28.7060  -14.1370  -26.4640 N.am      6 SEP2        0.0000 
     26 CA        -24.5190  -16.1430  -26.1805 C.3       4 GLC5        0.0000 
     27 CA        -26.1460  -16.8300  -24.8750 C.3      12 GLL5        0.0000 
     28 CA        -22.8920  -15.4560  -27.4860 C.3       8 GLP5        0.0000 
     29 CA        -28.2740  -16.2490  -25.2485 C.3       4 GLC5        0.0000 
     30 CA        -28.9325  -17.2115  -25.4845 C.3       4 GLC5        0.0000 
     31 CA        -27.4630  -18.7550  -25.3470 C.3      12 GLL5        0.0000 
     32 CA        -26.6400  -19.7520  -26.7335 C.3       4 GLC5        0.0000 
     33 CA        -25.8170  -20.7490  -28.1200 C.3       8 GLP5        0.0000 
     34 CA        -26.7375  -20.7795  -24.8270 C.3       4 GLC5        0.0000 
     35 CA        -26.0120  -22.8040  -24.3070 C.3       8 GLP5        0.0000 
     36 O         -28.9730  -20.6135  -26.0195 O.2       1 ALC1        0.0000 
     37 O         -27.9940  -20.0390  -25.0300 O.2       9 ALL1        0.0000 
     38 O         -29.9520  -21.1880  -27.0090 O.2       5 ALP1        0.0000 
     39 CA        -17.2770  -12.8845  -20.5620 C.3       4 GLC5        0.0000 
     40 CA        -18.6830  -14.1440  -21.5660 C.3      12 GLL5        0.0000 
     41 CA        -15.8710  -11.6250  -19.5580 C.3       8 GLP5        0.0000 
     42 CA        -17.3405  -15.3435  -22.0740 C.3       4 GLC5        0.0000 
     43 CA        -15.9980  -16.5430  -22.5820 C.3       8 GLP5        0.0000 
     44 CA        -19.6875  -15.6635  -20.7290 C.3       4 GLC5        0.0000 
     45 CA        -20.6920  -17.1830  -19.8920 C.3       8 GLP5        0.0000 
     46 CA        -23.7430  -15.2875  -25.6615 C.3       4 GLC5        0.0000 
     47 CA        -24.5940  -15.1190  -23.8370 C.3      12 GLL5        0.0000 
     48 CA        -24.6125  -14.1655  -20.8700 C.3       4 GLC5        0.0000 
     49 CA        -24.7390  -14.2170  -22.6540 C.3      12 GLL5        0.0000 
     50 CA        -24.4860  -14.1140  -19.0860 C.3       8 GLP5        0.0000 
     51 O         -26.2310  -13.0045  -23.9360 O.2       1 ALC1        0.0000 
     52 O         -25.8990  -13.4760  -22.7810 O.2       9 ALL1        0.0000 
     53 O         -26.5630  -12.5330  -25.0910 O.2       5 ALP1        0.0000 
     54 N         -22.3390  -11.7585  -23.8230 N.am      2 SEC2        0.0000 
     55 N         -23.5780  -12.1950  -23.3960 N.am     10 SEL2        0.0000 
     56 N         -21.1000  -11.3220  -24.2500 N.am      6 SEP2        0.0000 
     57 O         -24.0595  -12.3380  -24.6275 O.2       1 ALC1        0.0000 
     58 O         -23.5780  -12.1950  -23.3960 O.2       9 ALL1        0.0000 
     59 O         -24.5410  -12.4810  -25.8590 O.2       5 ALP1        0.0000 
     60 O         -25.0705  -12.3640  -24.2435 O.2       1 ALC1        0.0000 
     61 CA        -22.6900  -14.9355  -25.4840 C.3       4 GLC5        0.0000 
     62 CA        -22.4880  -14.4150  -23.4820 C.3      12 GLL5        0.0000 
     63 CA        -20.9850  -16.0130  -21.2720 C.3       4 GLC5        0.0000 
     64 CA        -21.2780  -14.8430  -22.6520 C.3      12 GLL5        0.0000 
     65 N         -14.7190  -13.0150  -26.6935 N.am      2 SEC2        0.0000 
     66 N         -15.8680  -12.2060  -26.7320 N.am     10 SEL2        0.0000 
     67 N         -13.5700  -13.8240  -26.6550 N.am      6 SEP2        0.0000 
     68 NZ        -18.8335  -13.8600  -18.0200 N.4       3 LYC4        0.0000 
     69 NZ        -19.9770  -13.4100  -19.6530 N.4      11 LYL4        0.0000 
     70 NZ        -18.3530  -13.3800  -16.2420 N.4       7 LYP4        0.0000 
     71 N         -19.7770  -13.2245  -18.1800 N.am      2 SEC2        0.0000 
     72 N         -19.9770  -13.4100  -19.6530 N.am     10 SEL2        0.0000 
     73 N         -19.5770  -13.0390  -16.7070 N.am      6 SEP2        0.0000 
     74 NZ        -17.8190  -14.3650  -18.1630 N.4       3 LYC4        0.0000 
     75 NZ        -18.0900  -14.6810  -19.3330 N.4      11 LYL4        0.0000 
     76 N         -18.8335  -13.8600  -18.0200 N.am      2 SEC2        0.0000 
     77 N         -18.0900  -14.6810  -19.3330 N.am     10 SEL2        0.0000 
     78 N         -17.8190  -14.3650  -18.1630 N.am      2 SEC2        0.0000 
     79 N         -17.5480  -14.0490  -16.9930 N.am      6 SEP2        0.0000 
     80 CA        -19.5460  -11.2927  -25.0650 C.3       4 GLC5        0.0000 
     81 CA        -18.1420  -12.7390  -24.4670 C.3      12 GLL5        0.0000 
     82 CA        -21.0110  -10.0510  -24.9290 C.3       8 GLP5        0.0000 
     83 CA        -18.7235  -11.6710  -23.0315 C.3       4 GLC5        0.0000 
     84 CA        -18.7170  -10.1180  -21.7100 C.3       8 GLP5        0.0000 
     85 CA        -19.0343  -11.9767  -21.8848 C.3       4 GLC5        0.0000 
     86 CA        -20.0200  -13.5270  -22.5530 C.3      12 GLL5        0.0000 
     87 CA        -20.3400  -11.8345  -24.1625 C.3       4 GLC5        0.0000 
     88 CA        -22.6560  -14.0104  -20.9982 C.3       4 GLC5        0.0000 
     89 CA        -23.1990  -13.6370  -19.1150 C.3       8 GLP5        0.0000 
@<TRIPOS>BOND
@<TRIPOS>SUBSTRUCTURE
     1 ALC1        1 GROUP        1 X    ALC  0     ROOT ALC X 1
     2 SEC2        8 GROUP        1 X    SEC  0     **** SEC X 2
     3 LYC4       68 GROUP        1 X    LYC  0     **** LYC X 4
     4 GLC5       14 GROUP        1 X    GLC  0     **** GLC X 6
     5 ALP1        3 GROUP        1 Y    ALP  0     ROOT ALP Y 8
     6 SEP2       10 GROUP        1 Y    SEP  0     **** SEP Y 9
     7 LYP4       70 GROUP        1 Y    LYP  0     **** LYP Y 11
     8 GLP5       16 GROUP        1 Y    GLP  0     **** GLP Y 13
     9 ALL1        2 GROUP        1 Z    ALL  0     ROOT ALL Z 15
    10 SEL2        9 GROUP        1 Z    SEL  0     **** SEL Z 16
    11 LYL4       69 GROUP        1 Z    LYL  0     **** LYL Z 18
    12 GLL5       15 GROUP        1 Z    GLL  0     **** GLL Z 20
@<TRIPOS>SET

