#    Name: 4gek_GEK_1_ligand
#    Modification time : Mon Mar 24 22:00:35 2014

@<TRIPOS>MOLECULE
4gek_GEK_1_ligand
   52    54     1     0     0
SMALL
NO_CHARGES


@<TRIPOS>ATOM
      1 C         -16.6980  -11.6160  -26.1080 C.2       1 GEK302      0.0000 
      2 N         -18.1450  -13.5140  -26.8690 N.4       1 GEK302      0.0000 
      3 O         -16.7090  -10.4760  -25.5610 O.co2     1 GEK302      0.0000 
      4 N1        -27.7030  -18.2510  -26.5550 N.ar      1 GEK302      0.0000 
      5 C2        -27.2110  -16.9910  -26.9780 C.ar      1 GEK302      0.0000 
      6 N3        -26.3850  -16.2840  -26.0900 N.ar      1 GEK302      0.0000 
      7 C4        -26.1460  -16.8300  -24.8750 C.ar      1 GEK302      0.0000 
      8 C5        -26.6570  -18.0570  -24.4600 C.ar      1 GEK302      0.0000 
      9 C6        -27.4630  -18.7550  -25.3470 C.ar      1 GEK302      0.0000 
     10 N6        -27.9940  -20.0390  -25.0300 N.pl3     1 GEK302      0.0000 
     11 N7        -26.2840  -18.3210  -23.1900 N.2       1 GEK302      0.0000 
     12 C8        -25.5170  -17.2740  -22.7400 C.2       1 GEK302      0.0000 
     13 N9        -25.4390  -16.3450  -23.7910 N.pl3     1 GEK302      0.0000 
     14 CA        -18.0200  -12.3300  -25.9350 C.3       1 GEK302      0.0000 
     15 CB        -18.1420  -12.7390  -24.4670 C.3       1 GEK302      0.0000 
     16 SD        -20.0200  -13.5270  -22.5530 S.3       1 GEK302      0.0000 
     17 CE        -18.6830  -14.1440  -21.5660 C.3       1 GEK302      0.0000 
     18 CG        -19.3180  -13.7090  -24.2390 C.3       1 GEK302      0.0000 
     19 CZ        -18.9870  -14.1180  -20.1040 C.2       1 GEK302      0.0000 
     20 C1'       -24.5940  -15.1190  -23.8370 C.3       1 GEK302      0.0000 
     21 C2'       -24.7390  -14.2170  -22.6540 C.3       1 GEK302      0.0000 
     22 O2'       -25.8990  -13.4760  -22.7810 O.3       1 GEK302      0.0000 
     23 C3'       -23.4080  -13.4340  -22.7400 C.3       1 GEK302      0.0000 
     24 O3'       -23.5780  -12.1950  -23.3960 O.3       1 GEK302      0.0000 
     25 C4'       -22.4880  -14.4150  -23.4820 C.3       1 GEK302      0.0000 
     26 O4'       -23.2500  -15.5890  -23.7720 O.3       1 GEK302      0.0000 
     27 C5'       -21.2780  -14.8430  -22.6520 C.3       1 GEK302      0.0000 
     28 OXT       -15.8680  -12.2060  -26.7320 O.co2     1 GEK302      0.0000 
     29 OZ1       -19.9770  -13.4100  -19.6530 O.co2     1 GEK302      0.0000 
     30 OZ2       -18.0900  -14.6810  -19.3330 O.co2     1 GEK302      0.0000 
     31 H         -27.4484  -16.6225  -27.8820 H         1 GEK302      0.0000 
     32 H         -28.4760  -20.5104  -25.7685 H         1 GEK302      0.0000 
     33 H         -27.8399  -20.3604  -24.0957 H         1 GEK302      0.0000 
     34 H         -25.1141  -17.1798  -21.8959 H         1 GEK302      0.0000 
     35 H         -18.8172  -11.6200  -26.1473 H         1 GEK302      0.0000 
     36 H         -18.2955  -11.8486  -23.8550 H         1 GEK302      0.0000 
     37 H         -17.2178  -13.2242  -24.1487 H         1 GEK302      0.0000 
     38 H         -17.8612  -13.5029  -21.8501 H         1 GEK302      0.0000 
     39 H         -18.5342  -15.1384  -21.9609 H         1 GEK302      0.0000 
     40 H         -19.0337  -14.7342  -24.2525 H         1 GEK302      0.0000 
     41 H         -20.1621  -13.5078  -24.8547 H         1 GEK302      0.0000 
     42 H         -24.7533  -14.5839  -24.7352 H         1 GEK302      0.0000 
     43 H         -24.6822  -14.8364  -21.7819 H         1 GEK302      0.0000 
     44 H         -23.0404  -13.3506  -21.7327 H         1 GEK302      0.0000 
     45 H         -22.1460  -13.9518  -24.3854 H         1 GEK302      0.0000 
     46 H         -21.5034  -15.0168  -21.6218 H         1 GEK302      0.0000 
     47 H         -20.7256  -15.6504  -23.0824 H         1 GEK302      0.0000 
     48 H         -19.0192  -13.9861  -26.7553 H         1 GEK302      0.0000 
     49 H         -18.0833  -13.2384  -27.8283 H         1 GEK302      0.0000 
     50 H         -17.4245  -14.1893  -26.7111 H         1 GEK302      0.0000 
     51 H         -25.9401  -13.2234  -23.7477 H         1 GEK302      0.0000 
     52 H         -23.9455  -12.4274  -24.2965 H         1 GEK302      0.0000 
@<TRIPOS>BOND
     1    3    1 ar   
     2   14    1 1    
     3   28    1 ar   
     4   14    2 1    
     5   48    2 1    
     6   49    2 1    
     7   50    2 1    
     8    5    4 ar   
     9    9    4 ar   
    10    6    5 ar   
    11   31    5 1    
    12    7    6 ar   
    13    8    7 ar   
    14   13    7 1    
    15    9    8 ar   
    16   11    8 1    
    17   10    9 1    
    18   32   10 1    
    19   33   10 1    
    20   12   11 2    
    21   13   12 1    
    22   34   12 1    
    23   20   13 1    
    24   15   14 1    
    25   35   14 1    
    26   18   15 1    
    27   36   15 1    
    28   37   15 1    
    29   17   16 1    
    30   18   16 1    
    31   27   16 1    
    32   19   17 1    
    33   38   17 1    
    34   39   17 1    
    35   40   18 1    
    36   41   18 1    
    37   29   19 ar   
    38   30   19 ar   
    39   21   20 1    
    40   26   20 1    
    41   42   20 1    
    42   22   21 1    
    43   23   21 1    
    44   43   21 1    
    45   51   22 1    
    46   24   23 1    
    47   25   23 1    
    48   44   23 1    
    49   52   24 1    
    50   26   25 1    
    51   27   25 1    
    52   45   25 1    
    53   46   27 1    
    54   47   27 1    
@<TRIPOS>SUBSTRUCTURE
     1 GEK302      1 GROUP   
@<TRIPOS>SET

