#    Name: 4nks_2M2_2_INTS_M
#    Modification time : Tue Mar 25 13:14:31 2014

@<TRIPOS>MOLECULE
4nks_2M2_2_INTS_M
   67     0     9     0     0
SMALL
NO_CHARGES


@<TRIPOS>ATOM
      1 CA         31.8810    0.7590   20.4790 C.3       3 GLC5        0.0000 
      2 CA         32.0040    2.7200   20.2210 C.3       9 GLL5        0.0000 
      3 CA         31.7580   -1.2020   20.7370 C.3       6 GLP5        0.0000 
      4 CA         31.0510    2.2840   18.4645 C.3       3 GLC5        0.0000 
      5 CA         30.0980    1.8480   16.7080 C.3       6 GLP5        0.0000 
      6 CA         31.5115    0.6315   21.7455 C.3       3 GLC5        0.0000 
      7 CA         31.2650    2.4650   22.7540 C.3       9 GLL5        0.0000 
      8 CA         28.6430    2.0775   26.3525 C.3       3 GLC5        0.0000 
      9 CA         29.7940    2.7880   24.8620 C.3       9 GLL5        0.0000 
     10 CA         27.4920    1.3670   27.8430 C.3       6 GLP5        0.0000 
     11 CA         29.9510    3.8955   26.5170 C.3       3 GLC5        0.0000 
     12 CA         30.1080    5.0030   28.1720 C.3       6 GLP5        0.0000 
     13 CA         27.8130    3.2445   24.8970 C.3       3 GLC5        0.0000 
     14 CA         25.8320    3.7010   24.9320 C.3       6 GLP5        0.0000 
     15 CA         28.9675    0.9425   26.6570 C.3       3 GLC5        0.0000 
     16 CA         30.4430    0.5180   25.4710 C.3       9 GLL5        0.0000 
     17 CA         27.5715   -0.6820   25.6235 C.3       3 GLC5        0.0000 
     18 CA         29.1540   -1.1940   24.6560 C.3       9 GLL5        0.0000 
     19 CA         25.9890   -0.1700   26.5910 C.3       6 GLP5        0.0000 
     20 O          28.3310   -3.1250   23.7220 O.2       1 ALC1        0.0000 
     21 O          28.1160   -1.6260   23.8920 O.2       7 ALL1        0.0000 
     22 O          28.5460   -4.6240   23.5520 O.2       4 ALP1        0.0000 
     23 CA         26.6900    0.0855   24.5140 C.3       3 GLC5        0.0000 
     24 CA         27.3910    0.3410   22.4370 C.3       9 GLL5        0.0000 
     25 CA         26.6115    2.0210   23.6845 C.3       3 GLC5        0.0000 
     26 CA         25.5355    0.8320   18.5630 C.3       3 GLC5        0.0000 
     27 CA         26.1430    1.4590   20.4440 C.3       9 GLL5        0.0000 
     28 CA         24.9280    0.2050   16.6820 C.3       6 GLP5        0.0000 
     29 CA         27.8440    0.3860   20.1320 C.3       3 GLC5        0.0000 
     30 CA         29.5450   -0.6870   19.8200 C.3       6 GLP5        0.0000 
     31 CA         25.9985    3.2310   23.0690 C.3       3 GLC5        0.0000 
     32 CA         26.1650    2.7610   21.2060 C.3       9 GLL5        0.0000 
     33 CA         23.5010    5.9695   16.7175 C.3       3 GLC5        0.0000 
     34 CA         24.0890    5.5220   18.7570 C.3       9 GLL5        0.0000 
     35 CA         22.9130    6.4170   14.6780 C.3       6 GLP5        0.0000 
     36 CA         22.7300    4.1420   18.2140 C.3       3 GLC5        0.0000 
     37 CA         21.3710    2.7620   17.6710 C.3       6 GLP5        0.0000 
     38 CA         23.7490    2.2460   21.8670 C.3       3 GLC5        0.0000 
     39 CA         24.1130    4.0970   20.6790 C.3       9 GLL5        0.0000 
     40 CA         23.3850    0.3950   23.0550 C.3       6 GLP5        0.0000 
     41 O          24.9910   -1.4170   20.5065 O.2       1 ALC1        0.0000 
     42 O          26.1690   -0.9250   21.1080 O.2       7 ALL1        0.0000 
     43 O          23.8130   -1.9090   19.9050 O.2       4 ALP1        0.0000 
     44 N          26.4195   -3.0950   21.9555 N.am      2 SEC2        0.0000 
     45 N          26.7260   -1.7520   22.0660 N.am      8 SEL2        0.0000 
     46 N          26.1130   -4.4380   21.8450 N.am      5 SEP2        0.0000 
     47 CA         28.8143   -1.4690   27.1857 C.3       3 GLC5        0.0000 
     48 CA         29.8690   -2.1380   25.4150 C.3       9 GLL5        0.0000 
     49 CA         27.2470   -1.0480   28.5610 C.3       6 GLP5        0.0000 
     50 CA         31.6923   -3.0105   24.9982 C.3       3 GLC5        0.0000 
     51 CA         33.0030   -4.1310   24.1860 C.3       6 GLP5        0.0000 
     52 CA         25.1860    0.3668   22.4733 C.3       3 GLC5        0.0000 
     53 CA         28.2660   -0.1743   20.8558 C.3       3 GLC5        0.0000 
     54 CA         26.5830    0.3360   21.3460 C.3       9 GLL5        0.0000 
     55 CA         24.7695    1.2525   21.9400 C.3       3 GLC5        0.0000 
     56 CA         24.4330    1.8320   20.0765 C.3       3 GLC5        0.0000 
     57 CA         22.7120    1.5540   19.3280 C.3       6 GLP5        0.0000 
     58 CA         24.2287    2.7850   19.5688 C.3       3 GLC5        0.0000 
     59 CA         25.4240    3.7460   20.3560 C.3       9 GLL5        0.0000 
     60 CA         25.3502    6.8384   19.4969 C.3       3 GLC5        0.0000 
     61 CA         25.7910    8.5500   20.1820 C.3       6 GLP5        0.0000 
     62 CA         21.8970    5.9007   18.7530 C.3       3 GLC5        0.0000 
     63 CA         20.0290    6.5440   18.2000 C.3       6 GLP5        0.0000 
     64 CA         23.6474    5.8676   21.1051 C.3       3 GLC5        0.0000 
     65 CA         23.4410    4.9930   19.8550 C.3       9 GLL5        0.0000 
     66 CA         23.1900    7.2780   22.0240 C.3       6 GLP5        0.0000 
     67 CA         23.2445    3.0495   19.7975 C.3       3 GLC5        0.0000 
@<TRIPOS>BOND
@<TRIPOS>SUBSTRUCTURE
     1 ALC1       20 GROUP        1 X    ALC  0     ROOT ALC X 1
     2 SEC2       44 GROUP        1 X    SEC  0     **** SEC X 2
     3 GLC5        1 GROUP        1 X    GLC  0     **** GLC X 6
     4 ALP1       22 GROUP        1 Y    ALP  0     ROOT ALP Y 8
     5 SEP2       46 GROUP        1 Y    SEP  0     **** SEP Y 9
     6 GLP5        3 GROUP        1 Y    GLP  0     **** GLP Y 13
     7 ALL1       21 GROUP        1 Z    ALL  0     ROOT ALL Z 15
     8 SEL2       45 GROUP        1 Z    SEL  0     **** SEL Z 16
     9 GLL5        2 GROUP        1 Z    GLL  0     **** GLL Z 20
@<TRIPOS>SET

