#    Name: 4nks_2M2_2_ligand
#    Modification time : Tue Mar 25 13:14:31 2014

@<TRIPOS>MOLECULE
4nks_2M2_2_ligand
   49    52     1     0     0
SMALL
NO_CHARGES


@<TRIPOS>ATOM
      1 C1         32.0040    2.7200   20.2210 C.3       1 2M2801      0.0000 
      2 C2         31.0970    2.9200   21.4130 C.2       1 2M2801      0.0000 
      3 C3         31.2650    2.4650   22.7540 C.2       1 2M2801      0.0000 
      4 C4         30.1740    2.9480   23.4170 C.2       1 2M2801      0.0000 
      5 C5         29.7940    2.7880   24.8620 C.3       1 2M2801      0.0000 
      6 N6         30.7280    1.8590   25.5010 N.pl3     1 2M2801      0.0000 
      7 C7         30.4430    0.5180   25.4710 C.ar      1 2M2801      0.0000 
      8 N8         31.1490   -0.3180   26.2110 N.ar      1 2M2801      0.0000 
      9 C9         30.8940   -1.6420   26.2060 C.ar      1 2M2801      0.0000 
     10 C10        29.8690   -2.1380   25.4150 C.ar      1 2M2801      0.0000 
     11 C11        29.1540   -1.1940   24.6560 C.ar      1 2M2801      0.0000 
     12 N12        28.1160   -1.6260   23.8920 N.pl3     1 2M2801      0.0000 
     13 C13        27.4530   -1.0090   22.8510 C.2       1 2M2801      0.0000 
     14 C14        27.3910    0.3410   22.4370 C.2       1 2M2801      0.0000 
     15 C15        26.5830    0.3360   21.3460 C.2       1 2M2801      0.0000 
     16 C16        26.1430    1.4590   20.4440 C.3       1 2M2801      0.0000 
     17 C17        26.1650    2.7610   21.2060 C.3       1 2M2801      0.0000 
     18 C18        25.4240    3.7460   20.3560 C.ar      1 2M2801      0.0000 
     19 C19        26.0670    4.2860   19.2630 C.ar      1 2M2801      0.0000 
     20 C20        25.3930    5.1770   18.4700 C.ar      1 2M2801      0.0000 
     21 C21        24.0890    5.5220   18.7570 C.ar      1 2M2801      0.0000 
     22 C22        23.4410    4.9930   19.8550 C.ar      1 2M2801      0.0000 
     23 C23        24.1130    4.0970   20.6790 C.ar      1 2M2801      0.0000 
     24 N24        26.1690   -0.9250   21.1080 N.pl3     1 2M2801      0.0000 
     25 N26        26.7260   -1.7520   22.0660 N.2       1 2M2801      0.0000 
     26 N27        29.4460    0.0870   24.7090 N.ar      1 2M2801      0.0000 
     27 O28        29.4350    3.5970   22.5010 O.3       1 2M2801      0.0000 
     28 N29        29.9830    3.5820   21.4030 N.2       1 2M2801      0.0000 
     29 H          31.9692    1.9579   23.0667 H         1 2M2801      0.0000 
     30 H          28.7732    2.4070   24.9213 H         1 2M2801      0.0000 
     31 H          29.8297    3.7637   25.3494 H         1 2M2801      0.0000 
     32 H          31.5524    2.2397   25.9431 H         1 2M2801      0.0000 
     33 H          31.4486   -2.2966   26.7814 H         1 2M2801      0.0000 
     34 H          29.6427   -3.1122   25.3793 H         1 2M2801      0.0000 
     35 H          27.7351   -2.6378   24.1401 H         1 2M2801      0.0000 
     36 H          27.8234    1.0544   22.8471 H         1 2M2801      0.0000 
     37 H          25.1338    1.2651   20.0854 H         1 2M2801      0.0000 
     38 H          26.8151    1.5264   19.5905 H         1 2M2801      0.0000 
     39 H          27.1806    3.0820   21.3443 H         1 2M2801      0.0000 
     40 H          25.6658    2.6368   22.1489 H         1 2M2801      0.0000 
     41 H          27.0359    4.0222   19.0496 H         1 2M2801      0.0000 
     42 H          25.8634    5.5973   17.6469 H         1 2M2801      0.0000 
     43 H          23.5873    6.1887   18.1392 H         1 2M2801      0.0000 
     44 H          22.4717    5.2558   20.0653 H         1 2M2801      0.0000 
     45 H          23.6596    3.7041   21.5014 H         1 2M2801      0.0000 
     46 H          25.5895   -1.2177   20.4028 H         1 2M2801      0.0000 
     47 H          32.9107    3.1130   20.3741 H         1 2M2801      0.0000 
     48 H          32.1359    1.7508   20.0132 H         1 2M2801      0.0000 
     49 H          31.6341    3.1488   19.3968 H         1 2M2801      0.0000 
@<TRIPOS>BOND
     1    2    1 1    
     2   47    1 1    
     3   48    1 1    
     4   49    1 1    
     5    3    2 1    
     6   28    2 2    
     7    4    3 2    
     8   29    3 1    
     9    5    4 1    
    10   27    4 1    
    11    6    5 1    
    12   30    5 1    
    13   31    5 1    
    14    7    6 1    
    15   32    6 1    
    16    8    7 ar   
    17   26    7 ar   
    18    9    8 ar   
    19   10    9 ar   
    20   33    9 1    
    21   11   10 ar   
    22   34   10 1    
    23   12   11 1    
    24   26   11 ar   
    25   13   12 1    
    26   35   12 1    
    27   14   13 1    
    28   25   13 2    
    29   15   14 2    
    30   36   14 1    
    31   16   15 1    
    32   24   15 1    
    33   17   16 1    
    34   37   16 1    
    35   38   16 1    
    36   18   17 1    
    37   39   17 1    
    38   40   17 1    
    39   19   18 ar   
    40   23   18 ar   
    41   20   19 ar   
    42   41   19 1    
    43   21   20 ar   
    44   42   20 1    
    45   22   21 ar   
    46   43   21 1    
    47   23   22 ar   
    48   44   22 1    
    49   45   23 1    
    50   25   24 1    
    51   46   24 1    
    52   28   27 1    
@<TRIPOS>SUBSTRUCTURE
     1 2M2801      1 GROUP   
@<TRIPOS>SET

