#    Name: 3ka7_FAD_1_INTS_M
#    Modification time : Mon Mar 24 19:03:41 2014

@<TRIPOS>MOLECULE
3ka7_FAD_1_INTS_M
  147     0    12     0     0
SMALL
NO_CHARGES


@<TRIPOS>ATOM
      1 NZ         14.1590   -7.4560   30.7035 N.4       3 LYC4        0.0000 
      2 NZ         14.9500   -8.0400   29.3580 N.4      11 LYL4        0.0000 
      3 NZ         12.5720   -7.9150   31.8810 N.4       7 LYP4        0.0000 
      4 NZ         13.9440   -8.1780   28.7970 N.4       3 LYC4        0.0000 
      5 NZ         12.5280   -7.0970   27.9300 N.4       7 LYP4        0.0000 
      6 N          14.1590   -7.4560   30.7035 N.am      2 SEC2        0.0000 
      7 N          14.9500   -8.0400   29.3580 N.am     10 SEL2        0.0000 
      8 N          13.3680   -6.8720   32.0490 N.am      6 SEP2        0.0000 
      9 N          13.8200   -8.3485   30.0750 N.am      2 SEC2        0.0000 
     10 N          12.6900   -8.6570   30.7920 N.am      6 SEP2        0.0000 
     11 N          13.9440   -8.1780   28.7970 N.am      2 SEC2        0.0000 
     12 N          12.9380   -8.3160   28.2360 N.am      6 SEP2        0.0000 
     13 N          14.1170   -7.0355   28.7785 N.am      2 SEC2        0.0000 
     14 N          13.2840   -6.0310   28.1990 N.am      6 SEP2        0.0000 
     15 N          17.1380   -7.5800   32.2975 N.am      2 SEC2        0.0000 
     16 N          16.6240   -8.3300   31.2810 N.am     10 SEL2        0.0000 
     17 N          17.6520   -6.8300   33.3140 N.am      6 SEP2        0.0000 
     18 CA         19.5185   -7.1155   25.6930 C.3       4 GLC5        0.0000 
     19 CA         18.3750   -6.5630   27.2240 C.3      12 GLL5        0.0000 
     20 CA         20.6620   -7.6680   24.1620 C.3       8 GLP5        0.0000 
     21 CA         17.4795   -6.5120   25.1800 C.3       4 GLC5        0.0000 
     22 CA         16.5840   -6.4610   23.1360 C.3       8 GLP5        0.0000 
     23 CA         18.9810   -5.8090   29.9295 C.3       4 GLC5        0.0000 
     24 CA         18.5570   -5.3430   28.1310 C.3      12 GLL5        0.0000 
     25 CA         19.4050   -6.2750   31.7280 C.3       8 GLP5        0.0000 
     26 CA         17.6065   -4.3910   29.6090 C.3       4 GLC5        0.0000 
     27 CA         16.6560   -3.4390   31.0870 C.3       8 GLP5        0.0000 
     28 O          20.8665   -5.3505   27.7875 O.2       1 ALC1        0.0000 
     29 O          19.8510   -5.3500   28.7140 O.2       9 ALL1        0.0000 
     30 O          21.8820   -5.3510   26.8610 O.2       5 ALP1        0.0000 
     31 O          20.7490   -4.2775   28.0010 O.2       1 ALC1        0.0000 
     32 O          21.6470   -3.2050   27.2880 O.2       5 ALP1        0.0000 
     33 CA         17.0090   -3.7755   28.6520 C.3       4 GLC5        0.0000 
     34 CA         18.3730   -4.1550   27.1840 C.3      12 GLL5        0.0000 
     35 CA         15.6450   -3.3960   30.1200 C.3       8 GLP5        0.0000 
     36 O          20.4060   -3.1205   27.4115 O.2       1 ALC1        0.0000 
     37 O          19.1650   -3.0360   27.5350 O.2       9 ALL1        0.0000 
     38 CA         19.7090   -6.2100   24.9985 C.3       4 GLC5        0.0000 
     39 CA         18.7560   -4.7520   25.8350 C.3      12 GLL5        0.0000 
     40 CA         17.6700   -5.6065   24.4855 C.3       4 GLC5        0.0000 
     41 CA         18.6850   -5.0235   20.5540 C.3       4 GLC5        0.0000 
     42 CA         18.3690   -3.0170   21.3390 C.3      12 GLL5        0.0000 
     43 CA         19.0010   -7.0300   19.7690 C.3       8 GLP5        0.0000 
     44 CA         18.8475   -1.1925   20.5660 C.3       4 GLC5        0.0000 
     45 CA         19.3260    0.6320   19.7930 C.3       8 GLP5        0.0000 
     46 CA         19.2750   -3.6760   19.4725 C.3       4 GLC5        0.0000 
     47 CA         20.1810   -4.3350   17.6060 C.3       8 GLP5        0.0000 
     48 CA         17.0450   -4.4800   21.0905 C.3       4 GLC5        0.0000 
     49 CA         15.7210   -5.9430   20.8420 C.3       8 GLP5        0.0000 
     50 O          17.8520   -2.2715   18.9835 O.2       1 ALC1        0.0000 
     51 O          17.5180   -2.5730   20.4190 O.2       9 ALL1        0.0000 
     52 O          18.1860   -1.9700   17.5480 O.2       5 ALP1        0.0000 
     53 N          20.2480   -2.7125   19.7890 N.am      2 SEC2        0.0000 
     54 N          19.6830   -3.2780   21.0070 N.am     10 SEL2        0.0000 
     55 N          20.8130   -2.1470   18.5710 N.am      6 SEP2        0.0000 
     56 CA         19.7755   -5.4390   20.8430 C.3       4 GLC5        0.0000 
     57 CA         20.5500   -3.8480   21.9170 C.3      12 GLL5        0.0000 
     58 CA         20.6060   -5.7580   23.0395 C.3       4 GLC5        0.0000 
     59 CA         22.1710   -4.1135   23.0990 C.3       4 GLC5        0.0000 
     60 CA         23.7920   -4.3790   24.2810 C.3       8 GLP5        0.0000 
     61 CA         20.6780   -2.2275   22.9240 C.3       4 GLC5        0.0000 
     62 CA         20.8060   -0.6070   23.9310 C.3       8 GLP5        0.0000 
     63 CA         21.1160   -2.0870   20.9055 C.3       4 GLC5        0.0000 
     64 CA         21.6820   -0.3260   19.8940 C.3       8 GLP5        0.0000 
     65 CA         21.0175   -4.4275   19.9885 C.3       4 GLC5        0.0000 
     66 CA         21.4850   -5.0070   18.0600 C.3       8 GLP5        0.0000 
     67 N          21.3100   -3.2405   23.7525 N.am      2 SEC2        0.0000 
     68 N          20.1000   -4.1710   23.1800 N.am     10 SEL2        0.0000 
     69 N          22.5200   -2.3100   24.3250 N.am      6 SEP2        0.0000 
     70 CA         19.7340   -5.7905   23.8325 C.3       4 GLC5        0.0000 
     71 CA         18.8060   -3.9130   23.5030 C.3      12 GLL5        0.0000 
     72 N          13.9470  -16.0035   37.5075 N.am      2 SEC2        0.0000 
     73 N          14.4170  -15.4170   38.8310 N.am     10 SEL2        0.0000 
     74 N          13.4770  -16.5900   36.1840 N.am      6 SEP2        0.0000 
     75 O          15.3135  -14.6205   41.3265 O.2       1 ALC1        0.0000 
     76 O          14.1250  -14.0940   40.6700 O.2       9 ALL1        0.0000 
     77 O          16.5020  -15.1470   41.9830 O.2       5 ALP1        0.0000 
     78 N          14.5920  -11.3190   42.5010 N.am      2 SEC2        0.0000 
     79 N          13.7570  -12.6710   42.4120 N.am     10 SEL2        0.0000 
     80 N          15.4270   -9.9670   42.5900 N.am      6 SEP2        0.0000 
     81 N          14.1175  -10.3215   41.7390 N.am      2 SEC2        0.0000 
     82 N          12.8080  -10.6760   40.8880 N.am     10 SEL2        0.0000 
     83 CA         11.4215   -6.8995   42.0860 C.3       4 GLC5        0.0000 
     84 CA         11.0370   -6.1400   40.2740 C.3      12 GLL5        0.0000 
     85 CA         11.8060   -7.6590   43.8980 C.3       8 GLP5        0.0000 
     86 CA         12.4490   -4.9630   41.3855 C.3       4 GLC5        0.0000 
     87 CA         13.8610   -3.7860   42.4970 C.3       8 GLP5        0.0000 
     88 CA         10.7980   -4.5370   39.6125 C.3       4 GLC5        0.0000 
     89 CA         10.5590   -2.9340   38.9510 C.3       8 GLP5        0.0000 
     90 CA         10.7300   -4.9000   37.4785 C.3       4 GLC5        0.0000 
     91 CA         10.9970   -6.6370   37.3660 C.3      12 GLL5        0.0000 
     92 CA         10.4630   -3.1630   37.5910 C.3       8 GLP5        0.0000 
     93 CA         12.0270  -13.5530   37.2095 C.3       4 GLC5        0.0000 
     94 CA         12.6380  -11.4520   36.6950 C.3      12 GLL5        0.0000 
     95 CA         11.4160  -15.6540   37.7240 C.3       8 GLP5        0.0000 
     96 CA         16.0930  -11.7480   36.7015 C.3       4 GLC5        0.0000 
     97 CA         14.0180  -11.2680   36.0520 C.3      12 GLL5        0.0000 
     98 CA         18.1680  -12.2280   37.3510 C.3       8 GLP5        0.0000 
     99 CA         15.1150  -10.9400   37.7920 C.3       4 GLC5        0.0000 
    100 CA         16.2120  -10.6120   39.5320 C.3       8 GLP5        0.0000 
    101 CA         12.5575  -12.1845   32.9535 C.3       4 GLC5        0.0000 
    102 CA         13.8620  -11.2650   34.5340 C.3      12 GLL5        0.0000 
    103 CA         11.2530  -13.1040   31.3730 C.3       8 GLP5        0.0000 
    104 O          12.1575  -11.6830   33.3225 O.2       1 ALC1        0.0000 
    105 O          13.0250  -12.3490   34.1480 O.2       9 ALL1        0.0000 
    106 O          11.2900  -11.0170   32.4970 O.2       5 ALP1        0.0000 
    107 CA         15.2995   -9.1615   34.0595 C.3       4 GLC5        0.0000 
    108 CA         15.1600  -11.3800   33.7400 C.3      12 GLL5        0.0000 
    109 CA         15.4390   -6.9430   34.3790 C.3       8 GLP5        0.0000 
    110 O          16.4780   -9.2775   35.4055 O.2       1 ALC1        0.0000 
    111 O          16.1480  -10.4800   34.1990 O.2       9 ALL1        0.0000 
    112 O          16.8080   -8.0750   36.6120 O.2       5 ALP1        0.0000 
    113 CA         13.0380  -12.0625   31.8350 C.3       4 GLC5        0.0000 
    114 CA         14.8230  -11.0210   32.2970 C.3      12 GLL5        0.0000 
    115 N          17.7815  -13.2960   29.3790 N.am      2 SEC2        0.0000 
    116 N          16.6010  -12.5620   29.3720 N.am     10 SEL2        0.0000 
    117 N          18.9620  -14.0300   29.3860 N.am      6 SEP2        0.0000 
    118 N          16.7620  -12.4060   27.9645 N.am      2 SEC2        0.0000 
    119 N          16.9230  -12.2500   26.5570 N.am      6 SEP2        0.0000 
    120 N          13.3995  -12.4135   29.3360 N.am      2 SEC2        0.0000 
    121 N          14.3530  -11.3610   29.4560 N.am     10 SEL2        0.0000 
    122 N          12.4460  -13.4660   29.2160 N.am      6 SEP2        0.0000 
    123 CA         18.9115   -8.3725   28.4088 C.3       4 GLC5        0.0000 
    124 CA         17.1350   -7.3650   27.6310 C.3      12 GLL5        0.0000 
    125 CA         20.0680   -9.7810   29.3900 C.3       8 GLP5        0.0000 
    126 CA         17.4722   -5.0457   23.0955 C.3       4 GLC5        0.0000 
    127 CA         17.9150   -3.3480   22.6070 C.3      12 GLL5        0.0000 
    128 CA         19.6400   -2.0774   23.3345 C.3       4 GLC5        0.0000 
    129 CA         13.8315   -9.2553   40.2570 C.3       4 GLC5        0.0000 
    130 CA         12.3520   -9.6860   40.0340 C.3      12 GLL5        0.0000 
    131 CA         15.5220   -9.4380   40.2240 C.3       8 GLP5        0.0000 
    132 CA         13.2415   -6.3838   39.3368 C.3       4 GLC5        0.0000 
    133 CA         11.4910   -7.4550   39.6910 C.3      12 GLL5        0.0000 
    134 CA         15.2190   -5.9700   38.6910 C.3       8 GLP5        0.0000 
    135 CA          9.3820   -6.9897   38.9418 C.3       4 GLC5        0.0000 
    136 CA          7.5000   -7.1820   37.9010 C.3       8 GLP5        0.0000 
    137 CA         13.2267   -6.5672   38.2678 C.3       4 GLC5        0.0000 
    138 CA          9.9093   -7.5122   36.7947 C.3       4 GLC5        0.0000 
    139 CA         11.4720   -7.6920   38.3230 C.3      12 GLL5        0.0000 
    140 CA          8.5840   -7.8600   35.7450 C.3       8 GLP5        0.0000 
    141 CA         13.8143   -9.4285   39.2298 C.3       4 GLC5        0.0000 
    142 CA         11.8820   -8.9190   37.8070 C.3      12 GLL5        0.0000 
    143 CA         10.0813   -9.5065   37.8403 C.3       4 GLC5        0.0000 
    144 CA         12.3310   -9.9190   38.6640 C.3      12 GLL5        0.0000 
    145 CA          8.0560   -9.5940   37.4450 C.3       8 GLP5        0.0000 
    146 CA         15.2185  -13.0721   35.2413 C.3       4 GLC5        0.0000 
    147 CA         15.8870  -14.8210   35.9660 C.3       8 GLP5        0.0000 
@<TRIPOS>BOND
@<TRIPOS>SUBSTRUCTURE
     1 ALC1       28 GROUP        1 X    ALC  0     ROOT ALC X 1
     2 SEC2        6 GROUP        1 X    SEC  0     **** SEC X 2
     3 LYC4        1 GROUP        1 X    LYC  0     **** LYC X 4
     4 GLC5       18 GROUP        1 X    GLC  0     **** GLC X 6
     5 ALP1       30 GROUP        1 Y    ALP  0     ROOT ALP Y 8
     6 SEP2        8 GROUP        1 Y    SEP  0     **** SEP Y 9
     7 LYP4        3 GROUP        1 Y    LYP  0     **** LYP Y 11
     8 GLP5       20 GROUP        1 Y    GLP  0     **** GLP Y 13
     9 ALL1       29 GROUP        1 Z    ALL  0     ROOT ALL Z 15
    10 SEL2        7 GROUP        1 Z    SEL  0     **** SEL Z 16
    11 LYL4        2 GROUP        1 Z    LYL  0     **** LYL Z 18
    12 GLL5       19 GROUP        1 Z    GLL  0     **** GLL Z 20
@<TRIPOS>SET

