#    Name: 3ka7_FAD_1_ligand
#    Modification time : Mon Mar 24 19:03:41 2014

@<TRIPOS>MOLECULE
3ka7_FAD_1_ligand
   84    89     1     0     0
SMALL
NO_CHARGES


@<TRIPOS>ATOM
      1 PA         16.2950   -8.5350   29.8210 P.3       1 FAD500      0.0000 
      2 O1A        14.9500   -8.0400   29.3580 O.co2     1 FAD500      0.0000 
      3 O2A        16.6240   -8.3300   31.2810 O.co2     1 FAD500      0.0000 
      4 O5B        17.4420   -7.8480   28.9330 O.3       1 FAD500      0.0000 
      5 C5B        17.1350   -7.3650   27.6310 C.3       1 FAD500      0.0000 
      6 C4B        18.3750   -6.5630   27.2240 C.3       1 FAD500      0.0000 
      7 O4B        18.2690   -6.0900   25.8960 O.3       1 FAD500      0.0000 
      8 C3B        18.5570   -5.3430   28.1310 C.3       1 FAD500      0.0000 
      9 O3B        19.8510   -5.3500   28.7140 O.3       1 FAD500      0.0000 
     10 C2B        18.3730   -4.1550   27.1840 C.3       1 FAD500      0.0000 
     11 O2B        19.1650   -3.0360   27.5350 O.3       1 FAD500      0.0000 
     12 C1B        18.7560   -4.7520   25.8350 C.3       1 FAD500      0.0000 
     13 N9A        18.1310   -4.1120   24.6700 N.pl3     1 FAD500      0.0000 
     14 C8A        16.8300   -3.6860   24.4950 C.2       1 FAD500      0.0000 
     15 N7A        16.7070   -3.2160   23.2200 N.2       1 FAD500      0.0000 
     16 C5A        17.9150   -3.3480   22.6070 C.ar      1 FAD500      0.0000 
     17 C6A        18.3690   -3.0170   21.3390 C.ar      1 FAD500      0.0000 
     18 N6A        17.5180   -2.5730   20.4190 N.pl3     1 FAD500      0.0000 
     19 N1A        19.6830   -3.2780   21.0070 N.ar      1 FAD500      0.0000 
     20 C2A        20.5500   -3.8480   21.9170 C.ar      1 FAD500      0.0000 
     21 N3A        20.1000   -4.1710   23.1800 N.ar      1 FAD500      0.0000 
     22 C4A        18.8060   -3.9130   23.5030 C.ar      1 FAD500      0.0000 
     23 N1         13.6070  -13.3280   38.4650 N.2       1 FAD500      0.0000 
     24 C2         14.0740  -14.3250   39.3040 C.2       1 FAD500      0.0000 
     25 O2         14.4170  -15.4170   38.8310 O.2       1 FAD500      0.0000 
     26 N3         14.1250  -14.0940   40.6700 N.am      1 FAD500      0.0000 
     27 C4         13.7140  -12.8830   41.2000 C.2       1 FAD500      0.0000 
     28 O4         13.7570  -12.6710   42.4120 O.2       1 FAD500      0.0000 
     29 C4X        13.2400  -11.8850   40.3610 C.2       1 FAD500      0.0000 
     30 N5         12.8080  -10.6760   40.8880 N.2       1 FAD500      0.0000 
     31 C5X        12.3520   -9.6860   40.0340 C.ar      1 FAD500      0.0000 
     32 C6         11.9300   -8.4590   40.5460 C.ar      1 FAD500      0.0000 
     33 C7         11.4910   -7.4550   39.6910 C.ar      1 FAD500      0.0000 
     34 C7M        11.0370   -6.1400   40.2740 C.3       1 FAD500      0.0000 
     35 C8         11.4720   -7.6920   38.3230 C.ar      1 FAD500      0.0000 
     36 C8M        10.9970   -6.6370   37.3660 C.3       1 FAD500      0.0000 
     37 C9         11.8820   -8.9190   37.8070 C.ar      1 FAD500      0.0000 
     38 C9A        12.3310   -9.9190   38.6640 C.ar      1 FAD500      0.0000 
     39 N10        12.7410  -11.1430   38.1520 N.pl3     1 FAD500      0.0000 
     40 C10        13.2000  -12.1200   38.9920 C.2       1 FAD500      0.0000 
     41 C1'        12.6380  -11.4520   36.6950 C.3       1 FAD500      0.0000 
     42 C2'        14.0180  -11.2680   36.0520 C.3       1 FAD500      0.0000 
     43 O2'        14.5910  -10.0430   36.5010 O.3       1 FAD500      0.0000 
     44 C3'        13.8620  -11.2650   34.5340 C.3       1 FAD500      0.0000 
     45 O3'        13.0250  -12.3490   34.1480 O.3       1 FAD500      0.0000 
     46 C4'        15.1600  -11.3800   33.7400 C.3       1 FAD500      0.0000 
     47 O4'        16.1480  -10.4800   34.1990 O.3       1 FAD500      0.0000 
     48 C5'        14.8230  -11.0210   32.2970 C.3       1 FAD500      0.0000 
     49 O5'        15.9170  -11.4090   31.5030 O.3       1 FAD500      0.0000 
     50 P          15.7950  -11.4100   29.9200 P.3       1 FAD500      0.0000 
     51 O1P        16.6010  -12.5620   29.3720 O.co2     1 FAD500      0.0000 
     52 O2P        14.3530  -11.3610   29.4560 O.co2     1 FAD500      0.0000 
     53 O3P        16.5300  -10.0740   29.4060 O.3       1 FAD500      0.0000 
     54 H          16.2919   -6.6985   27.6272 H         1 FAD500      0.0000 
     55 H          17.0032   -8.1583   26.9180 H         1 FAD500      0.0000 
     56 H          19.2457   -7.1924   27.3486 H         1 FAD500      0.0000 
     57 H          17.7644   -5.3356   28.8340 H         1 FAD500      0.0000 
     58 H          17.3165   -3.9449   27.1471 H         1 FAD500      0.0000 
     59 H          19.8214   -4.7579   25.7530 H         1 FAD500      0.0000 
     60 H          16.1427   -3.7184   25.1564 H         1 FAD500      0.0000 
     61 H          17.9153   -2.3244   19.5356 H         1 FAD500      0.0000 
     62 H          16.5575   -2.5277   20.6934 H         1 FAD500      0.0000 
     63 H          21.5287   -4.0312   21.6537 H         1 FAD500      0.0000 
     64 H          14.4750  -14.8370   41.3009 H         1 FAD500      0.0000 
     65 H          11.9446   -8.2983   41.5634 H         1 FAD500      0.0000 
     66 H          11.8527   -9.0852   36.7932 H         1 FAD500      0.0000 
     67 H          11.9374  -10.7791   36.2149 H         1 FAD500      0.0000 
     68 H          12.3190  -12.4771   36.5480 H         1 FAD500      0.0000 
     69 H          14.6238  -12.1158   36.3276 H         1 FAD500      0.0000 
     70 H          13.3799  -10.3214   34.2452 H         1 FAD500      0.0000 
     71 H          15.4826  -12.3979   33.7554 H         1 FAD500      0.0000 
     72 H          14.6379   -9.9482   32.2570 H         1 FAD500      0.0000 
     73 H          13.9066  -11.5462   32.0302 H         1 FAD500      0.0000 
     74 H          11.7655   -5.6924   40.7927 H         1 FAD500      0.0000 
     75 H          10.7469   -5.4991   39.5633 H         1 FAD500      0.0000 
     76 H          10.2633   -6.2571   40.8966 H         1 FAD500      0.0000 
     77 H          11.5470   -5.8042   37.4284 H         1 FAD500      0.0000 
     78 H          11.0434   -6.9485   36.4169 H         1 FAD500      0.0000 
     79 H          10.0481   -6.3755   37.5426 H         1 FAD500      0.0000 
     80 H          20.4835   -5.3125   27.9403 H         1 FAD500      0.0000 
     81 H          20.0488   -3.4187   27.8040 H         1 FAD500      0.0000 
     82 H          14.0428   -9.3271   36.0685 H         1 FAD500      0.0000 
     83 H          12.3217  -11.9388   33.5674 H         1 FAD500      0.0000 
     84 H          15.8139  -10.1589   35.0852 H         1 FAD500      0.0000 
@<TRIPOS>BOND
     1    2    1 ar   
     2    3    1 ar   
     3    4    1 1    
     4   53    1 1    
     5    5    4 1    
     6    6    5 1    
     7   54    5 1    
     8   55    5 1    
     9    7    6 1    
    10    8    6 1    
    11   56    6 1    
    12   12    7 1    
    13    9    8 1    
    14   10    8 1    
    15   57    8 1    
    16   80    9 1    
    17   11   10 1    
    18   12   10 1    
    19   58   10 1    
    20   81   11 1    
    21   13   12 1    
    22   59   12 1    
    23   14   13 1    
    24   22   13 1    
    25   15   14 2    
    26   60   14 1    
    27   16   15 1    
    28   17   16 ar   
    29   22   16 ar   
    30   18   17 1    
    31   19   17 ar   
    32   61   18 1    
    33   62   18 1    
    34   20   19 ar   
    35   21   20 ar   
    36   63   20 1    
    37   22   21 ar   
    38   24   23 1    
    39   40   23 2    
    40   25   24 2    
    41   26   24 am   
    42   27   26 am   
    43   64   26 1    
    44   28   27 2    
    45   29   27 1    
    46   30   29 2    
    47   40   29 1    
    48   31   30 1    
    49   32   31 ar   
    50   38   31 ar   
    51   33   32 ar   
    52   65   32 1    
    53   34   33 1    
    54   35   33 ar   
    55   74   34 1    
    56   75   34 1    
    57   76   34 1    
    58   36   35 1    
    59   37   35 ar   
    60   77   36 1    
    61   78   36 1    
    62   79   36 1    
    63   38   37 ar   
    64   66   37 1    
    65   39   38 1    
    66   40   39 1    
    67   41   39 1    
    68   42   41 1    
    69   67   41 1    
    70   68   41 1    
    71   43   42 1    
    72   44   42 1    
    73   69   42 1    
    74   82   43 1    
    75   45   44 1    
    76   46   44 1    
    77   70   44 1    
    78   83   45 1    
    79   47   46 1    
    80   48   46 1    
    81   71   46 1    
    82   84   47 1    
    83   49   48 1    
    84   72   48 1    
    85   73   48 1    
    86   50   49 1    
    87   51   50 ar   
    88   52   50 ar   
    89   53   50 1    
@<TRIPOS>SUBSTRUCTURE
     1 FAD500      1 GROUP   
@<TRIPOS>SET

