#    Name: 2rl1_UD1_1_INTS_M
#    Modification time : Tue Mar 25 00:03:49 2014

@<TRIPOS>MOLECULE
2rl1_UD1_1_INTS_M
   75     0    12     0     0
SMALL
NO_CHARGES


@<TRIPOS>ATOM
      1 CA         -2.1625   18.0690  -12.9685 C.3       4 GLC5        0.0000 
      2 CA         -1.4080   16.6400  -14.4220 C.3      12 GLL5        0.0000 
      3 CA         -2.9170   19.4980  -11.5150 C.3       8 GLP5        0.0000 
      4 CA          2.2690   14.5115  -11.2595 C.3       4 GLC5        0.0000 
      5 CA          0.8330   15.5620  -11.6170 C.3      12 GLL5        0.0000 
      6 CA          3.7050   13.4610  -10.9020 C.3       8 GLP5        0.0000 
      7 CA          0.6890   14.0565  -10.2545 C.3       4 GLC5        0.0000 
      8 CA          0.5450   12.5510   -8.8920 C.3       8 GLP5        0.0000 
      9 CA         -2.0390   18.4185  -20.6925 C.3       4 GLC5        0.0000 
     10 CA         -2.2410   17.7630  -18.8130 C.3      12 GLL5        0.0000 
     11 CA         -1.8370   19.0740  -22.5720 C.3       8 GLP5        0.0000 
     12 CA         -3.7285   17.3260  -19.7745 C.3       4 GLC5        0.0000 
     13 CA         -5.2160   16.8890  -20.7360 C.3       8 GLP5        0.0000 
     14 CA         -3.5205   19.1380  -18.7965 C.3       4 GLC5        0.0000 
     15 CA         -4.8000   20.5130  -18.7800 C.3       8 GLP5        0.0000 
     16 N           1.6320   16.8595  -16.9845 N.am      2 SEC2        0.0000 
     17 N           1.4040   15.2760  -16.5750 N.am     10 SEL2        0.0000 
     18 N           1.8600   18.4430  -17.3940 N.am      6 SEP2        0.0000 
     19 N           2.6385   15.5680  -17.2465 N.am      2 SEC2        0.0000 
     20 N           3.8730   15.8600  -17.9180 N.am      6 SEP2        0.0000 
     21 O           3.1895   15.2175  -14.7055 O.2       1 ALC1        0.0000 
     22 O           2.0420   14.1720  -13.9910 O.2       9 ALL1        0.0000 
     23 O           4.3370   16.2630  -15.4200 O.2       5 ALP1        0.0000 
     24 O           3.2730   14.1460  -14.4920 O.2       1 ALC1        0.0000 
     25 O           4.5040   14.1200  -14.9930 O.2       5 ALP1        0.0000 
     26 O         -11.0955   11.8290   -8.8870 O.2       1 ALC1        0.0000 
     27 O          -9.7520   12.4650   -9.0290 O.2       9 ALL1        0.0000 
     28 O         -12.4390   11.1930   -8.7450 O.2       5 ALP1        0.0000 
     29 CA         -9.2880   14.6815   -8.5095 C.3       4 GLC5        0.0000 
     30 CA         -8.5450   14.1290  -10.3240 C.3      12 GLL5        0.0000 
     31 CA        -10.0310   15.2340   -6.6950 C.3       8 GLP5        0.0000 
     32 CA         -9.7990   15.2230  -11.6075 C.3       4 GLC5        0.0000 
     33 CA        -11.0530   16.3170  -12.8910 C.3       8 GLP5        0.0000 
     34 N         -12.2395   14.2530   -9.6800 N.am      2 SEC2        0.0000 
     35 N         -10.9180   14.0700  -10.1440 N.am     10 SEL2        0.0000 
     36 N         -13.5610   14.4360   -9.2160 N.am      6 SEP2        0.0000 
     37 CA         -6.0915   12.3525   -6.8005 C.3       4 GLC5        0.0000 
     38 CA         -6.0870   11.7550   -8.7550 C.3      12 GLL5        0.0000 
     39 CA         -6.0960   12.9500   -4.8460 C.3       8 GLP5        0.0000 
     40 CA         -6.2670    9.7960  -11.4630 C.3       4 GLC5        0.0000 
     41 CA         -5.4330   11.0010   -9.8860 C.3      12 GLL5        0.0000 
     42 CA         -7.1010    8.5910  -13.0400 C.3       8 GLP5        0.0000 
     43 O          -5.7945    8.4985  -10.5595 O.2       1 ALC1        0.0000 
     44 O          -5.9710    9.6900  -10.0070 O.2       9 ALL1        0.0000 
     45 O          -5.6180    7.3070  -11.1120 O.2       5 ALP1        0.0000 
     46 O          -2.3015    9.7615   -8.3205 O.2       1 ALC1        0.0000 
     47 O          -3.6470    9.9180   -8.5530 O.2       9 ALL1        0.0000 
     48 O          -0.9560    9.6050   -8.0880 O.2       5 ALP1        0.0000 
     49 CA         -2.0565   12.5335  -11.1555 C.3       4 GLC5        0.0000 
     50 CA         -3.1150   13.4600   -9.6130 C.3      12 GLL5        0.0000 
     51 CA         -0.9980   11.6070  -12.6980 C.3       8 GLP5        0.0000 
     52 N          -6.4530   16.7170  -10.2580 N.am      2 SEC2        0.0000 
     53 N          -5.4820   16.2100  -10.9470 N.am     10 SEL2        0.0000 
     54 N          -7.4240   17.2240   -9.5690 N.am      6 SEP2        0.0000 
     55 N          -5.6295   17.5935  -11.6000 N.am      2 SEC2        0.0000 
     56 N          -5.7770   18.9770  -12.2530 N.am      6 SEP2        0.0000 
     57 N          -3.8520   17.6675   -9.8085 N.am      2 SEC2        0.0000 
     58 N          -3.2090   16.4690   -9.9010 N.am     10 SEL2        0.0000 
     59 N          -4.4950   18.8660   -9.7160 N.am      6 SEP2        0.0000 
     60 NZ         -3.5470   13.3480  -14.8190 N.4       3 LYC4        0.0000 
     61 NZ         -4.1920   14.0480  -13.7460 N.4      11 LYL4        0.0000 
     62 NZ         -2.9700   11.3250  -15.9700 N.4       7 LYP4        0.0000 
     63 N          -3.5470   13.3480  -14.8190 N.am      2 SEC2        0.0000 
     64 N          -4.1920   14.0480  -13.7460 N.am     10 SEL2        0.0000 
     65 N          -2.9020   12.6480  -15.8920 N.am      6 SEP2        0.0000 
     66 CA          0.5773   13.5259  -12.5860 C.3       4 GLC5        0.0000 
     67 CA          0.1960   15.4030  -12.9990 C.3      12 GLL5        0.0000 
     68 CA          0.3830   11.5860  -12.5750 C.3       8 GLP5        0.0000 
     69 CA         -7.5593   15.5475   -9.1605 C.3       4 GLC5        0.0000 
     70 CA         -7.4240   13.5330   -9.9560 C.3      12 GLL5        0.0000 
     71 CA         -7.1340   17.2640   -8.1810 C.3       8 GLP5        0.0000 
     72 CA         -1.4465   12.7180   -9.0460 C.3       4 GLC5        0.0000 
     73 CA         -3.7610   12.3100   -8.7870 C.3      12 GLL5        0.0000 
     74 CA         -2.9861   11.0776  -10.7596 C.3       4 GLC5        0.0000 
     75 CA         -1.7460   10.5070  -12.2840 C.3       8 GLP5        0.0000 
@<TRIPOS>BOND
@<TRIPOS>SUBSTRUCTURE
     1 ALC1       21 GROUP        1 X    ALC  0     ROOT ALC X 1
     2 SEC2       16 GROUP        1 X    SEC  0     **** SEC X 2
     3 LYC4       60 GROUP        1 X    LYC  0     **** LYC X 4
     4 GLC5        1 GROUP        1 X    GLC  0     **** GLC X 6
     5 ALP1       23 GROUP        1 Y    ALP  0     ROOT ALP Y 8
     6 SEP2       18 GROUP        1 Y    SEP  0     **** SEP Y 9
     7 LYP4       62 GROUP        1 Y    LYP  0     **** LYP Y 11
     8 GLP5        3 GROUP        1 Y    GLP  0     **** GLP Y 13
     9 ALL1       22 GROUP        1 Z    ALL  0     ROOT ALL Z 15
    10 SEL2       17 GROUP        1 Z    SEL  0     **** SEL Z 16
    11 LYL4       61 GROUP        1 Z    LYL  0     **** LYL Z 18
    12 GLL5        2 GROUP        1 Z    GLL  0     **** GLL Z 20
@<TRIPOS>SET

