#    Name: 2rl1_UD1_1_ligand
#    Modification time : Tue Mar 25 00:03:49 2014

@<TRIPOS>MOLECULE
2rl1_UD1_1_ligand
   64    66     1     0     0
SMALL
NO_CHARGES


@<TRIPOS>ATOM
      1 C1'        -1.4080   16.6400  -14.4220 C.3       1 UD1712      0.0000 
      2 C2'        -0.4150   16.6250  -15.6020 C.3       1 UD1712      0.0000 
      3 C3'         0.4530   15.3440  -15.4940 C.3       1 UD1712      0.0000 
      4 C4'         1.2240   15.3360  -14.1550 C.3       1 UD1712      0.0000 
      5 C5'         0.1960   15.4030  -12.9990 C.3       1 UD1712      0.0000 
      6 C6'         0.8330   15.5620  -11.6170 C.3       1 UD1712      0.0000 
      7 C7'        -1.5350   17.7910  -17.4810 C.2       1 UD1712      0.0000 
      8 C8'        -2.2410   17.7630  -18.8130 C.3       1 UD1712      0.0000 
      9 N2'        -1.1280   16.6100  -16.9160 N.am      1 UD1712      0.0000 
     10 O1'        -2.2310   15.4740  -14.5330 O.3       1 UD1712      0.0000 
     11 O3'         1.4040   15.2760  -16.5750 O.3       1 UD1712      0.0000 
     12 O4'         2.0420   14.1720  -13.9910 O.3       1 UD1712      0.0000 
     13 O5'        -0.6770   16.5690  -13.1630 O.3       1 UD1712      0.0000 
     14 O6'         1.5080   16.8210  -11.5830 O.3       1 UD1712      0.0000 
     15 O7'        -1.3410   18.8770  -16.9410 O.2       1 UD1712      0.0000 
     16 N1         -7.4030   12.3990   -9.1230 N.am      1 UD1712      0.0000 
     17 C2         -8.6000   11.8130   -8.6180 C.2       1 UD1712      0.0000 
     18 N3         -9.7520   12.4650   -9.0290 N.am      1 UD1712      0.0000 
     19 C4         -9.8220   13.6110   -9.8690 C.2       1 UD1712      0.0000 
     20 C5         -8.5450   14.1290  -10.3240 C.2       1 UD1712      0.0000 
     21 C6         -7.4240   13.5330   -9.9560 C.2       1 UD1712      0.0000 
     22 O2         -8.6250   10.8150   -7.8870 O.2       1 UD1712      0.0000 
     23 O4        -10.9180   14.0700  -10.1440 O.2       1 UD1712      0.0000 
     24 C1B        -6.0870   11.7550   -8.7550 C.3       1 UD1712      0.0000 
     25 C2B        -5.4330   11.0010   -9.8860 C.3       1 UD1712      0.0000 
     26 O2'        -5.9710    9.6900  -10.0070 O.3       1 UD1712      0.0000 
     27 C3B        -3.9500   10.9720   -9.4810 C.3       1 UD1712      0.0000 
     28 C4B        -3.7610   12.3100   -8.7870 C.3       1 UD1712      0.0000 
     29 O4B        -5.1240   12.7280   -8.3700 O.3       1 UD1712      0.0000 
     30 O3B        -3.6470    9.9180   -8.5530 O.3       1 UD1712      0.0000 
     31 C5B        -3.1150   13.4600   -9.6130 C.3       1 UD1712      0.0000 
     32 O5B        -4.1840   14.2880  -10.0220 O.3       1 UD1712      0.0000 
     33 PA         -4.1030   15.6640  -10.7690 P.3       1 UD1712      0.0000 
     34 O1A        -5.4820   16.2100  -10.9470 O.co2     1 UD1712      0.0000 
     35 O2A        -3.2090   16.4690   -9.9010 O.co2     1 UD1712      0.0000 
     36 O3A        -3.3210   15.7660  -12.1920 O.3       1 UD1712      0.0000 
     37 PB         -3.5770   15.3900  -13.6980 P.3       1 UD1712      0.0000 
     38 O1B        -4.1920   14.0480  -13.7460 O.co2     1 UD1712      0.0000 
     39 O2B        -4.5570   16.3870  -14.2320 O.co2     1 UD1712      0.0000 
     40 H          -1.9833   17.5304  -14.4833 H         1 UD1712      0.0000 
     41 H           0.2289   17.4698  -15.5293 H         1 UD1712      0.0000 
     42 H          -0.2053   14.4919  -15.4988 H         1 UD1712      0.0000 
     43 H           1.8095   16.2465  -14.1051 H         1 UD1712      0.0000 
     44 H          -0.3972   14.5068  -13.0001 H         1 UD1712      0.0000 
     45 H           1.5173   14.7285  -11.4664 H         1 UD1712      0.0000 
     46 H           0.0388   15.5052  -10.8743 H         1 UD1712      0.0000 
     47 H          -1.2832   15.7040  -17.3424 H         1 UD1712      0.0000 
     48 H         -10.6900   12.0781   -8.6876 H         1 UD1712      0.0000 
     49 H          -8.5737   14.9615  -10.9303 H         1 UD1712      0.0000 
     50 H          -6.4865   13.8955  -10.2817 H         1 UD1712      0.0000 
     51 H          -6.2440   11.0544   -7.9387 H         1 UD1712      0.0000 
     52 H          -5.5151   11.5841  -10.7715 H         1 UD1712      0.0000 
     53 H          -3.3597   10.9628  -10.3524 H         1 UD1712      0.0000 
     54 H          -3.1750   12.1579   -7.8847 H         1 UD1712      0.0000 
     55 H          -2.5942   13.0032  -10.4413 H         1 UD1712      0.0000 
     56 H          -2.4153   13.9643   -8.9634 H         1 UD1712      0.0000 
     57 H          -1.6724   17.3531  -19.5262 H         1 UD1712      0.0000 
     58 H          -3.0883   17.2334  -18.7732 H         1 UD1712      0.0000 
     59 H          -2.4841   18.6818  -19.1239 H         1 UD1712      0.0000 
     60 H           1.7688   14.3456  -16.5404 H         1 UD1712      0.0000 
     61 H           2.8964   14.3875  -14.4639 H         1 UD1712      0.0000 
     62 H           0.8441   17.4800  -11.9365 H         1 UD1712      0.0000 
     63 H          -5.2696    9.1662  -10.4905 H         1 UD1712      0.0000 
     64 H          -2.6486    9.8997   -8.4993 H         1 UD1712      0.0000 
@<TRIPOS>BOND
     1    2    1 1    
     2   10    1 1    
     3   13    1 1    
     4   40    1 1    
     5    3    2 1    
     6    9    2 1    
     7   41    2 1    
     8    4    3 1    
     9   11    3 1    
    10   42    3 1    
    11    5    4 1    
    12   12    4 1    
    13   43    4 1    
    14    6    5 1    
    15   13    5 1    
    16   44    5 1    
    17   14    6 1    
    18   45    6 1    
    19   46    6 1    
    20    8    7 1    
    21    9    7 am   
    22   15    7 2    
    23   57    8 1    
    24   58    8 1    
    25   59    8 1    
    26   47    9 1    
    27   37   10 1    
    28   60   11 1    
    29   61   12 1    
    30   62   14 1    
    31   17   16 1    
    32   21   16 1    
    33   24   16 1    
    34   18   17 1    
    35   22   17 2    
    36   19   18 1    
    37   48   18 1    
    38   20   19 1    
    39   23   19 2    
    40   21   20 2    
    41   49   20 1    
    42   50   21 1    
    43   25   24 1    
    44   29   24 1    
    45   51   24 1    
    46   26   25 1    
    47   27   25 1    
    48   52   25 1    
    49   63   26 1    
    50   28   27 1    
    51   30   27 1    
    52   53   27 1    
    53   29   28 1    
    54   31   28 1    
    55   54   28 1    
    56   64   30 1    
    57   32   31 1    
    58   55   31 1    
    59   56   31 1    
    60   33   32 1    
    61   34   33 ar   
    62   35   33 ar   
    63   36   33 1    
    64   37   36 1    
    65   38   37 ar   
    66   39   37 ar   
@<TRIPOS>SUBSTRUCTURE
     1 UD1712      1 GROUP   
@<TRIPOS>SET

