#    Name: 3lpb_NVB_2_INTS_M
#    Modification time : Mon Mar 24 21:58:45 2014

@<TRIPOS>MOLECULE
3lpb_NVB_2_INTS_M
   71     0     9     0     0
SMALL
NO_CHARGES


@<TRIPOS>ATOM
      1 O          81.4150  106.4345   24.4510 O.2       1 ALC1        0.0000 
      2 O          79.9910  106.9700   24.3810 O.2       7 ALL1        0.0000 
      3 O          82.8390  105.8990   24.5210 O.2       4 ALP1        0.0000 
      4 CA         77.4840  110.5390   25.2675 C.3       3 GLC5        0.0000 
      5 CA         78.8660  110.5050   23.7000 C.3       9 GLL5        0.0000 
      6 CA         76.1020  110.5730   26.8350 C.3       6 GLP5        0.0000 
      7 CA         77.2585  112.6340   23.1925 C.3       3 GLC5        0.0000 
      8 CA         78.9080  111.4580   22.6690 C.3       9 GLL5        0.0000 
      9 CA         75.6090  113.8100   23.7160 C.3       6 GLP5        0.0000 
     10 CA         79.4340  112.6840   23.8675 C.3       3 GLC5        0.0000 
     11 CA         79.9600  113.9100   25.0660 C.3       6 GLP5        0.0000 
     12 CA         79.2490  110.4375   19.9175 C.3       3 GLC5        0.0000 
     13 CA         79.9860  111.4200   21.7570 C.3       9 GLL5        0.0000 
     14 CA         78.5120  109.4550   18.0780 C.3       6 GLP5        0.0000 
     15 CA         77.6630  114.2380   20.9710 C.3       3 GLC5        0.0000 
     16 CA         79.0120  112.9000   19.9160 C.3       9 GLL5        0.0000 
     17 CA         76.3140  115.5760   22.0260 C.3       6 GLP5        0.0000 
     18 CA         76.9750  114.2870   16.4215 C.3       3 GLC5        0.0000 
     19 CA         76.8820  113.8180   18.4030 C.3       9 GLL5        0.0000 
     20 CA         77.0680  114.7560   14.4400 C.3       6 GLP5        0.0000 
     21 N          77.8775  114.9645   16.8325 N.am      2 SEC2        0.0000 
     22 N          78.1050  114.3200   18.1850 N.am      8 SEL2        0.0000 
     23 N          77.6500  115.6090   15.4800 N.am      5 SEP2        0.0000 
     24 CA         79.4480  116.0265   17.5505 C.3       3 GLC5        0.0000 
     25 CA         80.4500  114.3760   18.6190 C.3       9 GLL5        0.0000 
     26 CA         78.4460  117.6770   16.4820 C.3       6 GLP5        0.0000 
     27 CA         72.5880  115.4755   17.9990 C.3       3 GLC5        0.0000 
     28 CA         71.6620  113.7230   18.2710 C.3       9 GLL5        0.0000 
     29 CA         73.5140  117.2280   17.7270 C.3       6 GLP5        0.0000 
     30 CA         72.4900  114.4225   16.3285 C.3       3 GLC5        0.0000 
     31 CA         73.3180  115.1220   14.3860 C.3       6 GLP5        0.0000 
     32 CA         72.7750  111.9300   17.7260 C.3       3 GLC5        0.0000 
     33 CA         73.8880  110.1370   17.1810 C.3       6 GLP5        0.0000 
     34 CA         75.4190  107.3905   20.6780 C.3       3 GLC5        0.0000 
     35 CA         75.2740  108.8030   22.4090 C.3       9 GLL5        0.0000 
     36 CA         75.5640  105.9780   18.9470 C.3       6 GLP5        0.0000 
     37 CA         82.7552  108.9295   22.1137 C.3       3 GLC5        0.0000 
     38 CA         81.0080  110.4830   21.9450 C.3       9 GLL5        0.0000 
     39 CA         84.5240  107.8520   21.7660 C.3       6 GLP5        0.0000 
     40 CA         80.3975  113.7987   22.1827 C.3       3 GLC5        0.0000 
     41 CA         80.1070  112.4300   20.6520 C.3       9 GLL5        0.0000 
     42 CA         80.0470  114.8970   23.8540 C.3       6 GLP5        0.0000 
     43 CA         79.9578  111.8110   18.7710 C.3       3 GLC5        0.0000 
     44 CA         80.3560  110.9570   17.2580 C.3       6 GLP5        0.0000 
     45 CA         79.6555  115.2250   19.9932 C.3       3 GLC5        0.0000 
     46 CA         80.2140  117.0650   20.5780 C.3       6 GLP5        0.0000 
     47 CA         80.0860  112.5400   18.0090 C.3       3 GLC5        0.0000 
     48 CA         79.1820  113.8700   18.9010 C.3       9 GLL5        0.0000 
     49 CA         82.1448  113.9485   17.4667 C.3       3 GLC5        0.0000 
     50 CA         83.2810  113.7420   15.9490 C.3       6 GLP5        0.0000 
     51 CA         82.8120  114.3383   20.7987 C.3       3 GLC5        0.0000 
     52 CA         81.5670  113.9340   19.3500 C.3       9 GLL5        0.0000 
     53 CA         84.1460  115.2240   21.7370 C.3       6 GLP5        0.0000 
     54 CA         80.9170  112.2047   18.5592 C.3       3 GLC5        0.0000 
     55 CA         80.7064  115.3140   20.1279 C.3       3 GLC5        0.0000 
     56 CA         81.3890  112.9710   20.3710 C.3       9 GLL5        0.0000 
     57 CA         76.2231  114.1895   20.6881 C.3       3 GLC5        0.0000 
     58 CA         74.6697  110.9238   18.7007 C.3       3 GLC5        0.0000 
     59 CA         75.4580  112.2680   19.7940 C.3       9 GLL5        0.0000 
     60 CA         75.2225  112.3443   22.2828 C.3       3 GLC5        0.0000 
     61 CA         75.4450  111.1530   20.6470 C.3       9 GLL5        0.0000 
     62 CA         77.1409  110.6565   19.1013 C.3       3 GLC5        0.0000 
     63 CA         73.7620  110.5120   18.9998 C.3       3 GLC5        0.0000 
     64 CA         74.2270  110.6040   21.0520 C.3       9 GLL5        0.0000 
     65 CA         73.7773  111.3530   18.3613 C.3       3 GLC5        0.0000 
     66 CA         73.0560  112.2780   19.7390 C.3       9 GLL5        0.0000 
     67 CA         73.7609  113.6900   21.0730 C.3       3 GLC5        0.0000 
     68 CA         74.2770  112.8600   19.3440 C.3       9 GLL5        0.0000 
     69 CA         73.8580  115.0880   22.3930 C.3       6 GLP5        0.0000 
     70 CA         80.7518  111.6723   23.8843 C.3       3 GLC5        0.0000 
     71 CA         81.1710  112.9780   25.1550 C.3       6 GLP5        0.0000 
@<TRIPOS>BOND
@<TRIPOS>SUBSTRUCTURE
     1 ALC1        1 GROUP        1 X    ALC  0     ROOT ALC X 1
     2 SEC2       21 GROUP        1 X    SEC  0     **** SEC X 2
     3 GLC5        4 GROUP        1 X    GLC  0     **** GLC X 6
     4 ALP1        3 GROUP        1 Y    ALP  0     ROOT ALP Y 8
     5 SEP2       23 GROUP        1 Y    SEP  0     **** SEP Y 9
     6 GLP5        6 GROUP        1 Y    GLP  0     **** GLP Y 13
     7 ALL1        2 GROUP        1 Z    ALL  0     ROOT ALL Z 15
     8 SEL2       22 GROUP        1 Z    SEL  0     **** SEL Z 16
     9 GLL5        5 GROUP        1 Z    GLL  0     **** GLL Z 20
@<TRIPOS>SET

