#    Name: 3lpb_NVB_2_ligand
#    Modification time : Mon Mar 24 21:58:45 2014

@<TRIPOS>MOLECULE
3lpb_NVB_2_ligand
   56    59     1     0     0
SMALL
NO_CHARGES


@<TRIPOS>ATOM
      1 S1         79.7900  108.3740   25.1700 S.o2      1 NVB1133     0.0000 
      2 O2         78.4630  108.4090   25.7480 O.2       1 NVB1133     0.0000 
      3 O3         80.9560  108.6390   25.9830 O.2       1 NVB1133     0.0000 
      4 N4         79.9910  106.9700   24.3810 N.pl3     1 NVB1133     0.0000 
      5 C6         78.9450  106.4200   23.5240 C.3       1 NVB1133     0.0000 
      6 C10        79.8770  109.5600   23.8490 C.ar      1 NVB1133     0.0000 
      7 C11        78.8660  110.5050   23.7000 C.ar      1 NVB1133     0.0000 
      8 C13        78.9080  111.4580   22.6690 C.ar      1 NVB1133     0.0000 
      9 C15        79.9860  111.4200   21.7570 C.ar      1 NVB1133     0.0000 
     10 C16        81.0080  110.4830   21.9450 C.ar      1 NVB1133     0.0000 
     11 C18        80.9650  109.5310   22.9780 C.ar      1 NVB1133     0.0000 
     12 C20        80.1070  112.4300   20.6520 C.ar      1 NVB1133     0.0000 
     13 C21        79.0120  112.9000   19.9160 C.ar      1 NVB1133     0.0000 
     14 N22        77.7800  112.4040   20.1190 N.ar      1 NVB1133     0.0000 
     15 C23        76.7310  112.8580   19.4100 C.ar      1 NVB1133     0.0000 
     16 C24        76.8820  113.8180   18.4030 C.ar      1 NVB1133     0.0000 
     17 N26        78.1050  114.3200   18.1850 N.ar      1 NVB1133     0.0000 
     18 C27        79.1820  113.8700   18.9010 C.ar      1 NVB1133     0.0000 
     19 C28        80.4500  114.3760   18.6190 C.ar      1 NVB1133     0.0000 
     20 C30        81.5670  113.9340   19.3500 C.ar      1 NVB1133     0.0000 
     21 C32        81.3890  112.9710   20.3710 C.ar      1 NVB1133     0.0000 
     22 C34        75.4580  112.2680   19.7940 C.ar      1 NVB1133     0.0000 
     23 C35        75.4450  111.1530   20.6470 C.ar      1 NVB1133     0.0000 
     24 C37        74.2270  110.6040   21.0520 C.ar      1 NVB1133     0.0000 
     25 C38        73.0450  111.1700   20.5850 C.ar      1 NVB1133     0.0000 
     26 C39        73.0560  112.2780   19.7390 C.ar      1 NVB1133     0.0000 
     27 C40        74.2770  112.8600   19.3440 C.ar      1 NVB1133     0.0000 
     28 O42        71.7970  112.7680   19.3500 O.3       1 NVB1133     0.0000 
     29 C43        71.6620  113.7230   18.2710 C.3       1 NVB1133     0.0000 
     30 O47        71.8010  110.6610   20.9710 O.3       1 NVB1133     0.0000 
     31 C48        71.0930  111.1950   22.1210 C.3       1 NVB1133     0.0000 
     32 O52        74.1220  109.4860   21.8870 O.3       1 NVB1133     0.0000 
     33 C53        75.2740  108.8030   22.4090 C.3       1 NVB1133     0.0000 
     34 H          80.8670  106.5279   24.5285 H         1 NVB1133     0.0000 
     35 H          78.0676  110.5101   24.3570 H         1 NVB1133     0.0000 
     36 H          78.1830  112.1586   22.5784 H         1 NVB1133     0.0000 
     37 H          81.8244  110.4890   21.3030 H         1 NVB1133     0.0000 
     38 H          81.7033  108.8482   23.0817 H         1 NVB1133     0.0000 
     39 H          76.0633  114.1102   17.8632 H         1 NVB1133     0.0000 
     40 H          80.5744  115.0738   17.8763 H         1 NVB1133     0.0000 
     41 H          82.4940  114.3001   19.1499 H         1 NVB1133     0.0000 
     42 H          82.1989  112.6570   20.9188 H         1 NVB1133     0.0000 
     43 H          76.3275  110.7465   20.9690 H         1 NVB1133     0.0000 
     44 H          74.2903  113.6791   18.7541 H         1 NVB1133     0.0000 
     45 H          78.7113  107.0425   22.7771 H         1 NVB1133     0.0000 
     46 H          79.2229  105.5542   23.1078 H         1 NVB1133     0.0000 
     47 H          78.1025  106.2435   24.0330 H         1 NVB1133     0.0000 
     48 H          72.1569  114.5708   18.4613 H         1 NVB1133     0.0000 
     49 H          72.0188  113.3625   17.4092 H         1 NVB1133     0.0000 
     50 H          70.7064  113.9709   18.1118 H         1 NVB1133     0.0000 
     51 H          71.6230  111.0945   22.9630 H         1 NVB1133     0.0000 
     52 H          70.8935  112.1691   22.0148 H         1 NVB1133     0.0000 
     53 H          70.2193  110.7311   22.2675 H         1 NVB1133     0.0000 
     54 H          75.8571  108.4469   21.6788 H         1 NVB1133     0.0000 
     55 H          75.8414  109.4065   22.9692 H         1 NVB1133     0.0000 
     56 H          75.0164  108.0261   22.9836 H         1 NVB1133     0.0000 
@<TRIPOS>BOND
     1    2    1 2    
     2    3    1 2    
     3    4    1 1    
     4    6    1 1    
     5    5    4 1    
     6   34    4 1    
     7   45    5 1    
     8   46    5 1    
     9   47    5 1    
    10    7    6 ar   
    11   11    6 ar   
    12    8    7 ar   
    13   35    7 1    
    14    9    8 ar   
    15   36    8 1    
    16   10    9 ar   
    17   12    9 1    
    18   11   10 ar   
    19   37   10 1    
    20   38   11 1    
    21   13   12 ar   
    22   21   12 ar   
    23   14   13 ar   
    24   18   13 ar   
    25   15   14 ar   
    26   16   15 ar   
    27   22   15 1    
    28   17   16 ar   
    29   39   16 1    
    30   18   17 ar   
    31   19   18 ar   
    32   20   19 ar   
    33   40   19 1    
    34   21   20 ar   
    35   41   20 1    
    36   42   21 1    
    37   23   22 ar   
    38   27   22 ar   
    39   24   23 ar   
    40   43   23 1    
    41   25   24 ar   
    42   32   24 1    
    43   26   25 ar   
    44   30   25 1    
    45   27   26 ar   
    46   28   26 1    
    47   44   27 1    
    48   29   28 1    
    49   48   29 1    
    50   49   29 1    
    51   50   29 1    
    52   31   30 1    
    53   51   31 1    
    54   52   31 1    
    55   53   31 1    
    56   33   32 1    
    57   54   33 1    
    58   55   33 1    
    59   56   33 1    
@<TRIPOS>SUBSTRUCTURE
     1 NVB1133     1 GROUP   
@<TRIPOS>SET

