#    Name: 3r9i_ADP_4_INTS_M
#    Modification time : Mon Apr  7 19:59:41 2014

@<TRIPOS>MOLECULE
3r9i_ADP_4_INTS_M
   69     0    12     0     0
SMALL
NO_CHARGES


@<TRIPOS>ATOM
      1 NZ        -33.8255   39.5180  -38.3240 N.4       3 LYC4        0.0000 
      2 NZ        -32.8080   39.2380  -37.2440 N.4      11 LYL4        0.0000 
      3 NZ        -34.8430   39.7980  -39.4040 N.4       7 LYP4        0.0000 
      4 N         -33.2695   37.8640  -36.5855 N.am      2 SEC2        0.0000 
      5 N         -32.8080   39.2380  -37.2440 N.am     10 SEL2        0.0000 
      6 N         -33.7310   36.4900  -35.9270 N.am      6 SEP2        0.0000 
      7 N         -31.9470   38.0270  -36.8665 N.am      2 SEC2        0.0000 
      8 N         -31.0860   36.8160  -36.4890 N.am      6 SEP2        0.0000 
      9 N         -31.5470   38.9365  -37.8385 N.am      2 SEC2        0.0000 
     10 N         -30.2860   38.6350  -38.4330 N.am      6 SEP2        0.0000 
     11 N         -33.8255   39.5180  -38.3240 N.am      2 SEC2        0.0000 
     12 N         -34.8430   39.7980  -39.4040 N.am      6 SEP2        0.0000 
     13 N         -30.4650   41.4030  -37.4970 N.am      2 SEC2        0.0000 
     14 N         -31.6300   41.4390  -36.7580 N.am     10 SEL2        0.0000 
     15 N         -29.3000   41.3670  -38.2360 N.am      6 SEP2        0.0000 
     16 N         -30.9315   42.6740  -36.9380 N.am      2 SEC2        0.0000 
     17 N         -30.2330   43.9090  -37.1180 N.am      6 SEP2        0.0000 
     18 NZ        -33.3970   41.9955  -34.3650 N.4       3 LYC4        0.0000 
     19 NZ        -33.8200   40.9070  -35.7330 N.4      11 LYL4        0.0000 
     20 NZ        -32.9740   43.0840  -32.9970 N.4       7 LYP4        0.0000 
     21 NZ        -34.3315   40.3525  -37.5685 N.4       3 LYC4        0.0000 
     22 N         -34.8395   39.6925  -35.5660 N.am      2 SEC2        0.0000 
     23 N         -33.8200   40.9070  -35.7330 N.am     10 SEL2        0.0000 
     24 N         -35.8590   38.4780  -35.3990 N.am      6 SEP2        0.0000 
     25 NZ        -31.9420   42.2305  -33.3140 N.4       3 LYC4        0.0000 
     26 NZ        -30.9100   41.3770  -33.6310 N.4      11 LYL4        0.0000 
     27 N         -31.9420   42.2305  -33.3140 N.am      2 SEC2        0.0000 
     28 N         -30.9100   41.3770  -33.6310 N.am     10 SEL2        0.0000 
     29 N         -32.9740   43.0840  -32.9970 N.am      6 SEP2        0.0000 
     30 N         -28.1370   40.4105  -35.9310 N.am      2 SEC2        0.0000 
     31 N         -29.3000   39.9130  -35.1530 N.am     10 SEL2        0.0000 
     32 N         -26.9740   40.9080  -36.7090 N.am      6 SEP2        0.0000 
     33 N         -27.9945   39.6965  -34.6885 N.am      2 SEC2        0.0000 
     34 N         -26.6890   39.4800  -34.2240 N.am      6 SEP2        0.0000 
     35 N         -31.4575   38.1910  -35.8325 N.am      2 SEC2        0.0000 
     36 N         -31.8290   39.5660  -35.1760 N.am     10 SEL2        0.0000 
     37 CA        -33.2655   38.1785  -33.4550 C.3       4 GLC5        0.0000 
     38 CA        -31.6210   38.3530  -32.4980 C.3      12 GLL5        0.0000 
     39 CA        -34.9100   38.0040  -34.4120 C.3       8 GLP5        0.0000 
     40 O         -31.7960   39.6280  -28.8495 O.2       1 ALC1        0.0000 
     41 O         -30.6610   39.1200  -29.1070 O.2       9 ALL1        0.0000 
     42 O         -32.9310   40.1360  -28.5920 O.2       5 ALP1        0.0000 
     43 CA        -26.8475   37.9435  -30.8070 C.3       4 GLC5        0.0000 
     44 CA        -28.8810   38.2280  -30.4920 C.3      12 GLL5        0.0000 
     45 CA        -24.8140   37.6590  -31.1220 C.3       8 GLP5        0.0000 
     46 CA        -25.4645   31.4955  -31.4495 C.3       4 GLC5        0.0000 
     47 CA        -25.7580   33.4500  -32.1200 C.3      12 GLL5        0.0000 
     48 CA        -25.1710   29.5410  -30.7790 C.3       8 GLP5        0.0000 
     49 CA        -24.4645   34.6315  -31.8110 C.3       4 GLC5        0.0000 
     50 CA        -23.1710   35.8130  -31.5020 C.3       8 GLP5        0.0000 
     51 O         -24.2240   31.7660  -32.9710 O.2       1 ALC1        0.0000 
     52 O         -25.0600   33.0020  -33.1860 O.2       9 ALL1        0.0000 
     53 O         -23.3880   30.5300  -32.7560 O.2       5 ALP1        0.0000 
     54 N         -24.6790   32.0200  -30.2550 N.am      2 SEC2        0.0000 
     55 N         -25.6010   32.9190  -30.9020 N.am     10 SEL2        0.0000 
     56 N         -23.7570   31.1210  -29.6080 N.am      6 SEP2        0.0000 
     57 CA        -25.7310   31.4335  -30.3035 C.3       4 GLC5        0.0000 
     58 CA        -26.2910   33.3260  -29.8280 C.3      12 GLL5        0.0000 
     59 CA        -24.4020   32.4330  -29.4125 C.3       4 GLC5        0.0000 
     60 CA        -22.5130   31.5400  -28.9970 C.3       8 GLP5        0.0000 
     61 CA        -25.0930   34.9945  -30.1375 C.3       4 GLC5        0.0000 
     62 CA        -23.8950   36.6630  -30.4470 C.3       8 GLP5        0.0000 
     63 CA        -28.8885   33.7775  -31.7650 C.3       4 GLC5        0.0000 
     64 CA        -27.4530   34.9580  -31.0190 C.3      12 GLL5        0.0000 
     65 CA        -30.3240   32.5970  -32.5110 C.3       8 GLP5        0.0000 
     66 CA        -27.7342   32.9805  -32.7538 C.3       4 GLC5        0.0000 
     67 CA        -26.7330   34.5380  -32.2270 C.3      12 GLL5        0.0000 
     68 CA        -29.2230   31.9670  -33.3340 C.3       8 GLP5        0.0000 
     69 CA        -25.9535   36.2035  -31.3725 C.3       4 GLC5        0.0000 
@<TRIPOS>BOND
@<TRIPOS>SUBSTRUCTURE
     1 ALC1       40 GROUP        1 X    ALC  0     ROOT ALC X 1
     2 SEC2        4 GROUP        1 X    SEC  0     **** SEC X 2
     3 LYC4        1 GROUP        1 X    LYC  0     **** LYC X 4
     4 GLC5       37 GROUP        1 X    GLC  0     **** GLC X 6
     5 ALP1       42 GROUP        1 Y    ALP  0     ROOT ALP Y 8
     6 SEP2        6 GROUP        1 Y    SEP  0     **** SEP Y 9
     7 LYP4        3 GROUP        1 Y    LYP  0     **** LYP Y 11
     8 GLP5       39 GROUP        1 Y    GLP  0     **** GLP Y 13
     9 ALL1       41 GROUP        1 Z    ALL  0     ROOT ALL Z 15
    10 SEL2        5 GROUP        1 Z    SEL  0     **** SEL Z 16
    11 LYL4        2 GROUP        1 Z    LYL  0     **** LYL Z 18
    12 GLL5       38 GROUP        1 Z    GLL  0     **** GLL Z 20
@<TRIPOS>SET

