#    Name: 3r9i_ADP_4_ligand
#    Modification time : Mon Apr  7 19:59:41 2014

@<TRIPOS>MOLECULE
3r9i_ADP_4_ligand
   39    41     1     0     0
SMALL
NO_CHARGES


@<TRIPOS>ATOM
      1 PB        -32.5760   40.3640  -36.3280 P.3       1 ADP261      0.0000 
      2 O1B       -32.8080   39.2380  -37.2440 O.co2     1 ADP261      0.0000 
      3 O2B       -31.6300   41.4390  -36.7580 O.co2     1 ADP261      0.0000 
      4 O3B       -33.8200   40.9070  -35.7330 O.co2     1 ADP261      0.0000 
      5 PA        -30.5580   40.0610  -34.3080 P.3       1 ADP261      0.0000 
      6 O1A       -30.9100   41.3770  -33.6310 O.co2     1 ADP261      0.0000 
      7 O2A       -29.3000   39.9130  -35.1530 O.co2     1 ADP261      0.0000 
      8 O3A       -31.8290   39.5660  -35.1760 O.3       1 ADP261      0.0000 
      9 O5'       -30.5020   38.9730  -33.1270 O.3       1 ADP261      0.0000 
     10 C5'       -31.6210   38.3530  -32.4980 C.3       1 ADP261      0.0000 
     11 C4'       -31.1820   37.8650  -31.1040 C.3       1 ADP261      0.0000 
     12 O4'       -30.4460   36.6490  -31.1960 O.3       1 ADP261      0.0000 
     13 C3'       -30.2570   38.8800  -30.4590 C.3       1 ADP261      0.0000 
     14 O3'       -30.6610   39.1200  -29.1070 O.3       1 ADP261      0.0000 
     15 C2'       -28.8810   38.2280  -30.4920 C.3       1 ADP261      0.0000 
     16 O2'       -28.0800   38.7320  -29.4060 O.3       1 ADP261      0.0000 
     17 C1'       -29.1880   36.7270  -30.5380 C.3       1 ADP261      0.0000 
     18 N9        -28.2510   35.9540  -31.3790 N.pl3     1 ADP261      0.0000 
     19 C8        -28.0760   36.1640  -32.6890 C.2       1 ADP261      0.0000 
     20 N7        -27.1570   35.3180  -33.2140 N.2       1 ADP261      0.0000 
     21 C5        -26.7330   34.5380  -32.2270 C.ar      1 ADP261      0.0000 
     22 C6        -25.7580   33.4500  -32.1200 C.ar      1 ADP261      0.0000 
     23 N6        -25.0600   33.0020  -33.1860 N.pl3     1 ADP261      0.0000 
     24 N1        -25.6010   32.9190  -30.9020 N.ar      1 ADP261      0.0000 
     25 C2        -26.2910   33.3260  -29.8280 C.ar      1 ADP261      0.0000 
     26 N3        -27.1940   34.3170  -29.8660 N.ar      1 ADP261      0.0000 
     27 C4        -27.4530   34.9580  -31.0190 C.ar      1 ADP261      0.0000 
     28 H         -31.9765   37.4856  -33.0525 H         1 ADP261      0.0000 
     29 H         -32.4500   39.0453  -32.3574 H         1 ADP261      0.0000 
     30 H         -32.0486   37.7565  -30.4862 H         1 ADP261      0.0000 
     31 H         -30.2360   39.7516  -31.0541 H         1 ADP261      0.0000 
     32 H         -28.4576   38.4997  -31.4684 H         1 ADP261      0.0000 
     33 H         -29.2462   36.3474  -29.5614 H         1 ADP261      0.0000 
     34 H         -28.5536   36.8492  -33.2167 H         1 ADP261      0.0000 
     35 H         -24.4418   32.2345  -33.0162 H         1 ADP261      0.0000 
     36 H         -25.2234   33.4776  -34.0504 H         1 ADP261      0.0000 
     37 H         -26.1137   32.8378  -28.8958 H         1 ADP261      0.0000 
     38 H         -31.5830   39.5009  -29.1763 H         1 ADP261      0.0000 
     39 H         -28.7097   39.2747  -28.8503 H         1 ADP261      0.0000 
@<TRIPOS>BOND
     1    2    1 ar   
     2    3    1 ar   
     3    4    1 ar   
     4    8    1 1    
     5    6    5 ar   
     6    7    5 ar   
     7    8    5 1    
     8    9    5 1    
     9   10    9 1    
    10   11   10 1    
    11   28   10 1    
    12   29   10 1    
    13   12   11 1    
    14   13   11 1    
    15   30   11 1    
    16   17   12 1    
    17   14   13 1    
    18   15   13 1    
    19   31   13 1    
    20   38   14 1    
    21   16   15 1    
    22   17   15 1    
    23   32   15 1    
    24   39   16 1    
    25   18   17 1    
    26   33   17 1    
    27   19   18 1    
    28   27   18 1    
    29   20   19 2    
    30   34   19 1    
    31   21   20 1    
    32   22   21 ar   
    33   27   21 ar   
    34   23   22 1    
    35   24   22 ar   
    36   35   23 1    
    37   36   23 1    
    38   25   24 ar   
    39   26   25 ar   
    40   37   25 1    
    41   27   26 ar   
@<TRIPOS>SUBSTRUCTURE
     1 ADP261      1 GROUP   
@<TRIPOS>SET

