#    Name: 4krs_1SX_1_INTS_M
#    Modification time : Tue Mar 25 08:51:34 2014

@<TRIPOS>MOLECULE
4krs_1SX_1_INTS_M
   49     0     9     0     0
SMALL
NO_CHARGES


@<TRIPOS>ATOM
      1 CA        -21.0895   -2.4130    6.7365 C.3       3 GLC5        0.0000 
      2 CA        -22.8140   -3.0830    7.5640 C.3       9 GLL5        0.0000 
      3 CA        -19.3650   -1.7430    5.9090 C.3       6 GLP5        0.0000 
      4 CA        -25.4125   -2.7590    4.8620 C.3       3 GLC5        0.0000 
      5 CA        -25.1050   -2.9280    6.9440 C.3       9 GLL5        0.0000 
      6 CA        -25.7200   -2.5900    2.7800 C.3       6 GLP5        0.0000 
      7 CA        -21.2100   -1.1745    5.6830 C.3       3 GLC5        0.0000 
      8 CA        -23.0550   -0.6060    5.4570 C.3       9 GLL5        0.0000 
      9 CA        -24.3875   -1.5980    4.1185 C.3       3 GLC5        0.0000 
     10 CA        -24.6810  -12.1160    9.9070 C.3       3 GLC5        0.0000 
     11 CA        -25.0230  -11.9390    7.8910 C.3       9 GLL5        0.0000 
     12 CA        -24.3390  -12.2930   11.9230 C.3       6 GLP5        0.0000 
     13 CA        -24.0655  -13.5955    8.2195 C.3       3 GLC5        0.0000 
     14 CA        -23.1080  -15.2520    8.5480 C.3       6 GLP5        0.0000 
     15 CA        -24.6535  -13.2745    6.3435 C.3       3 GLC5        0.0000 
     16 CA        -24.2840  -14.6100    4.7960 C.3       6 GLP5        0.0000 
     17 CA        -27.1700   -7.8390    6.9585 C.3       3 GLC5        0.0000 
     18 CA        -25.5870   -9.3880    7.1840 C.3       9 GLL5        0.0000 
     19 CA        -28.7530   -6.2900    6.7330 C.3       6 GLP5        0.0000 
     20 CA        -26.3875   -9.3570    8.6300 C.3       3 GLC5        0.0000 
     21 CA        -27.1880   -9.3260   10.0760 C.3       6 GLP5        0.0000 
     22 N         -21.4720  -11.6945    8.4455 N.am      2 SEC2        0.0000 
     23 N         -22.6300  -10.7320    8.4990 N.am      8 SEL2        0.0000 
     24 N         -20.3140  -12.6570    8.3920 N.am      5 SEP2        0.0000 
     25 N         -20.8465   -9.0460    8.6305 N.am      2 SEC2        0.0000 
     26 N         -22.2260   -9.3580    8.3910 N.am      8 SEL2        0.0000 
     27 N         -19.4670   -8.7340    8.8700 N.am      5 SEP2        0.0000 
     28 O         -21.9040   -6.8975    7.7560 O.2       1 ALC1        0.0000 
     29 O         -23.2560   -7.3990    7.6910 O.2       7 ALL1        0.0000 
     30 O         -20.5520   -6.3960    7.8210 O.2       4 ALP1        0.0000 
     31 CA        -21.0805   -0.8720    6.8925 C.3       3 GLC5        0.0000 
     32 CA        -22.7960   -0.0010    7.8760 C.3       9 GLL5        0.0000 
     33 CA        -21.3575    0.9610    8.0410 C.3       3 GLC5        0.0000 
     34 CA        -19.9190    1.9230    8.2060 C.3       6 GLP5        0.0000 
     35 CA        -25.9970   -0.8665    4.9950 C.3       3 GLC5        0.0000 
     36 CA        -25.0950   -0.0320    6.8670 C.3       9 GLL5        0.0000 
     37 CA        -26.8990   -1.7010    3.1230 C.3       6 GLP5        0.0000 
     38 CA        -26.3165  -10.3565    8.6818 C.3       3 GLC5        0.0000 
     39 CA        -25.8670  -10.8350    6.6840 C.3       9 GLL5        0.0000 
     40 CA        -25.1530   -9.8422    5.2190 C.3       3 GLC5        0.0000 
     41 CA        -24.5790   -9.5730    3.5040 C.3       6 GLP5        0.0000 
     42 CA        -22.6647   -6.0200    6.1392 C.3       3 GLC5        0.0000 
     43 CA        -24.1960   -5.0780    7.6180 C.3       9 GLL5        0.0000 
     44 CA        -21.7460   -7.2760    4.5680 C.3       6 GLP5        0.0000 
     45 CA        -21.2057   -3.7117    8.2662 C.3       3 GLC5        0.0000 
     46 CA        -22.9710   -4.4500    7.8030 C.3       9 GLL5        0.0000 
     47 CA        -19.5190   -3.6570    8.8490 C.3       6 GLP5        0.0000 
     48 CA        -26.9778   -4.0440    7.7635 C.3       3 GLC5        0.0000 
     49 CA        -28.7670   -4.4750    8.4620 C.3       6 GLP5        0.0000 
@<TRIPOS>BOND
@<TRIPOS>SUBSTRUCTURE
     1 ALC1       28 GROUP        1 X    ALC  0     ROOT ALC X 1
     2 SEC2       22 GROUP        1 X    SEC  0     **** SEC X 2
     3 GLC5        1 GROUP        1 X    GLC  0     **** GLC X 6
     4 ALP1       30 GROUP        1 Y    ALP  0     ROOT ALP Y 8
     5 SEP2       24 GROUP        1 Y    SEP  0     **** SEP Y 9
     6 GLP5        3 GROUP        1 Y    GLP  0     **** GLP Y 13
     7 ALL1       29 GROUP        1 Z    ALL  0     ROOT ALL Z 15
     8 SEL2       23 GROUP        1 Z    SEL  0     **** SEL Z 16
     9 GLL5        2 GROUP        1 Z    GLL  0     **** GLL Z 20
@<TRIPOS>SET

