#    Name: 4krs_1SX_1_ligand
#    Modification time : Tue Mar 25 08:51:34 2014

@<TRIPOS>MOLECULE
4krs_1SX_1_ligand
   39    41     1     0     0
SMALL
NO_CHARGES


@<TRIPOS>ATOM
      1 C2        -25.8670  -10.8350    6.6840 C.3       1 1SX1406     0.0000 
      2 C12       -23.2450   -8.7450    7.9160 C.2       1 1SX1406     0.0000 
      3 C15       -24.3160   -6.5610    7.8950 C.2       1 1SX1406     0.0000 
      4 C17       -24.1960   -5.0780    7.6180 C.ar      1 1SX1406     0.0000 
      5 C18       -22.9710   -4.4500    7.8030 C.ar      1 1SX1406     0.0000 
      6 C20       -22.8140   -3.0830    7.5640 C.ar      1 1SX1406     0.0000 
      7 C22       -23.8740   -2.2820    7.1360 C.ar      1 1SX1406     0.0000 
      8 C23       -25.1050   -2.9280    6.9440 C.ar      1 1SX1406     0.0000 
      9 C25       -25.2720   -4.2980    7.1860 C.ar      1 1SX1406     0.0000 
     10 C27       -23.7080   -0.7540    6.8570 C.3       1 1SX1406     0.0000 
     11 C28       -23.0550   -0.6060    5.4570 C.3       1 1SX1406     0.0000 
     12 S1        -25.0230  -11.9390    7.8910 S.3       1 1SX1406     0.0000 
     13 C5        -25.5870   -9.3880    7.1840 C.3       1 1SX1406     0.0000 
     14 N8        -24.2390   -9.5570    7.7140 N.pl3     1 1SX1406     0.0000 
     15 C9        -23.8300  -10.7100    8.0800 C.2       1 1SX1406     0.0000 
     16 N10       -22.6300  -10.7320    8.4990 N.2       1 1SX1406     0.0000 
     17 N11       -22.2260   -9.3580    8.3910 N.2       1 1SX1406     0.0000 
     18 N13       -23.2560   -7.3990    7.6910 N.am      1 1SX1406     0.0000 
     19 O16       -25.4190   -6.9160    8.3260 O.2       1 1SX1406     0.0000 
     20 C32       -22.7960   -0.0010    7.8760 C.3       1 1SX1406     0.0000 
     21 C36       -25.0950   -0.0320    6.8670 C.3       1 1SX1406     0.0000 
     22 H         -26.8582  -11.1219    6.7790 H         1 1SX1406     0.0000 
     23 H         -25.3839  -11.0680    5.7974 H         1 1SX1406     0.0000 
     24 H         -22.1559   -5.0035    8.1245 H         1 1SX1406     0.0000 
     25 H         -21.8799   -2.6494    7.7092 H         1 1SX1406     0.0000 
     26 H         -25.9176   -2.3721    6.6119 H         1 1SX1406     0.0000 
     27 H         -26.1943   -4.7313    7.0441 H         1 1SX1406     0.0000 
     28 H         -26.2852   -9.1602    7.9373 H         1 1SX1406     0.0000 
     29 H         -25.6100   -8.7434    6.3529 H         1 1SX1406     0.0000 
     30 H         -22.3467   -6.9561    7.3187 H         1 1SX1406     0.0000 
     31 H         -22.1592   -1.0487    5.4163 H         1 1SX1406     0.0000 
     32 H         -23.6177   -1.0166    4.7395 H         1 1SX1406     0.0000 
     33 H         -22.9193    0.3535    5.2101 H         1 1SX1406     0.0000 
     34 H         -21.8688   -0.3753    7.8917 H         1 1SX1406     0.0000 
     35 H         -22.7160    0.9710    7.6551 H         1 1SX1406     0.0000 
     36 H         -23.1523   -0.0613    8.8084 H         1 1SX1406     0.0000 
     37 H         -25.0050    0.9477    6.6877 H         1 1SX1406     0.0000 
     38 H         -25.7112   -0.4018    6.1717 H         1 1SX1406     0.0000 
     39 H         -25.5570   -0.1274    7.7487 H         1 1SX1406     0.0000 
@<TRIPOS>BOND
     1   12    1 1    
     2   13    1 1    
     3   22    1 1    
     4   23    1 1    
     5   14    2 1    
     6   17    2 2    
     7   18    2 1    
     8    4    3 1    
     9   18    3 am   
    10   19    3 2    
    11    5    4 ar   
    12    9    4 ar   
    13    6    5 ar   
    14   24    5 1    
    15    7    6 ar   
    16   25    6 1    
    17    8    7 ar   
    18   10    7 1    
    19    9    8 ar   
    20   26    8 1    
    21   27    9 1    
    22   11   10 1    
    23   20   10 1    
    24   21   10 1    
    25   31   11 1    
    26   32   11 1    
    27   33   11 1    
    28   15   12 1    
    29   14   13 1    
    30   28   13 1    
    31   29   13 1    
    32   15   14 1    
    33   16   15 2    
    34   17   16 1    
    35   30   18 1    
    36   34   20 1    
    37   35   20 1    
    38   36   20 1    
    39   37   21 1    
    40   38   21 1    
    41   39   21 1    
@<TRIPOS>SUBSTRUCTURE
     1 1SX1406     1 GROUP   
@<TRIPOS>SET

