#    Name: 2vo0_M03_2_INTS_M
#    Modification time : Tue Mar 25 02:14:10 2014

@<TRIPOS>MOLECULE
2vo0_M03_2_INTS_M
   62     0     9     0     0
SMALL
NO_CHARGES


@<TRIPOS>ATOM
      1 CA         -7.3390  -10.8995   -6.1675 C.3       3 GLC5        0.0000 
      2 CA         -7.1730   -9.8770   -7.8740 C.3       9 GLL5        0.0000 
      3 CA         -7.5050  -11.9220   -4.4610 C.3       6 GLP5        0.0000 
      4 CA         -6.5585   -8.7670   -6.3890 C.3       3 GLC5        0.0000 
      5 CA         -5.9440   -7.6570   -4.9040 C.3       6 GLP5        0.0000 
      6 CA         -6.3400  -11.2355  -10.4260 C.3       3 GLC5        0.0000 
      7 CA         -7.9380  -10.4230   -9.0750 C.3       9 GLL5        0.0000 
      8 CA         -4.7420  -12.0480  -11.7770 C.3       6 GLP5        0.0000 
      9 CA         -8.0600  -11.9335   -7.7255 C.3       3 GLC5        0.0000 
     10 CA         -8.1820  -13.4440   -6.3760 C.3       6 GLP5        0.0000 
     11 CA         -8.1155   -8.5325  -12.7230 C.3       3 GLC5        0.0000 
     12 CA         -8.9990   -9.9030  -11.3220 C.3       9 GLL5        0.0000 
     13 CA         -7.2320   -7.1620  -14.1240 C.3       6 GLP5        0.0000 
     14 O         -10.2035  -11.1445  -12.4530 O.2       1 ALC1        0.0000 
     15 O         -10.1580  -10.8220  -11.1190 O.2       7 ALL1        0.0000 
     16 O         -10.2490  -11.4670  -13.7870 O.2       4 ALP1        0.0000 
     17 O         -11.4465  -11.0195  -10.2190 O.2       1 ALC1        0.0000 
     18 O         -12.7350  -11.2170   -9.3190 O.2       4 ALP1        0.0000 
     19 CA         -6.9845   -7.3240  -11.7250 C.3       3 GLC5        0.0000 
     20 CA         -7.2080   -8.4440  -10.3640 C.3       9 GLL5        0.0000 
     21 CA         -6.7610   -6.2040  -13.0860 C.3       6 GLP5        0.0000 
     22 CA         -5.7235   -6.6555  -10.4130 C.3       3 GLC5        0.0000 
     23 CA         -6.4460   -7.9790   -9.1360 C.3       9 GLL5        0.0000 
     24 CA         -5.0010   -5.3320  -11.6900 C.3       6 GLP5        0.0000 
     25 CA         -6.4140   -7.2780   -7.4970 C.3       3 GLC5        0.0000 
     26 CA         -6.3820   -6.5770   -5.8580 C.3       6 GLP5        0.0000 
     27 CA        -11.0145   -7.9440   -5.7995 C.3       3 GLC5        0.0000 
     28 CA        -11.3450   -8.3090   -7.7620 C.3       9 GLL5        0.0000 
     29 CA        -10.6840   -7.5790   -3.8370 C.3       6 GLP5        0.0000 
     30 CA        -10.1245  -10.5810   -6.7380 C.3       3 GLC5        0.0000 
     31 CA        -10.3080   -9.0290   -8.3120 C.3       9 GLL5        0.0000 
     32 CA         -9.9410  -12.1330   -5.1640 C.3       6 GLP5        0.0000 
     33 CA         -5.3905   -8.7505   -6.7370 C.3       3 GLC5        0.0000 
     34 CA         -4.8370   -9.8440   -8.5700 C.3       9 GLL5        0.0000 
     35 CA         -4.2545  -11.9680  -10.1385 C.3       3 GLC5        0.0000 
     36 CA         -3.7670  -11.8880   -8.5000 C.3       9 GLL5        0.0000 
     37 CA         -2.4795  -10.8140   -7.4165 C.3       3 GLC5        0.0000 
     38 CA         -1.1920   -9.7400   -6.3330 C.3       6 GLP5        0.0000 
     39 CA         -3.5315  -12.6655   -6.6645 C.3       3 GLC5        0.0000 
     40 CA         -3.2960  -13.4430   -4.8290 C.3       6 GLP5        0.0000 
     41 N          -1.6555  -12.2680   -9.3040 N.am      2 SEC2        0.0000 
     42 N          -2.5750  -11.4750   -8.9430 N.am      8 SEL2        0.0000 
     43 N          -0.7360  -13.0610   -9.6650 N.am      5 SEP2        0.0000 
     44 O          -0.4060  -10.1330  -10.0700 O.2       1 ALC1        0.0000 
     45 O          -1.5020   -9.4250   -9.6810 O.2       7 ALL1        0.0000 
     46 O           0.6900  -10.8410  -10.4590 O.2       4 ALP1        0.0000 
     47 CA         -2.3885   -9.4760  -11.4000 C.3       3 GLC5        0.0000 
     48 CA         -1.8600   -8.1260   -9.7690 C.3       9 GLL5        0.0000 
     49 CA         -2.9170  -10.8260  -13.0310 C.3       6 GLP5        0.0000 
     50 CA         -1.8395   -6.9800  -11.6455 C.3       3 GLC5        0.0000 
     51 CA         -1.8190   -5.8340  -13.5220 C.3       6 GLP5        0.0000 
     52 CA         -0.0425   -8.6995  -10.8520 C.3       3 GLC5        0.0000 
     53 CA          1.7750   -9.2730  -11.9350 C.3       6 GLP5        0.0000 
     54 CA        -13.4730   -8.2600   -8.2888 C.3       3 GLC5        0.0000 
     55 CA        -11.6550   -7.0580   -8.2600 C.3       9 GLL5        0.0000 
     56 CA        -14.6400   -9.9130   -8.6620 C.3       6 GLP5        0.0000 
     57 CA        -12.7332   -9.2910   -8.3495 C.3       3 GLC5        0.0000 
     58 CA         -4.0711  -10.9522  -10.3891 C.3       3 GLC5        0.0000 
     59 CA         -2.5640  -10.1510   -9.2030 C.3       9 GLL5        0.0000 
     60 CA         -2.2961   -9.7982   -7.6671 C.3       3 GLC5        0.0000 
     61 CA         -1.8555   -8.9030   -7.9555 C.3       3 GLC5        0.0000 
     62 CA         -3.1780   -8.0060   -9.3870 C.3       9 GLL5        0.0000 
@<TRIPOS>BOND
@<TRIPOS>SUBSTRUCTURE
     1 ALC1       14 GROUP        1 X    ALC  0     ROOT ALC X 1
     2 SEC2       41 GROUP        1 X    SEC  0     **** SEC X 2
     3 GLC5        1 GROUP        1 X    GLC  0     **** GLC X 6
     4 ALP1       16 GROUP        1 Y    ALP  0     ROOT ALP Y 8
     5 SEP2       43 GROUP        1 Y    SEP  0     **** SEP Y 9
     6 GLP5        3 GROUP        1 Y    GLP  0     **** GLP Y 13
     7 ALL1       15 GROUP        1 Z    ALL  0     ROOT ALL Z 15
     8 SEL2       42 GROUP        1 Z    SEL  0     **** SEL Z 16
     9 GLL5        2 GROUP        1 Z    GLL  0     **** GLL Z 20
@<TRIPOS>SET

