#    Name: 2vo0_M03_2_ligand
#    Modification time : Tue Mar 25 02:14:10 2014

@<TRIPOS>MOLECULE
2vo0_M03_2_ligand
   45    48     1     0     0
SMALL
NO_CHARGES


@<TRIPOS>ATOM
      1 N1         -5.9950   -9.1270   -8.3280 N.3       1 M031355     0.0000 
      2 C2         -7.1730   -9.8770   -7.8740 C.3       1 M031355     0.0000 
      3 C3         -7.9380  -10.4230   -9.0750 C.3       1 M031355     0.0000 
      4 C4         -8.4340   -9.3050  -10.0060 C.3       1 M031355     0.0000 
      5 C5         -8.9990   -9.9030  -11.3220 C.3       1 M031355     0.0000 
      6 N6        -10.1580  -10.8220  -11.1190 N.4       1 M031355     0.0000 
      7 C7         -7.2080   -8.4440  -10.3640 C.3       1 M031355     0.0000 
      8 C8         -6.4460   -7.9790   -9.1360 C.3       1 M031355     0.0000 
      9 C9         -9.5550   -8.4950   -9.3570 C.ar      1 M031355     0.0000 
     10 C10        -9.8870   -7.2400   -9.8570 C.ar      1 M031355     0.0000 
     11 C11       -10.9260   -6.5260   -9.3090 C.ar      1 M031355     0.0000 
     12 C12       -11.6550   -7.0580   -8.2600 C.ar      1 M031355     0.0000 
     13 CL1       -12.9570   -6.1560   -7.5710 Cl        1 M031355     0.0000 
     14 C14       -11.3450   -8.3090   -7.7620 C.ar      1 M031355     0.0000 
     15 C15       -10.3080   -9.0290   -8.3120 C.ar      1 M031355     0.0000 
     16 C16        -4.8370   -9.8440   -8.5700 C.ar      1 M031355     0.0000 
     17 N17        -4.8740  -11.1710   -8.2880 N.ar      1 M031355     0.0000 
     18 C18        -3.7670  -11.8880   -8.5000 C.ar      1 M031355     0.0000 
     19 N19        -2.5750  -11.4750   -8.9430 N.ar      1 M031355     0.0000 
     20 C20        -2.5640  -10.1510   -9.2030 C.ar      1 M031355     0.0000 
     21 N21        -1.5020   -9.4250   -9.6810 N.pl3     1 M031355     0.0000 
     22 C22        -1.8600   -8.1260   -9.7690 C.2       1 M031355     0.0000 
     23 C23        -3.1780   -8.0060   -9.3870 C.2       1 M031355     0.0000 
     24 C24        -3.6360   -9.2800   -9.0290 C.ar      1 M031355     0.0000 
     25 H          -7.8437   -9.2334   -7.3003 H         1 M031355     0.0000 
     26 H          -6.8766  -10.7171   -7.2418 H         1 M031355     0.0000 
     27 H          -8.7995  -10.9991   -8.7243 H         1 M031355     0.0000 
     28 H          -7.2878  -11.0943   -9.6439 H         1 M031355     0.0000 
     29 H          -8.1772  -10.4350  -11.8309 H         1 M031355     0.0000 
     30 H          -9.2900   -9.0636  -11.9763 H         1 M031355     0.0000 
     31 H          -7.5468   -7.5731  -10.9361 H         1 M031355     0.0000 
     32 H          -6.5430   -9.0317  -11.0066 H         1 M031355     0.0000 
     33 H          -5.5867   -7.3813   -9.4628 H         1 M031355     0.0000 
     34 H          -7.1005   -7.3288   -8.5433 H         1 M031355     0.0000 
     35 H          -9.3450   -6.8486  -10.6451 H         1 M031355     0.0000 
     36 H         -11.1658   -5.5919   -9.6774 H         1 M031355     0.0000 
     37 H         -11.8906   -8.7011   -6.9796 H         1 M031355     0.0000 
     38 H         -10.0807   -9.9704   -7.9538 H         1 M031355     0.0000 
     39 H          -3.8468  -12.9692   -8.2795 H         1 M031355     0.0000 
     40 H          -0.6417   -9.7956   -9.9135 H         1 M031355     0.0000 
     41 H          -1.3008   -7.3959  -10.0494 H         1 M031355     0.0000 
     42 H          -3.6926   -7.2126   -9.3657 H         1 M031355     0.0000 
     43 H          -9.9166  -11.6025  -10.5423 H         1 M031355     0.0000 
     44 H         -10.9267  -10.3585  -10.6782 H         1 M031355     0.0000 
     45 H         -10.4956  -11.1908  -11.9850 H         1 M031355     0.0000 
@<TRIPOS>BOND
     1    2    1 1    
     2    8    1 1    
     3   16    1 1    
     4    3    2 1    
     5   25    2 1    
     6   26    2 1    
     7    4    3 1    
     8   27    3 1    
     9   28    3 1    
    10    5    4 1    
    11    7    4 1    
    12    9    4 1    
    13    6    5 1    
    14   29    5 1    
    15   30    5 1    
    16   43    6 1    
    17   44    6 1    
    18   45    6 1    
    19    8    7 1    
    20   31    7 1    
    21   32    7 1    
    22   33    8 1    
    23   34    8 1    
    24   10    9 ar   
    25   15    9 ar   
    26   11   10 ar   
    27   35   10 1    
    28   12   11 ar   
    29   36   11 1    
    30   13   12 1    
    31   14   12 ar   
    32   15   14 ar   
    33   37   14 1    
    34   38   15 1    
    35   17   16 ar   
    36   24   16 ar   
    37   18   17 ar   
    38   19   18 ar   
    39   39   18 1    
    40   20   19 ar   
    41   21   20 1    
    42   24   20 ar   
    43   22   21 1    
    44   40   21 1    
    45   23   22 2    
    46   41   22 1    
    47   24   23 1    
    48   42   23 1    
@<TRIPOS>SUBSTRUCTURE
     1 M031355     1 GROUP   
@<TRIPOS>SET

