#    Name: 3rlw_S28_1_INTS_M
#    Modification time : Tue Mar 25 11:40:08 2014

@<TRIPOS>MOLECULE
3rlw_S28_1_INTS_M
   75     0     9     0     0
SMALL
NO_CHARGES


@<TRIPOS>ATOM
      1 CA         19.3705  -16.4675   28.1720 C.3       3 GLC5        0.0000 
      2 CA         18.7110  -16.8010   26.4490 C.3       9 GLL5        0.0000 
      3 CA         20.0300  -16.1340   29.8950 C.3       6 GLP5        0.0000 
      4 CA         17.9170  -14.9690   26.9630 C.3       3 GLC5        0.0000 
      5 CA         17.1230  -13.1370   27.4770 C.3       6 GLP5        0.0000 
      6 CA         16.8080  -17.1275   27.3525 C.3       3 GLC5        0.0000 
      7 CA         14.9050  -17.4540   28.2560 C.3       6 GLP5        0.0000 
      8 CA         19.9390  -15.3590   27.9820 C.3       3 GLC5        0.0000 
      9 CA         19.8480  -14.5840   26.0690 C.3       9 GLL5        0.0000 
     10 CA         20.8030  -12.1230   24.1480 C.3       3 GLC5        0.0000 
     11 CA         20.9000  -13.8120   25.5930 C.3       9 GLL5        0.0000 
     12 CA         20.7060  -10.4340   22.7030 C.3       6 GLP5        0.0000 
     13 CA         22.5860  -12.6990   23.7760 C.3       3 GLC5        0.0000 
     14 CA         21.9930  -14.4230   24.9830 C.3       9 GLL5        0.0000 
     15 CA         23.1790  -10.9750   22.5690 C.3       6 GLP5        0.0000 
     16 O          15.9375  -15.7130   24.4670 O.2       1 ALC1        0.0000 
     17 O          17.3790  -16.0920   24.2630 O.2       7 ALL1        0.0000 
     18 O          14.4960  -15.3340   24.6710 O.2       4 ALP1        0.0000 
     19 N          15.7120  -13.3665   23.8925 N.am      2 SEC2        0.0000 
     20 N          16.6830  -14.0100   22.7690 N.am      8 SEL2        0.0000 
     21 N          14.7410  -12.7230   25.0160 N.am      5 SEP2        0.0000 
     22 CA         17.8830  -12.1290   22.7505 C.3       3 GLC5        0.0000 
     23 CA         18.2970  -12.7690   20.8830 C.3       9 GLL5        0.0000 
     24 CA         17.4690  -11.4890   24.6180 C.3       6 GLP5        0.0000 
     25 O          16.6450  -10.6075   21.2335 O.2       1 ALC1        0.0000 
     26 O          16.1700  -11.7610   20.3140 O.2       7 ALL1        0.0000 
     27 O          17.1200   -9.4540   22.1530 O.2       4 ALP1        0.0000 
     28 CA         13.1395  -12.1775   18.3770 C.3       3 GLC5        0.0000 
     29 CA         14.8350  -11.6580   19.7330 C.3       9 GLL5        0.0000 
     30 CA         11.4440  -12.6970   17.0210 C.3       6 GLP5        0.0000 
     31 CA         15.0975   -9.8105   18.5030 C.3       3 GLC5        0.0000 
     32 CA         15.3600   -7.9630   17.2730 C.3       6 GLP5        0.0000 
     33 CA         10.6055  -13.8605   21.7275 C.3       3 GLC5        0.0000 
     34 CA         12.3740  -12.8460   22.3740 C.3       9 GLL5        0.0000 
     35 CA          8.8370  -14.8750   21.0810 C.3       6 GLP5        0.0000 
     36 CA          9.9775   -9.7830   23.0445 C.3       3 GLC5        0.0000 
     37 CA         10.8970  -11.6020   23.9890 C.3       9 GLL5        0.0000 
     38 CA          9.0580   -7.9640   22.1000 C.3       6 GLP5        0.0000 
     39 CA         10.9620  -10.6595   25.9190 C.3       3 GLC5        0.0000 
     40 CA         11.0270   -9.7170   27.8490 C.3       6 GLP5        0.0000 
     41 O           9.3615  -10.3870   25.1640 O.2       1 ALC1        0.0000 
     42 O          10.6540  -10.5180   24.5890 O.2       7 ALL1        0.0000 
     43 O           8.0690  -10.2560   25.7390 O.2       4 ALP1        0.0000 
     44 O           9.0935  -12.5515   25.0045 O.2       1 ALC1        0.0000 
     45 O          10.2840  -12.6530   24.3290 O.2       7 ALL1        0.0000 
     46 O           7.9030  -12.4500   25.6800 O.2       4 ALP1        0.0000 
     47 O          10.3695  -14.1330   24.1395 O.2       1 ALC1        0.0000 
     48 O          10.4550  -15.6130   23.9500 O.2       4 ALP1        0.0000 
     49 CA         10.7310   -9.2045   22.2330 C.3       3 GLC5        0.0000 
     50 CA         12.4040  -10.4450   22.3660 C.3       9 GLL5        0.0000 
     51 CA         20.8235  -16.6005   27.5183 C.3       3 GLC5        0.0000 
     52 CA         19.8750  -15.9700   25.9400 C.3       9 GLL5        0.0000 
     53 CA         21.2260  -16.9280   29.4020 C.3       6 GLP5        0.0000 
     54 CA         18.9215  -12.8435   25.2245 C.3       3 GLC5        0.0000 
     55 CA         22.7903  -13.2287   26.4285 C.3       3 GLC5        0.0000 
     56 CA         24.1340  -12.3400   27.5690 C.3       6 GLP5        0.0000 
     57 CA         19.0173  -11.1470   19.2112 C.3       3 GLC5        0.0000 
     58 CA         19.2000   -9.6020   18.0730 C.3       6 GLP5        0.0000 
     59 CA         21.9140  -14.5183   20.2673 C.3       3 GLC5        0.0000 
     60 CA         20.4610  -13.6090   20.1730 C.3       9 GLL5        0.0000 
     61 CA         23.6670  -14.9220   19.8780 C.3       6 GLP5        0.0000 
     62 CA         20.1769  -11.7922   21.4821 C.3       3 GLC5        0.0000 
     63 CA         19.3044  -15.0110   19.1341 C.3       3 GLC5        0.0000 
     64 CA         19.3720  -12.6150   19.8160 C.3       9 GLL5        0.0000 
     65 CA         18.7200  -16.1560   17.7010 C.3       6 GLP5        0.0000 
     66 CA         12.6512  -12.6550   24.5886 C.3       3 GLC5        0.0000 
     67 CA         11.9100  -11.6340   22.8810 C.3       9 GLL5        0.0000 
     68 CA         13.7830  -13.3890   25.8690 C.3       6 GLP5        0.0000 
     69 CA         10.5339  -11.4615   21.3511 C.3       3 GLC5        0.0000 
     70 CA          9.1060  -11.7400   19.8650 C.3       6 GLP5        0.0000 
     71 CA         12.7330   -8.6913   21.6195 C.3       3 GLC5        0.0000 
     72 CA         12.5890   -6.9320   21.3810 C.3       6 GLP5        0.0000 
     73 CA         14.4551  -11.0512   23.0701 C.3       3 GLC5        0.0000 
     74 CA         13.3500  -10.4560   21.3500 C.3       9 GLL5        0.0000 
     75 CA         16.1030  -10.9040   24.2170 C.3       6 GLP5        0.0000 
@<TRIPOS>BOND
@<TRIPOS>SUBSTRUCTURE
     1 ALC1       16 GROUP        1 X    ALC  0     ROOT ALC X 1
     2 SEC2       19 GROUP        1 X    SEC  0     **** SEC X 2
     3 GLC5        1 GROUP        1 X    GLC  0     **** GLC X 6
     4 ALP1       18 GROUP        1 Y    ALP  0     ROOT ALP Y 8
     5 SEP2       21 GROUP        1 Y    SEP  0     **** SEP Y 9
     6 GLP5        3 GROUP        1 Y    GLP  0     **** GLP Y 13
     7 ALL1       17 GROUP        1 Z    ALL  0     ROOT ALL Z 15
     8 SEL2       20 GROUP        1 Z    SEL  0     **** SEL Z 16
     9 GLL5        2 GROUP        1 Z    GLL  0     **** GLL Z 20
@<TRIPOS>SET

