#    Name: 3rlw_S28_1_ligand
#    Modification time : Tue Mar 25 11:40:08 2014

@<TRIPOS>MOLECULE
3rlw_S28_1_ligand
   60    62     1     0     0
SMALL
NO_CHARGES


@<TRIPOS>ATOM
      1 C7         18.7110  -16.8010   26.4490 C.3       1 S281        0.0000 
      2 S8         17.7800  -17.3460   25.1710 S.o2      1 S281        0.0000 
      3 C6         19.8750  -15.9700   25.9400 C.ar      1 S281        0.0000 
      4 C1         19.8480  -14.5840   26.0690 C.ar      1 S281        0.0000 
      5 C2         20.9000  -13.8120   25.5930 C.ar      1 S281        0.0000 
      6 C3         21.9930  -14.4230   24.9830 C.ar      1 S281        0.0000 
      7 C4         22.0230  -15.8040   24.8590 C.ar      1 S281        0.0000 
      8 C5         20.9670  -16.5760   25.3290 C.ar      1 S281        0.0000 
      9 O13        18.4830  -18.3050   24.3590 O.2       1 S281        0.0000 
     10 O14        16.5740  -17.9380   25.6790 O.2       1 S281        0.0000 
     11 N9         17.3790  -16.0920   24.2630 N.pl3     1 S281        0.0000 
     12 C10        18.1400  -15.8530   23.0590 C.3       1 S281        0.0000 
     13 C11        17.7420  -14.5380   22.4400 C.2       1 S281        0.0000 
     14 O15        16.6830  -14.0100   22.7690 O.2       1 S281        0.0000 
     15 N12        18.5900  -14.0290   21.5540 N.am      1 S281        0.0000 
     16 C16        18.2970  -12.7690   20.8830 C.3       1 S281        0.0000 
     17 C17        16.9470  -12.8440   20.2280 C.2       1 S281        0.0000 
     18 O18        16.5880  -13.8690   19.6520 O.2       1 S281        0.0000 
     19 C21        19.3720  -12.6150   19.8160 C.3       1 S281        0.0000 
     20 C22        20.4610  -13.6090   20.1730 C.3       1 S281        0.0000 
     21 C23        19.8610  -14.6200   21.1400 C.3       1 S281        0.0000 
     22 N19        16.1700  -11.7610   20.3140 N.am      1 S281        0.0000 
     23 C20        14.8350  -11.6580   19.7330 C.3       1 S281        0.0000 
     24 C24        13.8100  -11.6620   20.8400 C.ar      1 S281        0.0000 
     25 C31        13.3190  -12.8560   21.3510 C.ar      1 S281        0.0000 
     26 C29        12.3740  -12.8460   22.3740 C.ar      1 S281        0.0000 
     27 C28        11.9100  -11.6340   22.8810 C.ar      1 S281        0.0000 
     28 C26        10.8970  -11.6020   23.9890 C.2       1 S281        0.0000 
     29 N30        10.6540  -10.5180   24.5890 N.pl3     1 S281        0.0000 
     30 N32        10.2840  -12.6530   24.3290 N.pl3     1 S281        0.0000 
     31 C27        12.4040  -10.4450   22.3660 C.ar      1 S281        0.0000 
     32 C25        13.3500  -10.4560   21.3500 C.ar      1 S281        0.0000 
     33 H          19.0452  -17.6839   26.9617 H         1 S281        0.0000 
     34 H          18.0476  -16.2231   27.0655 H         1 S281        0.0000 
     35 H          19.0406  -14.1287   26.5214 H         1 S281        0.0000 
     36 H          20.8735  -12.7885   25.6902 H         1 S281        0.0000 
     37 H          22.7686  -13.8535   24.6290 H         1 S281        0.0000 
     38 H          22.8339  -16.2627   24.4152 H         1 S281        0.0000 
     39 H          20.9934  -17.6002   25.2244 H         1 S281        0.0000 
     40 H          16.6343  -15.5487   24.5725 H         1 S281        0.0000 
     41 H          17.9707  -16.6499   22.3219 H         1 S281        0.0000 
     42 H          19.2171  -15.8247   23.2735 H         1 S281        0.0000 
     43 H          18.3503  -11.9563   21.5488 H         1 S281        0.0000 
     44 H          19.7653  -11.6195   19.8425 H         1 S281        0.0000 
     45 H          18.9627  -12.8532   18.8557 H         1 S281        0.0000 
     46 H          21.2792  -13.0963   20.6501 H         1 S281        0.0000 
     47 H          20.7961  -14.1163   19.2840 H         1 S281        0.0000 
     48 H          19.7103  -15.5472   20.6228 H         1 S281        0.0000 
     49 H          20.5256  -14.7396   21.9730 H         1 S281        0.0000 
     50 H          16.4985  -10.8956   20.8263 H         1 S281        0.0000 
     51 H          14.6365  -12.5002   19.0670 H         1 S281        0.0000 
     52 H          14.7317  -10.7333   19.1615 H         1 S281        0.0000 
     53 H          13.6539  -13.7540   20.9732 H         1 S281        0.0000 
     54 H          12.0191  -13.7316   22.7547 H         1 S281        0.0000 
     55 H           9.9476  -10.5551   25.2958 H         1 S281        0.0000 
     56 H          11.1910   -9.7254   24.3004 H         1 S281        0.0000 
     57 H          10.5193  -13.4828   23.8230 H         1 S281        0.0000 
     58 H           9.6217  -12.5553   25.0718 H         1 S281        0.0000 
     59 H          12.0659   -9.5438   22.7408 H         1 S281        0.0000 
     60 H          13.7109   -9.5676   20.9742 H         1 S281        0.0000 
@<TRIPOS>BOND
     1    2    1 1    
     2    3    1 1    
     3   33    1 1    
     4   34    1 1    
     5    9    2 2    
     6   10    2 2    
     7   11    2 1    
     8    4    3 ar   
     9    8    3 ar   
    10    5    4 ar   
    11   35    4 1    
    12    6    5 ar   
    13   36    5 1    
    14    7    6 ar   
    15   37    6 1    
    16    8    7 ar   
    17   38    7 1    
    18   39    8 1    
    19   12   11 1    
    20   40   11 1    
    21   13   12 1    
    22   41   12 1    
    23   42   12 1    
    24   14   13 2    
    25   15   13 am   
    26   16   15 1    
    27   21   15 1    
    28   17   16 1    
    29   19   16 1    
    30   43   16 1    
    31   18   17 2    
    32   22   17 am   
    33   20   19 1    
    34   44   19 1    
    35   45   19 1    
    36   21   20 1    
    37   46   20 1    
    38   47   20 1    
    39   48   21 1    
    40   49   21 1    
    41   23   22 1    
    42   50   22 1    
    43   24   23 1    
    44   51   23 1    
    45   52   23 1    
    46   25   24 ar   
    47   32   24 ar   
    48   26   25 ar   
    49   53   25 1    
    50   27   26 ar   
    51   54   26 1    
    52   28   27 1    
    53   31   27 ar   
    54   29   28 2    
    55   30   28 1    
    56   55   29 1    
    57   56   29 1    
    58   57   30 1    
    59   58   30 1    
    60   32   31 ar   
    61   59   31 1    
    62   60   32 1    
@<TRIPOS>SUBSTRUCTURE
     1 S281        1 GROUP   
@<TRIPOS>SET

