#    Name: 3FAZ_3_CAVITY_N1_6.mol2
#    Modification time : Mon Mar 10 15:53:07 2014

@<TRIPOS>MOLECULE
3FAZ_3_CAVITY_N1_6.mol2
   83     0     6     0     0
SMALL
NO_CHARGES


@<TRIPOS>ATOM
      1 DU          1.0582   29.9214    6.9159 H         6 CUB7        0.0000 
      2 DU          0.0888   30.3773    7.9659 H         6 CUB7        0.0000 
      3 N          -0.8806   30.8331    9.0159 N.2       2 ALA2        0.0000 
      4 N           0.0751   28.8852    6.4580 N.2       2 ALA2        0.0000 
      5 DU         -0.8944   29.3411    7.5080 H         6 CUB7        0.0000 
      6 OG         -1.8638   29.7969    8.5580 O.2       1 SER1        0.0000 
      7 N          -2.8332   30.2528    9.6080 N.2       2 ALA2        0.0000 
      8 N          -3.8026   30.7086   10.6579 N.2       2 ALA2        0.0000 
      9 N          -1.8775   28.3049    7.0501 N.2       2 ALA2        0.0000 
     10 OG         -2.8469   28.7607    8.1001 O.2       1 SER1        0.0000 
     11 DU         -3.8164   29.2166    9.1501 H         6 CUB7        0.0000 
     12 N          -4.7858   29.6724   10.2001 N.2       2 ALA2        0.0000 
     13 OG         -5.7552   30.1283   11.2500 O.2       1 SER1        0.0000 
     14 O          -3.8301   27.7246    7.6422 O.2       2 ALA2        0.0000 
     15 CA         -4.7995   28.1804    8.6922 C.3       5 GLY6        0.0000 
     16 N          -5.7689   28.6362    9.7422 N.2       2 ALA2        0.0000 
     17 O          -4.8133   26.6884    7.1843 O.2       2 ALA2        0.0000 
     18 CA         -5.7827   27.1442    8.2343 C.3       5 GLY6        0.0000 
     19 N          -6.7521   27.6001    9.2843 N.2       2 ALA2        0.0000 
     20 CA         -6.7659   26.1080    7.7764 C.3       5 GLY6        0.0000 
     21 N          -7.7353   26.5639    8.8264 N.2       2 ALA2        0.0000 
     22 CA         -7.7491   25.0718    7.3185 C.3       5 GLY6        0.0000 
     23 N          -8.7185   25.5277    8.3685 N.2       2 ALA2        0.0000 
     24 CA         -1.4530   33.3093    9.5553 C.3       5 GLY6        0.0000 
     25 DU         -1.4667   31.8173    8.0474 H         6 CUB7        0.0000 
     26 N          -2.4361   32.2731    9.0974 N.2       2 ALA2        0.0000 
     27 O          -3.4056   32.7289   10.1474 O.2       2 ALA2        0.0000 
     28 DU         -1.4805   30.3252    6.5396 H         6 CUB7        0.0000 
     29 DU         -2.4499   30.7811    7.5895 H         6 CUB7        0.0000 
     30 DU         -3.4193   31.2369    8.6395 H         6 CUB7        0.0000 
     31 O          -4.3887   31.6928    9.6895 O.2       2 ALA2        0.0000 
     32 N          -2.4637   29.2890    6.0817 N.2       2 ALA2        0.0000 
     33 DU         -3.4331   29.7449    7.1316 H         6 CUB7        0.0000 
     34 CA         -4.4025   30.2007    8.1816 C.3       5 GLY6        0.0000 
     35 O          -5.3719   30.6566    9.2316 O.2       2 ALA2        0.0000 
     36 CA         -4.4163   28.7087    6.6738 C.3       5 GLY6        0.0000 
     37 CA         -5.3857   29.1645    7.7237 C.3       5 GLY6        0.0000 
     38 CA         -3.0223   33.2572    8.1290 C.3       5 GLY6        0.0000 
     39 O          -3.0361   31.7652    6.6211 O.2       2 ALA2        0.0000 
     40 O          -4.0055   32.2210    7.6711 O.2       2 ALA2        0.0000 
     41 CA         -3.0499   30.2732    5.1132 C.3       5 GLY6        0.0000 
     42 DU         -4.0193   30.7290    6.1632 H         6 CUB7        0.0000 
     43 CA         -4.9887   31.1849    7.2132 C.3       5 GLY6        0.0000 
     44 CA         -5.0025   29.6928    5.7053 C.3       5 GLY6        0.0000 
     45 CA         -4.6054   31.7132    5.1948 C.3       5 GLY6        0.0000 
     46 OG         -5.5886   30.6770    4.7369 O.2       1 SER1        0.0000 
     47 O           1.6582   30.4293    9.3922 O.2       2 ALA2        0.0000 
     48 DU          1.6444   28.9373    7.8844 H         6 CUB7        0.0000 
     49 O           0.6750   29.3931    8.9343 O.2       2 ALA2        0.0000 
     50 CZ          0.6612   27.9011    7.4265 C.ar      4 PHE5        0.0000 
     51 OG         -0.3082   28.3570    8.4764 O.2       1 SER1        0.0000 
     52 OG         -2.2470   29.2686   10.5764 O.2       1 SER1        0.0000 
     53 CZ          0.6474   26.4091    5.9186 C.ar      4 PHE5        0.0000 
     54 OG         -2.2608   27.7766    9.0685 O.2       1 SER1        0.0000 
     55 OG         -3.2302   28.2325   10.1185 O.2       1 SER1        0.0000 
     56 OG         -4.1996   28.6883   11.1685 O.2       1 SER1        0.0000 
     57 OG         -5.1690   29.1441   12.2185 O.2       1 SER1        0.0000 
     58 CZ         -3.2440   26.7404    8.6107 C.ar      4 PHE5        0.0000 
     59 CZ         -4.2134   27.1963    9.6606 C.ar      4 PHE5        0.0000 
     60 N          -5.1828   27.6521   10.7106 N.2       2 ALA2        0.0000 
     61 N          -6.1522   28.1080   11.7606 N.2       2 ALA2        0.0000 
     62 O          -4.2272   25.7042    8.1528 O.2       2 ALA2        0.0000 
     63 DU         -5.1966   26.1601    9.2027 H         6 CUB7        0.0000 
     64 N          -6.1660   26.6159   10.2527 N.2       2 ALA2        0.0000 
     65 N          -7.1354   27.0718   11.3027 N.2       2 ALA2        0.0000 
     66 OG         -5.2103   24.6680    7.6949 O.2       1 SER1        0.0000 
     67 CZ         -6.1798   25.1239    8.7449 C.ar      4 PHE5        0.0000 
     68 N          -7.1492   25.5797    9.7948 N.2       2 ALA2        0.0000 
     69 N          -8.1186   26.0356   10.8448 N.2       2 ALA2        0.0000 
     70 CZ         -8.1323   24.5436    9.3370 C.ar      4 PHE5        0.0000 
     71 N          -9.1018   24.9994   10.3869 N.2       2 ALA2        0.0000 
     72 NZ          2.2306   27.9532    8.8528 N.2       3 LYS4        0.0000 
     73 CZ          1.2474   26.9170    8.3949 C.ar      4 PHE5        0.0000 
     74 CZ         -3.6134   27.7042   12.1369 C.ar      4 PHE5        0.0000 
     75 CZ         -3.6272   26.2121   10.6291 C.ar      4 PHE5        0.0000 
     76 CA         -4.5966   26.6680   11.6791 C.3       5 GLY6        0.0000 
     77 CA         -4.6104   25.1759   10.1712 C.3       5 GLY6        0.0000 
     78 CA         -5.5798   25.6318   11.2212 C.3       5 GLY6        0.0000 
     79 CA         -5.5936   24.1398    9.7133 C.3       5 GLY6        0.0000 
     80 CA         -6.5630   24.5956   10.7633 C.3       5 GLY6        0.0000 
     81 CA         -7.5324   25.0514   11.8133 C.3       5 GLY6        0.0000 
     82 CZ         -7.5462   23.5594   10.3054 C.ar      4 PHE5        0.0000 
     83 N          -8.5156   24.0153   11.3554 N.2       2 ALA2        0.0000 
@<TRIPOS>BOND
@<TRIPOS>SUBSTRUCTURE
     1 SER1        6 GROUP   
     2 ALA2        3 GROUP   
     3 LYS4       72 GROUP   
     4 PHE5       50 GROUP   
     5 GLY6       15 GROUP   
     6 CUB7        1 GROUP   
@<TRIPOS>SET

