#    Name: 3faz_NOS_3_INTS_M
#    Modification time : Tue Mar 25 03:30:45 2014

@<TRIPOS>MOLECULE
3faz_NOS_3_INTS_M
   62     0     9     0     0
SMALL
NO_CHARGES


@<TRIPOS>ATOM
      1 CA         -8.4735   25.9780   12.1955 C.3       3 GLC5        0.0000 
      2 CA         -8.2090   25.2260   10.3340 C.3       9 GLL5        0.0000 
      3 CA         -8.7380   26.7300   14.0570 C.3       6 GLP5        0.0000 
      4 CA        -10.4875   23.4965   12.7315 C.3       3 GLC5        0.0000 
      5 CA         -8.4800   23.6320   11.8950 C.3       9 GLL5        0.0000 
      6 CA        -12.4950   23.3610   13.5680 C.3       6 GLP5        0.0000 
      7 CA         -8.6090   25.1810   12.9760 C.3       3 GLC5        0.0000 
      8 CA         -6.7700   22.9350   11.9110 C.3       3 GLC5        0.0000 
      9 CA         -5.0600   22.2380   11.9270 C.3       6 GLP5        0.0000 
     10 CA        -11.1855   23.4150   11.8200 C.3       3 GLC5        0.0000 
     11 CA         -9.8760   23.4690   10.0720 C.3       9 GLL5        0.0000 
     12 N         -11.1875   23.8565    8.0890 N.am      2 SEC2        0.0000 
     13 N         -11.0250   23.0330    9.5070 N.am      8 SEL2        0.0000 
     14 N         -11.3500   24.6800    6.6710 N.am      5 SEP2        0.0000 
     15 O         -11.5680   22.8380    8.3625 O.2       1 ALC1        0.0000 
     16 O         -11.0250   23.0330    9.5070 O.2       7 ALL1        0.0000 
     17 O         -12.1110   22.6430    7.2180 O.2       4 ALP1        0.0000 
     18 N         -10.3985   25.0200    7.5155 N.am      2 SEC2        0.0000 
     19 N          -9.4470   25.3600    8.3600 N.am      8 SEL2        0.0000 
     20 CA         -3.2090   24.3590    7.7055 C.3       3 GLC5        0.0000 
     21 CA         -4.7640   25.2040    8.2680 C.3       9 GLL5        0.0000 
     22 CA         -1.6540   23.5140    7.1430 C.3       6 GLP5        0.0000 
     23 CA         -6.0065   23.6170    8.1075 C.3       3 GLC5        0.0000 
     24 CA         -7.2490   22.0300    7.9470 C.3       6 GLP5        0.0000 
     25 CA         -3.8310   25.0775    6.2665 C.3       3 GLC5        0.0000 
     26 CA         -2.8980   24.9510    4.2650 C.3       6 GLP5        0.0000 
     27 N          -4.4635   25.4485    6.0470 N.am      2 SEC2        0.0000 
     28 N          -5.3310   25.1190    6.9750 N.am      8 SEL2        0.0000 
     29 N          -3.5960   25.7780    5.1190 N.am      5 SEP2        0.0000 
     30 O          -5.6250   23.8795    6.5190 O.2       1 ALC1        0.0000 
     31 O          -5.3310   25.1190    6.9750 O.2       7 ALL1        0.0000 
     32 O          -5.9190   22.6400    6.0630 O.2       4 ALP1        0.0000 
     33 CA         -2.8120   25.8875    8.7215 C.3       3 GLC5        0.0000 
     34 CA         -4.6390   26.6910    8.6180 C.3       9 GLL5        0.0000 
     35 CA         -0.9850   25.0840    8.8250 C.3       6 GLP5        0.0000 
     36 CA         -5.8735   27.1850    6.8195 C.3       3 GLC5        0.0000 
     37 CA         -7.1080   27.6790    5.0210 C.3       6 GLP5        0.0000 
     38 CA         -7.3575   28.4905    8.6305 C.3       3 GLC5        0.0000 
     39 CA         -6.6040   27.1490    9.8100 C.3       9 GLL5        0.0000 
     40 CA         -8.1110   29.8320    7.4510 C.3       6 GLP5        0.0000 
     41 CA         -7.1435   26.7200   12.4810 C.3       3 GLC5        0.0000 
     42 CA         -5.5490   26.7100   10.9050 C.3       9 GLL5        0.0000 
     43 CA         -5.2875   25.4555   12.3855 C.3       3 GLC5        0.0000 
     44 CA         -5.0260   24.2010   13.8660 C.3       6 GLP5        0.0000 
     45 N          -5.9625   27.1310   13.2665 N.am      2 SEC2        0.0000 
     46 N          -5.5170   27.6300   11.9740 N.am      8 SEL2        0.0000 
     47 N          -6.4080   26.6320   14.5590 N.am      5 SEP2        0.0000 
     48 CA         -2.8175   25.4390    9.9545 C.3       3 GLC5        0.0000 
     49 CA         -4.2310   26.6820   10.1030 C.3       9 GLL5        0.0000 
     50 CA         -1.4040   24.1960    9.8060 C.3       6 GLP5        0.0000 
     51 CA         -2.6545   26.4710   11.5505 C.3       3 GLC5        0.0000 
     52 CA         -1.0780   26.2600   12.9980 C.3       6 GLP5        0.0000 
     53 CA         -4.1055   25.0910   11.3550 C.3       3 GLC5        0.0000 
     54 CA         -3.9800   23.5000   12.6070 C.3       6 GLP5        0.0000 
     55 O          -1.9110   27.5450   10.6770 O.2       1 ALC1        0.0000 
     56 O          -3.3230   27.7270   10.3660 O.2       7 ALL1        0.0000 
     57 O          -0.4990   27.3630   10.9880 O.2       4 ALP1        0.0000 
     58 CA         -9.9405   26.5040   10.1515 C.3       3 GLC5        0.0000 
     59 CA        -11.1370   28.0800   10.3690 C.3       6 GLP5        0.0000 
     60 CA        -11.4507   24.5558    9.7920 C.3       3 GLC5        0.0000 
     61 CA         -9.2790   24.6300    9.5340 C.3       9 GLL5        0.0000 
     62 CA        -13.3240   25.0620    9.7810 C.3       6 GLP5        0.0000 
@<TRIPOS>BOND
@<TRIPOS>SUBSTRUCTURE
     1 ALC1       15 GROUP        1 X    ALC  0     ROOT ALC X 1
     2 SEC2       12 GROUP        1 X    SEC  0     **** SEC X 2
     3 GLC5        1 GROUP        1 X    GLC  0     **** GLC X 6
     4 ALP1       17 GROUP        1 Y    ALP  0     ROOT ALP Y 8
     5 SEP2       14 GROUP        1 Y    SEP  0     **** SEP Y 9
     6 GLP5        3 GROUP        1 Y    GLP  0     **** GLP Y 13
     7 ALL1       16 GROUP        1 Z    ALL  0     ROOT ALL Z 15
     8 SEL2       13 GROUP        1 Z    SEL  0     **** SEL Z 16
     9 GLL5        2 GROUP        1 Z    GLL  0     **** GLL Z 20
@<TRIPOS>SET

