#    Name: 3faz_NOS_3_ligand
#    Modification time : Tue Mar 25 03:30:45 2014

@<TRIPOS>MOLECULE
3faz_NOS_3_ligand
   31    33     1     0     0
SMALL
NO_CHARGES


@<TRIPOS>ATOM
      1 N9         -7.7790   26.3430    9.6120 N.pl3     1 NOS301      0.0000 
      2 C4         -8.2090   25.2260   10.3340 C.ar      1 NOS301      0.0000 
      3 N3         -7.8170   24.7300   11.5220 N.ar      1 NOS301      0.0000 
      4 C2         -8.4800   23.6320   11.8950 C.ar      1 NOS301      0.0000 
      5 N1         -9.4850   22.9780   11.2570 N.ar      1 NOS301      0.0000 
      6 C6         -9.8760   23.4690   10.0720 C.ar      1 NOS301      0.0000 
      7 O6        -11.0250   23.0330    9.5070 O.3       1 NOS301      0.0000 
      8 C5         -9.2790   24.6300    9.5340 C.ar      1 NOS301      0.0000 
      9 N7         -9.4470   25.3600    8.3600 N.2       1 NOS301      0.0000 
     10 C8         -8.5710   26.3620    8.4350 C.2       1 NOS301      0.0000 
     11 C5'        -4.7640   25.2040    8.2680 C.3       1 NOS301      0.0000 
     12 O5'        -5.3310   25.1190    6.9750 O.3       1 NOS301      0.0000 
     13 C4'        -4.6390   26.6910    8.6180 C.3       1 NOS301      0.0000 
     14 O4'        -5.9080   27.3400    8.5550 O.3       1 NOS301      0.0000 
     15 C1'        -6.6040   27.1490    9.8100 C.3       1 NOS301      0.0000 
     16 C2'        -5.5490   26.7100   10.9050 C.3       1 NOS301      0.0000 
     17 O2'        -5.5170   27.6300   11.9740 O.3       1 NOS301      0.0000 
     18 C3'        -4.2310   26.6820   10.1030 C.3       1 NOS301      0.0000 
     19 O3'        -3.3230   27.7270   10.3660 O.3       1 NOS301      0.0000 
     20 H          -8.1727   23.1857   12.8598 H         1 NOS301      0.0000 
     21 H          -8.4502   27.0748    7.7563 H         1 NOS301      0.0000 
     22 H          -3.7673   24.7698    8.3139 H         1 NOS301      0.0000 
     23 H          -5.3891   24.7382    9.0271 H         1 NOS301      0.0000 
     24 H          -3.8893   27.1320    8.0653 H         1 NOS301      0.0000 
     25 H          -6.9278   28.1880   10.1410 H         1 NOS301      0.0000 
     26 H          -5.7919   25.7134   11.1719 H         1 NOS301      0.0000 
     27 H          -3.7817   25.6920   10.2733 H         1 NOS301      0.0000 
     28 H         -10.8856   23.1389    8.5225 H         1 NOS301      0.0000 
     29 H          -5.4864   24.1427    6.8243 H         1 NOS301      0.0000 
     30 H          -4.6803   28.1596   11.8346 H         1 NOS301      0.0000 
     31 H          -2.4445   27.2742   10.5185 H         1 NOS301      0.0000 
@<TRIPOS>BOND
     1    2    1 1    
     2   10    1 1    
     3   15    1 1    
     4    3    2 ar   
     5    8    2 ar   
     6    4    3 ar   
     7    5    4 ar   
     8   20    4 1    
     9    6    5 ar   
    10    7    6 1    
    11    8    6 ar   
    12   28    7 1    
    13    9    8 1    
    14   10    9 2    
    15   21   10 1    
    16   12   11 1    
    17   13   11 1    
    18   22   11 1    
    19   23   11 1    
    20   29   12 1    
    21   14   13 1    
    22   18   13 1    
    23   24   13 1    
    24   15   14 1    
    25   16   15 1    
    26   25   15 1    
    27   17   16 1    
    28   18   16 1    
    29   26   16 1    
    30   30   17 1    
    31   19   18 1    
    32   27   18 1    
    33   31   19 1    
@<TRIPOS>SUBSTRUCTURE
     1 NOS301      1 GROUP   
@<TRIPOS>SET

