#    Name: 4bb3_KKA_1_INTS_M
#    Modification time : Tue Mar 25 07:10:31 2014

@<TRIPOS>MOLECULE
4bb3_KKA_1_INTS_M
   44     0    12     0     0
SMALL
NO_CHARGES


@<TRIPOS>ATOM
      1 CA         16.2260   34.6590    6.6880 C.3       4 GLC5        0.0000 
      2 CA         15.7330   36.4870    5.9130 C.3      12 GLL5        0.0000 
      3 CA         16.7190   32.8310    7.4630 C.3       8 GLP5        0.0000 
      4 CA         14.3445   34.9925    5.8545 C.3       4 GLC5        0.0000 
      5 CA         12.9560   33.4980    5.7960 C.3       8 GLP5        0.0000 
      6 CA          7.0925   42.6430    8.1530 C.3       4 GLC5        0.0000 
      7 CA          8.2520   43.5380    6.9620 C.3      12 GLL5        0.0000 
      8 CA          5.9330   41.7480    9.3440 C.3       8 GLP5        0.0000 
      9 CA          8.5595   45.1375    7.5980 C.3       4 GLC5        0.0000 
     10 CA          8.8670   46.7370    8.2340 C.3       8 GLP5        0.0000 
     11 CA         16.5280   39.1180    4.8265 C.3       4 GLC5        0.0000 
     12 CA         15.1720   37.7100    5.1860 C.3      12 GLL5        0.0000 
     13 CA         17.8840   40.5260    4.4670 C.3       8 GLP5        0.0000 
     14 Zn          8.4575   40.2065    1.7475 Zn        3 ZIC7        0.0000 
     15 Zn          9.1360   39.8480    2.5740 Zn       11 ZIL7        0.0000 
     16 Zn          7.7790   40.5650    0.9210 Zn        7 ZIP7        0.0000 
     17 CA         13.2130   41.2580    4.7005 C.3       4 GLC5        0.0000 
     18 CA         13.3380   39.3380    4.9920 C.3      12 GLL5        0.0000 
     19 CA         13.0880   43.1780    4.4090 C.3       8 GLP5        0.0000 
     20 NZ         18.6940   35.8615    3.7890 N.4       2 LYC4        0.0000 
     21 NZ         17.3680   36.2260    4.1830 N.4      10 LYL4        0.0000 
     22 NZ         21.0280   35.6590    4.2310 N.4       6 LYP4        0.0000 
     23 N          18.6940   35.8615    3.7890 N.am      1 SEC2        0.0000 
     24 N          17.3680   36.2260    4.1830 N.am      9 SEL2        0.0000 
     25 N          20.0200   35.4970    3.3950 N.am      5 SEP2        0.0000 
     26 N          16.8825   35.1170    3.5595 N.am      1 SEC2        0.0000 
     27 N          16.3970   34.0080    2.9360 N.am      5 SEP2        0.0000 
     28 NZ         19.4455   36.4410    5.8405 N.4       2 LYC4        0.0000 
     29 NZ         18.1050   36.6800    6.2590 N.4      10 LYL4        0.0000 
     30 N          19.4455   36.4410    5.8405 N.am      1 SEC2        0.0000 
     31 N          18.1050   36.6800    6.2590 N.am      9 SEL2        0.0000 
     32 N          20.7860   36.2020    5.4220 N.am      5 SEP2        0.0000 
     33 CA          9.0630   42.6055    3.5665 C.3       4 GLC5        0.0000 
     34 CA          9.5420   41.7350    5.3210 C.3      12 GLL5        0.0000 
     35 CA          8.5840   43.4760    1.8120 C.3       8 GLP5        0.0000 
     36 CA         11.3150   42.4565    4.8650 C.3       4 GLC5        0.0000 
     37 CA          6.3095   42.2445    6.6760 C.3       4 GLC5        0.0000 
     38 CA          8.1490   42.0490    5.9430 C.3      12 GLL5        0.0000 
     39 CA          4.4700   42.4400    7.4090 C.3       8 GLP5        0.0000 
     40 CA          8.0860   43.3270    4.1740 C.3       4 GLC5        0.0000 
     41 CA          8.0230   44.6050    2.4050 C.3       8 GLP5        0.0000 
     42 CA         13.0764   37.2964    3.9904 C.3       4 GLC5        0.0000 
     43 CA         13.7510   38.0250    5.6370 C.3      12 GLL5        0.0000 
     44 CA         12.2530   35.9900    2.7790 C.3       8 GLP5        0.0000 
@<TRIPOS>BOND
@<TRIPOS>SUBSTRUCTURE
     1 SEC2       23 GROUP        1 X    SEC  0     ROOT SEC X 2
     2 LYC4       20 GROUP        1 X    LYC  0     **** LYC X 4
     3 ZIC7       14 GROUP        1 X    ZIC  0     **** ZIC X 5
     4 GLC5        1 GROUP        1 X    GLC  0     **** GLC X 6
     5 SEP2       25 GROUP        1 Y    SEP  0     ROOT SEP Y 9
     6 LYP4       22 GROUP        1 Y    LYP  0     **** LYP Y 11
     7 ZIP7       16 GROUP        1 Y    ZIP  0     **** ZIP Y 12
     8 GLP5        3 GROUP        1 Y    GLP  0     **** GLP Y 13
     9 SEL2       24 GROUP        1 Z    SEL  0     ROOT SEL Z 16
    10 LYL4       21 GROUP        1 Z    LYL  0     **** LYL Z 18
    11 ZIL7       15 GROUP        1 Z    ZIL  0     **** ZIL Z 19
    12 GLL5        2 GROUP        1 Z    GLL  0     **** GLL Z 20
@<TRIPOS>SET

