#    Name: 4bb3_KKA_1_ligand
#    Modification time : Tue Mar 25 07:10:31 2014

@<TRIPOS>MOLECULE
4bb3_KKA_1_ligand
   34    33     1     0     0
SMALL
NO_CHARGES


@<TRIPOS>ATOM
      1 C          15.7330   36.4870    5.9130 C.3       1 KKA1333     0.0000 
      2 N          15.6070   36.6170    7.3880 N.4       1 KKA1333     0.0000 
      3 O          11.7190   39.7870    6.6790 O.2       1 KKA1333     0.0000 
      4 S           8.2520   43.5380    6.9620 S.3       1 KKA1333     0.0000 
      5 C1         15.1720   37.7100    5.1860 C.3       1 KKA1333     0.0000 
      6 N1         11.0600   39.9260    4.5370 N.am      1 KKA1333     0.0000 
      7 O1          9.1360   39.8480    2.5740 O.co2     1 KKA1333     0.0000 
      8 C2         13.7510   38.0250    5.6370 C.3       1 KKA1333     0.0000 
      9 O2          7.4980   39.7840    4.2050 O.co2     1 KKA1333     0.0000 
     10 C3         13.3380   39.3380    4.9920 C.3       1 KKA1333     0.0000 
     11 O3         17.3680   36.2260    4.1830 O.co2     1 KKA1333     0.0000 
     12 C4         11.9860   39.7250    5.4790 C.2       1 KKA1333     0.0000 
     13 O4         18.1050   36.6800    6.2590 O.co2     1 KKA1333     0.0000 
     14 C5          9.6820   40.2380    4.9410 C.3       1 KKA1333     0.0000 
     15 C6          9.5420   41.7350    5.3210 C.3       1 KKA1333     0.0000 
     16 C7          8.1490   42.0490    5.9430 C.3       1 KKA1333     0.0000 
     17 C8          8.7470   39.9300    3.7850 C.2       1 KKA1333     0.0000 
     18 C9         17.1750   36.4590    5.3480 C.2       1 KKA1333     0.0000 
     19 H          15.2188   35.6311    5.5244 H         1 KKA1333     0.0000 
     20 H          15.1757   37.5192    4.1109 H         1 KKA1333     0.0000 
     21 H          15.8137   38.5704    5.3868 H         1 KKA1333     0.0000 
     22 H          11.2462   39.8771    3.5350 H         1 KKA1333     0.0000 
     23 H          13.7277   38.1249    6.7097 H         1 KKA1333     0.0000 
     24 H          13.0885   37.2386    5.3148 H         1 KKA1333     0.0000 
     25 H          13.3270   39.2127    3.9111 H         1 KKA1333     0.0000 
     26 H          14.0655   40.1041    5.2528 H         1 KKA1333     0.0000 
     27 H           9.3896   39.6482    5.7870 H         1 KKA1333     0.0000 
     28 H           9.6724   42.3422    4.4281 H         1 KKA1333     0.0000 
     29 H          10.3143   41.9925    6.0423 H         1 KKA1333     0.0000 
     30 H           7.4232   42.3049    5.2188 H         1 KKA1333     0.0000 
     31 H           7.8290   41.3117    6.6291 H         1 KKA1333     0.0000 
     32 H          15.9696   35.8156    7.8638 H         1 KKA1333     0.0000 
     33 H          16.1034   37.4130    7.7344 H         1 KKA1333     0.0000 
     34 H          14.6536   36.7198    7.6717 H         1 KKA1333     0.0000 
@<TRIPOS>BOND
     1    2    1 1    
     2    5    1 1    
     3   18    1 1    
     4   19    1 1    
     5   32    2 1    
     6   33    2 1    
     7   34    2 1    
     8   12    3 2    
     9   16    4 1    
    10    8    5 1    
    11   20    5 1    
    12   21    5 1    
    13   12    6 am   
    14   14    6 1    
    15   22    6 1    
    16   17    7 ar   
    17   10    8 1    
    18   23    8 1    
    19   24    8 1    
    20   17    9 ar   
    21   12   10 1    
    22   25   10 1    
    23   26   10 1    
    24   18   11 ar   
    25   18   13 ar   
    26   15   14 1    
    27   17   14 1    
    28   27   14 1    
    29   16   15 1    
    30   28   15 1    
    31   29   15 1    
    32   30   16 1    
    33   31   16 1    
@<TRIPOS>SUBSTRUCTURE
     1 KKA1333     1 GROUP   
@<TRIPOS>SET

