#    Name: 3omk_OMK_1_INTS_M
#    Modification time : Tue Mar 25 04:51:25 2014

@<TRIPOS>MOLECULE
3omk_OMK_1_INTS_M
  108     0     9     0     0
SMALL
NO_CHARGES


@<TRIPOS>ATOM
      1 N          22.4600   15.9225    0.9500 N.am      2 SEC2        0.0000 
      2 N          22.8890   16.2090    2.1950 N.am      8 SEL2        0.0000 
      3 N          22.0310   15.6360   -0.2950 N.am      5 SEP2        0.0000 
      4 CA         21.1385   20.3200    4.4975 C.3       3 GLC5        0.0000 
      5 CA         22.6620   19.0380    4.5350 C.3       9 GLL5        0.0000 
      6 CA         19.6150   21.6020    4.4600 C.3       6 GLP5        0.0000 
      7 O          23.8455   19.8310    1.4425 O.2       1 ALC1        0.0000 
      8 O          23.8270   20.4330    2.8360 O.2       7 ALL1        0.0000 
      9 O          23.8640   19.2290    0.0490 O.2       4 ALP1        0.0000 
     10 CA         24.3740   19.7490    0.8330 C.3       3 GLC5        0.0000 
     11 CA         24.4890   21.4960    2.2180 C.3       9 GLL5        0.0000 
     12 CA         24.2590   18.0020   -0.5520 C.3       6 GLP5        0.0000 
     13 CA         29.5345   16.7285    4.8985 C.3       3 GLC5        0.0000 
     14 CA         27.8180   17.0300    4.4780 C.3       9 GLL5        0.0000 
     15 CA         31.2510   16.4270    5.3190 C.3       6 GLP5        0.0000 
     16 CA         28.2810   15.5065    5.8200 C.3       3 GLC5        0.0000 
     17 CA         28.7440   13.9830    7.1620 C.3       6 GLP5        0.0000 
     18 CA         28.9515   16.3880    2.5620 C.3       3 GLC5        0.0000 
     19 CA         27.6430   15.0530    2.8040 C.3       9 GLL5        0.0000 
     20 CA         30.2600   17.7230    2.3200 C.3       6 GLP5        0.0000 
     21 CA         28.4000   14.2725    1.7095 C.3       3 GLC5        0.0000 
     22 CA         29.1570   13.4920    0.6150 C.3       6 GLP5        0.0000 
     23 CA         28.5540   13.9530    3.8950 C.3       3 GLC5        0.0000 
     24 CA         29.4650   12.8530    4.9860 C.3       6 GLP5        0.0000 
     25 CA         17.0570   15.6985    3.3800 C.3       3 GLC5        0.0000 
     26 CA         18.4840   17.2690    3.0950 C.3       9 GLL5        0.0000 
     27 CA         15.6300   14.1280    3.6650 C.3       6 GLP5        0.0000 
     28 CA         16.9755   20.0805    3.8595 C.3       3 GLC5        0.0000 
     29 CA         16.5920   18.9160    2.2110 C.3       9 GLL5        0.0000 
     30 CA         17.3590   21.2450    5.5080 C.3       6 GLP5        0.0000 
     31 CA         16.9550   18.5830    0.3455 C.3       3 GLC5        0.0000 
     32 CA         17.3180   18.2500   -1.5200 C.3       6 GLP5        0.0000 
     33 CA         16.1835   17.1980    1.3765 C.3       3 GLC5        0.0000 
     34 CA         15.7750   15.4800    0.5420 C.3       6 GLP5        0.0000 
     35 CA         15.3785   20.4235    2.7345 C.3       3 GLC5        0.0000 
     36 CA         14.1650   21.9310    3.2580 C.3       6 GLP5        0.0000 
     37 CA         16.3470   18.4105    4.3275 C.3       3 GLC5        0.0000 
     38 CA         16.1020   17.9050    6.4440 C.3       6 GLP5        0.0000 
     39 CA         25.7660   19.7535    0.3760 C.3       3 GLC5        0.0000 
     40 CA         25.8400   21.3890    1.7910 C.3       9 GLL5        0.0000 
     41 CA         25.6920   18.1180   -1.0390 C.3       6 GLP5        0.0000 
     42 CA         20.9940   22.2110    3.4555 C.3       3 GLC5        0.0000 
     43 CA         22.3730   22.8200    2.4510 C.3       9 GLL5        0.0000 
     44 CA         21.8520   24.8495    2.5065 C.3       3 GLC5        0.0000 
     45 CA         21.3310   26.8790    2.5620 C.3       6 GLP5        0.0000 
     46 CA         21.4745   22.2405    1.0115 C.3       3 GLC5        0.0000 
     47 CA         20.5760   21.6610   -0.4280 C.3       6 GLP5        0.0000 
     48 CA         24.3585   25.4830    0.5470 C.3       3 GLC5        0.0000 
     49 CA         24.3850   23.7570    1.3500 C.3       9 GLL5        0.0000 
     50 CA         24.3320   27.2090   -0.2560 C.3       6 GLP5        0.0000 
     51 CA         25.6260   24.8000   -0.6055 C.3       3 GLC5        0.0000 
     52 CA         25.7080   23.6490    0.9350 C.3       9 GLL5        0.0000 
     53 CA         25.5440   25.9510   -2.1460 C.3       6 GLP5        0.0000 
     54 CA         24.6035   17.1885    7.8275 C.3       3 GLC5        0.0000 
     55 CA         22.4130   16.9080    7.8170 C.3       9 GLL5        0.0000 
     56 CA         26.7940   17.4690    7.8380 C.3       6 GLP5        0.0000 
     57 CA         24.6095   15.0453    4.1508 C.3       3 GLC5        0.0000 
     58 CA         24.1890   16.2470    2.6630 C.3       9 GLL5        0.0000 
     59 CA         24.9710   13.3070    5.1670 C.3       6 GLP5        0.0000 
     60 CA         25.5160   15.2498    4.6215 C.3       3 GLC5        0.0000 
     61 CA         25.5120   17.5860    4.2380 C.3       9 GLL5        0.0000 
     62 CA         24.5177   17.0521    1.0964 C.3       3 GLC5        0.0000 
     63 CA         25.3050   15.4210    2.3550 C.3       9 GLL5        0.0000 
     64 CA         26.8383   14.3135    1.4220 C.3       3 GLC5        0.0000 
     65 CA         27.7670   13.0360    0.1820 C.3       6 GLP5        0.0000 
     66 CA         26.0248   22.6672    3.3407 C.3       3 GLC5        0.0000 
     67 CA         26.8850   23.8920    4.6770 C.3       6 GLP5        0.0000 
     68 CA         22.8257   23.1270    0.3263 C.3       3 GLC5        0.0000 
     69 CA         23.7820   22.7090    2.0450 C.3       9 GLL5        0.0000 
     70 CA         21.5680   23.0210   -1.0450 C.3       6 GLP5        0.0000 
     71 CA         20.2370   20.3002    0.7055 C.3       3 GLC5        0.0000 
     72 CA         19.2350   19.1570    1.7690 C.3       9 GLL5        0.0000 
     73 CA         27.6268   18.8681    4.8790 C.3       3 GLC5        0.0000 
     74 CA         26.6100   16.7990    3.9140 C.3       9 GLL5        0.0000 
     75 CA         28.3140   20.6250    5.4810 C.3       6 GLP5        0.0000 
     76 CA         26.8667   17.2901    6.0575 C.3       3 GLC5        0.0000 
     77 CA         28.7250   17.1890    3.1399 C.3       3 GLC5        0.0000 
     78 CA         25.8736   14.3145    3.9500 C.3       3 GLC5        0.0000 
     79 CA         19.3340   20.1384    3.2777 C.3       3 GLC5        0.0000 
     80 CA         20.5610   18.7220    1.9090 C.3       9 GLL5        0.0000 
     81 CA         17.0605   16.6597    1.6328 C.3       3 GLC5        0.0000 
     82 CA         18.2080   18.4100    2.3520 C.3       9 GLL5        0.0000 
     83 CA         19.3840   15.5538    2.2088 C.3       3 GLC5        0.0000 
     84 CA         19.3690   13.8780    1.4060 C.3       6 GLP5        0.0000 
     85 CA         27.8835   22.3030    2.4465 C.3       3 GLC5        0.0000 
     86 CA         29.6320   22.6740    3.4250 C.3       6 GLP5        0.0000 
     87 CA         27.5890   21.1000    1.2215 C.3       3 GLC5        0.0000 
     88 CA         26.4300   22.4750    1.1450 C.3       9 GLL5        0.0000 
     89 CA         29.0430   20.2680    0.9750 C.3       6 GLP5        0.0000 
     90 CA         23.9151   24.0634    3.5595 C.3       3 GLC5        0.0000 
     91 CA         24.0990   24.8660    5.3200 C.3       6 GLP5        0.0000 
     92 CA         23.0482   20.8830    8.8695 C.3       3 GLC5        0.0000 
     93 CA         22.0920   19.7140    6.9450 C.3       9 GLL5        0.0000 
     94 CA         23.9640   22.2530   10.0580 C.3       6 GLP5        0.0000 
     95 CA         20.6698   20.8285    7.3080 C.3       3 GLC5        0.0000 
     96 CA         22.1730   19.3120    8.4170 C.3       9 GLL5        0.0000 
     97 CA         19.2070   22.1440    6.9350 C.3       6 GLP5        0.0000 
     98 CA         23.2765   15.2977    6.7188 C.3       3 GLC5        0.0000 
     99 CA         22.2970   17.2810    6.3360 C.3       9 GLL5        0.0000 
    100 CA         24.1980   13.5010    6.3610 C.3       6 GLP5        0.0000 
    101 CA         26.4770   23.4770    2.8585 C.3       3 GLC5        0.0000 
    102 CA         27.0370   22.6710   -0.6475 C.3       3 GLC5        0.0000 
    103 CA         28.0050   22.2800   -2.3350 C.3       6 GLP5        0.0000 
    104 CA         20.8050   16.1698    8.9678 C.3       3 GLC5        0.0000 
    105 CA         19.5820   14.9310    9.7010 C.3       6 GLP5        0.0000 
    106 CA         20.7715   18.5433   10.2312 C.3       3 GLC5        0.0000 
    107 CA         21.6430   17.9090    8.6520 C.3       9 GLL5        0.0000 
    108 CA         19.6350   18.4760   11.9280 C.3       6 GLP5        0.0000 
@<TRIPOS>BOND
@<TRIPOS>SUBSTRUCTURE
     1 ALC1        7 GROUP        1 X    ALC  0     ROOT ALC X 1
     2 SEC2        1 GROUP        1 X    SEC  0     **** SEC X 2
     3 GLC5        4 GROUP        1 X    GLC  0     **** GLC X 6
     4 ALP1        9 GROUP        1 Y    ALP  0     ROOT ALP Y 8
     5 SEP2        3 GROUP        1 Y    SEP  0     **** SEP Y 9
     6 GLP5        6 GROUP        1 Y    GLP  0     **** GLP Y 13
     7 ALL1        8 GROUP        1 Z    ALL  0     ROOT ALL Z 15
     8 SEL2        2 GROUP        1 Z    SEL  0     **** SEL Z 16
     9 GLL5        5 GROUP        1 Z    GLL  0     **** GLL Z 20
@<TRIPOS>SET

