#    Name: 3omk_OMK_1_ligand
#    Modification time : Tue Mar 25 04:51:25 2014

@<TRIPOS>MOLECULE
3omk_OMK_1_ligand
   61    65     1     0     0
SMALL
NO_CHARGES


@<TRIPOS>ATOM
      1 N1         23.0560   17.9300    3.7010 N.pl3     1 OMK1        0.0000 
      2 C2         22.2160   17.1750    2.8390 C.2       1 OMK1        0.0000 
      3 N3         22.8890   16.2090    2.1950 N.2       1 OMK1        0.0000 
      4 C4         24.3070   17.3200    3.6060 C.ar      1 OMK1        0.0000 
      5 C5         24.1890   16.2470    2.6630 C.ar      1 OMK1        0.0000 
      6 C6         23.5150   20.3030    4.1630 C.2       1 OMK1        0.0000 
      7 C7         22.6620   19.0380    4.5350 C.3       1 OMK1        0.0000 
      8 C8         25.5120   17.5860    4.2380 C.ar      1 OMK1        0.0000 
      9 N9         23.8270   20.4330    2.8360 N.am      1 OMK1        0.0000 
     10 C10        25.3050   15.4210    2.3550 C.ar      1 OMK1        0.0000 
     11 C11        26.6100   16.7990    3.9140 C.ar      1 OMK1        0.0000 
     12 C12        20.8330   17.5530    2.6310 C.ar      1 OMK1        0.0000 
     13 C13        26.5140   15.7610    2.9690 C.ar      1 OMK1        0.0000 
     14 C14        24.4890   21.4960    2.2180 C.ar      1 OMK1        0.0000 
     15 O15        23.8890   21.1220    4.9970 O.2       1 OMK1        0.0000 
     16 C16        23.7820   22.7090    2.0450 C.ar      1 OMK1        0.0000 
     17 C17        22.7860   18.6970    6.0440 C.3       1 OMK1        0.0000 
     18 C18        20.5610   18.7220    1.9090 C.ar      1 OMK1        0.0000 
     19 C19        19.7950   16.8270    3.2250 C.ar      1 OMK1        0.0000 
     20 F20        27.8180   17.0300    4.4780 F         1 OMK1        0.0000 
     21 F21        27.6430   15.0530    2.8040 F         1 OMK1        0.0000 
     22 C22        18.2080   18.4100    2.3520 C.ar      1 OMK1        0.0000 
     23 C23        18.4840   17.2690    3.0950 C.ar      1 OMK1        0.0000 
     24 C24        19.2350   19.1570    1.7690 C.ar      1 OMK1        0.0000 
     25 CL25       16.5920   18.9160    2.2110 Cl        1 OMK1        0.0000 
     26 C26        25.8400   21.3890    1.7910 C.ar      1 OMK1        0.0000 
     27 C27        22.3730   22.8200    2.4510 C.3       1 OMK1        0.0000 
     28 C28        24.3850   23.7570    1.3500 C.ar      1 OMK1        0.0000 
     29 C29        22.0920   19.7140    6.9450 C.3       1 OMK1        0.0000 
     30 C30        22.2970   17.2810    6.3360 C.3       1 OMK1        0.0000 
     31 C31        26.4300   22.4750    1.1450 C.ar      1 OMK1        0.0000 
     32 C32        25.7080   23.6490    0.9350 C.ar      1 OMK1        0.0000 
     33 C33        22.4130   16.9080    7.8170 C.3       1 OMK1        0.0000 
     34 C34        22.1730   19.3120    8.4170 C.3       1 OMK1        0.0000 
     35 C35        21.6430   17.9090    8.6520 C.3       1 OMK1        0.0000 
     36 H          21.6180   19.3050    4.3440 H         1 OMK1        0.0000 
     37 H          25.5912   18.3357    4.9197 H         1 OMK1        0.0000 
     38 H          23.5298   19.6218    2.1808 H         1 OMK1        0.0000 
     39 H          25.2181   14.6467    1.7354 H         1 OMK1        0.0000 
     40 H          23.8685   18.7216    6.2885 H         1 OMK1        0.0000 
     41 H          21.3234   19.2552    1.4865 H         1 OMK1        0.0000 
     42 H          20.0049   15.9739    3.7526 H         1 OMK1        0.0000 
     43 H          17.7194   16.7523    3.5481 H         1 OMK1        0.0000 
     44 H          19.0255   20.0077    1.2481 H         1 OMK1        0.0000 
     45 H          26.3564   20.5319    1.9589 H         1 OMK1        0.0000 
     46 H          23.8491   24.6103    1.1449 H         1 OMK1        0.0000 
     47 H          21.0422   19.7959    6.6534 H         1 OMK1        0.0000 
     48 H          22.5630   20.6912    6.8142 H         1 OMK1        0.0000 
     49 H          22.8825   16.5684    5.7425 H         1 OMK1        0.0000 
     50 H          21.2484   17.1915    6.0274 H         1 OMK1        0.0000 
     51 H          27.4055   22.4092    0.8210 H         1 OMK1        0.0000 
     52 H          26.1634   24.4489    0.4645 H         1 OMK1        0.0000 
     53 H          23.4585   16.9177    8.1041 H         1 OMK1        0.0000 
     54 H          22.0043   15.9147    7.9654 H         1 OMK1        0.0000 
     55 H          21.5932   20.0239    9.0130 H         1 OMK1        0.0000 
     56 H          23.2163   19.3657    8.7439 H         1 OMK1        0.0000 
     57 H          21.7451   17.6571    9.7070 H         1 OMK1        0.0000 
     58 H          20.5882   17.8723    8.3822 H         1 OMK1        0.0000 
     59 H          22.2528   22.6418    3.4276 H         1 OMK1        0.0000 
     60 H          22.0058   23.7328    2.2722 H         1 OMK1        0.0000 
     61 H          21.7929   22.1695    1.9608 H         1 OMK1        0.0000 
@<TRIPOS>BOND
     1    2    1 1    
     2    4    1 1    
     3    7    1 1    
     4    3    2 2    
     5   12    2 1    
     6    5    3 1    
     7    5    4 ar   
     8    8    4 ar   
     9   10    5 ar   
    10    7    6 1    
    11    9    6 am   
    12   15    6 2    
    13   17    7 1    
    14   36    7 1    
    15   11    8 ar   
    16   37    8 1    
    17   14    9 1    
    18   38    9 1    
    19   13   10 ar   
    20   39   10 1    
    21   13   11 ar   
    22   20   11 1    
    23   18   12 ar   
    24   19   12 ar   
    25   21   13 1    
    26   16   14 ar   
    27   26   14 ar   
    28   27   16 1    
    29   28   16 ar   
    30   29   17 1    
    31   30   17 1    
    32   40   17 1    
    33   24   18 ar   
    34   41   18 1    
    35   23   19 ar   
    36   42   19 1    
    37   23   22 ar   
    38   24   22 ar   
    39   25   22 1    
    40   43   23 1    
    41   44   24 1    
    42   31   26 ar   
    43   45   26 1    
    44   59   27 1    
    45   60   27 1    
    46   61   27 1    
    47   32   28 ar   
    48   46   28 1    
    49   34   29 1    
    50   47   29 1    
    51   48   29 1    
    52   33   30 1    
    53   49   30 1    
    54   50   30 1    
    55   32   31 ar   
    56   51   31 1    
    57   52   32 1    
    58   35   33 1    
    59   53   33 1    
    60   54   33 1    
    61   35   34 1    
    62   55   34 1    
    63   56   34 1    
    64   57   35 1    
    65   58   35 1    
@<TRIPOS>SUBSTRUCTURE
     1 OMK1        1 GROUP   
@<TRIPOS>SET

