#    Name: 3tqc_ADP_2_INTS_M
#    Modification time : Mon Mar 24 20:49:21 2014

@<TRIPOS>MOLECULE
3tqc_ADP_2_INTS_M
   62     0     9     0     0
SMALL
NO_CHARGES


@<TRIPOS>ATOM
      1 N          -6.7655   39.2605  -23.1765 N.am      1 SEC2        0.0000 
      2 N          -6.7170   39.7740  -21.8680 N.am      7 SEL2        0.0000 
      3 N          -6.8140   38.7470  -24.4850 N.am      4 SEP2        0.0000 
      4 NZ         -4.9115   37.6050  -20.3245 N.4       2 LYC4        0.0000 
      5 NZ         -4.5970   38.7600  -20.9900 N.4       8 LYL4        0.0000 
      6 NZ         -5.2260   36.4500  -19.6590 N.4       5 LYP4        0.0000 
      7 N          -3.0520   39.2880  -20.4305 N.am      1 SEC2        0.0000 
      8 N          -4.5970   38.7600  -20.9900 N.am      7 SEL2        0.0000 
      9 N          -1.5070   39.8160  -19.8710 N.am      4 SEP2        0.0000 
     10 N          -3.3715   39.3335  -21.7210 N.am      1 SEC2        0.0000 
     11 N          -2.1460   39.9070  -22.4520 N.am      4 SEP2        0.0000 
     12 N          -4.3460   38.5645  -22.3930 N.am      1 SEC2        0.0000 
     13 N          -4.0950   38.3690  -23.7960 N.am      4 SEP2        0.0000 
     14 N          -4.9115   37.6050  -20.3245 N.am      1 SEC2        0.0000 
     15 N          -5.2260   36.4500  -19.6590 N.am      4 SEP2        0.0000 
     16 NZ         -5.5605   38.3950  -19.5960 N.4       2 LYC4        0.0000 
     17 NZ         -5.8950   40.3400  -19.5330 N.4       8 LYL4        0.0000 
     18 NZ         -5.9830   41.7050  -19.1540 N.4       2 LYC4        0.0000 
     19 NZ         -6.0610   43.7170  -17.6140 N.4       5 LYP4        0.0000 
     20 N          -4.6705   40.2670  -18.7140 N.am      1 SEC2        0.0000 
     21 N          -5.8950   40.3400  -19.5330 N.am      7 SEL2        0.0000 
     22 N          -3.4460   40.1940  -17.8950 N.am      4 SEP2        0.0000 
     23 N          -5.9830   41.7050  -19.1540 N.am      1 SEC2        0.0000 
     24 N          -6.0710   43.0700  -18.7750 N.am      4 SEP2        0.0000 
     25 N          -5.9705   41.2370  -25.0435 N.am      1 SEC2        0.0000 
     26 N          -5.4290   41.6020  -23.8170 N.am      7 SEL2        0.0000 
     27 N          -6.5120   40.8720  -26.2700 N.am      4 SEP2        0.0000 
     28 N          -5.2645   42.4355  -24.9055 N.am      1 SEC2        0.0000 
     29 N          -5.1000   43.2690  -25.9940 N.am      4 SEP2        0.0000 
     30 N          -6.2125   43.0615  -20.3085 N.am      1 SEC2        0.0000 
     31 N          -6.3540   43.0530  -21.8420 N.am      7 SEL2        0.0000 
     32 CA         -3.0340   42.5395  -19.9515 C.3       3 GLC5        0.0000 
     33 CA         -3.3090   43.7130  -21.4500 C.3       9 GLL5        0.0000 
     34 CA         -2.7590   41.3660  -18.4530 C.3       6 GLP5        0.0000 
     35 CA         -2.9745   42.0170  -22.6010 C.3       3 GLC5        0.0000 
     36 CA         -2.6400   40.3210  -23.7520 C.3       6 GLP5        0.0000 
     37 CA         -3.5005   46.8315  -25.7585 C.3       3 GLC5        0.0000 
     38 CA         -3.6170   46.0310  -23.7480 C.3       9 GLL5        0.0000 
     39 CA         -3.3840   47.6320  -27.7690 C.3       6 GLP5        0.0000 
     40 N          -0.3275   42.1325  -25.6295 N.am      1 SEC2        0.0000 
     41 N          -1.5040   43.1330  -26.2570 N.am      7 SEL2        0.0000 
     42 N           0.8490   41.1320  -25.0020 N.am      4 SEP2        0.0000 
     43 CA          1.6030   44.3320  -27.2600 C.3       3 GLC5        0.0000 
     44 CA          0.0420   44.2230  -28.0030 C.3       9 GLL5        0.0000 
     45 CA          3.1640   44.4410  -26.5170 C.3       6 GLP5        0.0000 
     46 CA         -1.4585   47.0565  -27.5995 C.3       3 GLC5        0.0000 
     47 CA          0.4670   46.4810  -27.4300 C.3       9 GLL5        0.0000 
     48 CA         -0.2545   46.4415  -29.4245 C.3       3 GLC5        0.0000 
     49 CA         -0.9760   46.4020  -31.4190 C.3       6 GLP5        0.0000 
     50 CA          1.4710   45.6235  -26.3335 C.3       3 GLC5        0.0000 
     51 CA          2.4750   44.7660  -25.2370 C.3       6 GLP5        0.0000 
     52 CA         -4.6254   45.5588  -20.3377 C.3       3 GLC5        0.0000 
     53 CA         -2.7980   45.1290  -21.6760 C.3       9 GLL5        0.0000 
     54 CA         -5.7930   45.8900  -18.7640 C.3       6 GLP5        0.0000 
     55 CA         -2.1215   46.1698  -27.0778 C.3       3 GLC5        0.0000 
     56 CA         -0.9260   45.2960  -25.9640 C.3       9 GLL5        0.0000 
     57 CA         -1.4360   44.3375  -29.0920 C.3       3 GLC5        0.0000 
     58 CA         -0.7920   44.1190  -26.8090 C.3       9 GLL5        0.0000 
     59 CA         -2.4970   44.5040  -30.7780 C.3       6 GLP5        0.0000 
     60 CA         -2.3460   43.6885  -27.8595 C.3       3 GLC5        0.0000 
     61 CA         -4.3170   43.2060  -28.3130 C.3       6 GLP5        0.0000 
     62 CA          0.8080   44.7368  -25.8117 C.3       3 GLC5        0.0000 
@<TRIPOS>BOND
@<TRIPOS>SUBSTRUCTURE
     1 SEC2        1 GROUP        1 X    SEC  0     ROOT SEC X 2
     2 LYC4        4 GROUP        1 X    LYC  0     **** LYC X 4
     3 GLC5       32 GROUP        1 X    GLC  0     **** GLC X 6
     4 SEP2        3 GROUP        1 Y    SEP  0     ROOT SEP Y 9
     5 LYP4        6 GROUP        1 Y    LYP  0     **** LYP Y 11
     6 GLP5       34 GROUP        1 Y    GLP  0     **** GLP Y 13
     7 SEL2        2 GROUP        1 Z    SEL  0     ROOT SEL Z 16
     8 LYL4        5 GROUP        1 Z    LYL  0     **** LYL Z 18
     9 GLL5       33 GROUP        1 Z    GLL  0     **** GLL Z 20
@<TRIPOS>SET

