#    Name: 3tqc_ADP_2_ligand
#    Modification time : Mon Mar 24 20:49:21 2014

@<TRIPOS>MOLECULE
3tqc_ADP_2_ligand
   39    41     1     0     0
SMALL
NO_CHARGES


@<TRIPOS>ATOM
      1 PB         -5.5490   39.9270  -20.9460 P.3       1 ADP500      0.0000 
      2 O1B        -6.7170   39.7740  -21.8680 O.co2     1 ADP500      0.0000 
      3 O2B        -4.5970   38.7600  -20.9900 O.co2     1 ADP500      0.0000 
      4 O3B        -5.8950   40.3400  -19.5330 O.co2     1 ADP500      0.0000 
      5 PA         -5.2410   42.2880  -22.4850 P.3       1 ADP500      0.0000 
      6 O1A        -5.4290   41.6020  -23.8170 O.co2     1 ADP500      0.0000 
      7 O2A        -6.3540   43.0530  -21.8420 O.co2     1 ADP500      0.0000 
      8 O3A        -4.7030   41.2010  -21.4340 O.3       1 ADP500      0.0000 
      9 O5'        -4.0100   43.2780  -22.6020 O.3       1 ADP500      0.0000 
     10 C5'        -3.3090   43.7130  -21.4500 C.3       1 ADP500      0.0000 
     11 C4'        -2.7980   45.1290  -21.6760 C.3       1 ADP500      0.0000 
     12 O4'        -1.7330   45.1230  -22.6210 O.3       1 ADP500      0.0000 
     13 C3'        -3.8620   46.0340  -22.2600 C.3       1 ADP500      0.0000 
     14 O3'        -3.6900   47.3400  -21.7080 O.3       1 ADP500      0.0000 
     15 C2'        -3.6170   46.0310  -23.7480 C.3       1 ADP500      0.0000 
     16 O2'        -3.9540   47.2770  -24.3330 O.3       1 ADP500      0.0000 
     17 C1'        -2.1270   45.7780  -23.8340 C.3       1 ADP500      0.0000 
     18 N9         -1.7210   44.9220  -24.9670 N.pl3     1 ADP500      0.0000 
     19 C8         -2.0640   43.6370  -25.1340 C.2       1 ADP500      0.0000 
     20 N7         -1.5040   43.1330  -26.2570 N.2       1 ADP500      0.0000 
     21 C5         -0.7920   44.1190  -26.8090 C.ar      1 ADP500      0.0000 
     22 C6          0.0420   44.2230  -28.0030 C.ar      1 ADP500      0.0000 
     23 N6          0.1780   43.1380  -28.8050 N.pl3     1 ADP500      0.0000 
     24 N1          0.6260   45.4110  -28.2410 N.ar      1 ADP500      0.0000 
     25 C2          0.4670   46.4810  -27.4300 C.ar      1 ADP500      0.0000 
     26 N3         -0.2880   46.4410  -26.3110 N.ar      1 ADP500      0.0000 
     27 C4         -0.9260   45.2960  -25.9640 C.ar      1 ADP500      0.0000 
     28 H          -2.4437   43.0764  -21.2308 H         1 ADP500      0.0000 
     29 H          -3.9494   43.7268  -20.5602 H         1 ADP500      0.0000 
     30 H          -2.4749   45.5445  -20.7399 H         1 ADP500      0.0000 
     31 H          -4.8103   45.6159  -22.0553 H         1 ADP500      0.0000 
     32 H          -4.1200   45.2008  -24.1718 H         1 ADP500      0.0000 
     33 H          -1.6218   46.7366  -23.9013 H         1 ADP500      0.0000 
     34 H          -2.6426   43.1255  -24.5274 H         1 ADP500      0.0000 
     35 H           0.2978   43.3239  -29.7802 H         1 ADP500      0.0000 
     36 H           0.1464   42.2479  -28.3503 H         1 ADP500      0.0000 
     37 H           0.9545   47.3870  -27.6830 H         1 ADP500      0.0000 
     38 H          -4.5965   47.6025  -21.3772 H         1 ADP500      0.0000 
     39 H          -4.0714   47.9018  -23.5612 H         1 ADP500      0.0000 
@<TRIPOS>BOND
     1    2    1 ar   
     2    3    1 ar   
     3    4    1 ar   
     4    8    1 1    
     5    6    5 ar   
     6    7    5 ar   
     7    8    5 1    
     8    9    5 1    
     9   10    9 1    
    10   11   10 1    
    11   28   10 1    
    12   29   10 1    
    13   12   11 1    
    14   13   11 1    
    15   30   11 1    
    16   17   12 1    
    17   14   13 1    
    18   15   13 1    
    19   31   13 1    
    20   38   14 1    
    21   16   15 1    
    22   17   15 1    
    23   32   15 1    
    24   39   16 1    
    25   18   17 1    
    26   33   17 1    
    27   19   18 1    
    28   27   18 1    
    29   20   19 2    
    30   34   19 1    
    31   21   20 1    
    32   22   21 ar   
    33   27   21 ar   
    34   23   22 1    
    35   24   22 ar   
    36   35   23 1    
    37   36   23 1    
    38   25   24 ar   
    39   26   25 ar   
    40   37   25 1    
    41   27   26 ar   
@<TRIPOS>SUBSTRUCTURE
     1 ADP500      1 GROUP   
@<TRIPOS>SET

