#    Name: 2fme_3QC_2_INTS_M
#    Modification time : Tue Mar 25 12:56:12 2014

@<TRIPOS>MOLECULE
2fme_3QC_2_INTS_M
   74     0     9     0     0
SMALL
NO_CHARGES


@<TRIPOS>ATOM
      1 CA         20.4490    8.3020   60.8940 C.3       3 GLC5        0.0000 
      2 CA         21.2820   10.2590   61.1040 C.3       9 GLL5        0.0000 
      3 CA         19.6160    6.3450   60.6840 C.3       6 GLP5        0.0000 
      4 CA         21.3470   14.1910   66.0110 C.3       3 GLC5        0.0000 
      5 CA         21.1980   12.9330   64.5410 C.3       9 GLL5        0.0000 
      6 CA         21.4960   15.4490   67.4810 C.3       6 GLP5        0.0000 
      7 CA         21.8220    9.7075   64.2490 C.3       3 GLC5        0.0000 
      8 CA         20.3330   10.9580   63.2910 C.3       9 GLL5        0.0000 
      9 CA         23.3110    8.4570   65.2070 C.3       6 GLP5        0.0000 
     10 CA         24.5145   14.1380   58.7295 C.3       3 GLC5        0.0000 
     11 CA         25.2420   13.4510   60.4140 C.3       9 GLL5        0.0000 
     12 CA         23.7870   14.8250   57.0450 C.3       6 GLP5        0.0000 
     13 CA         28.6385   14.2800   59.8450 C.3       3 GLC5        0.0000 
     14 CA         26.6720   13.6410   60.6480 C.3       9 GLL5        0.0000 
     15 CA         30.6050   14.9190   59.0420 C.3       6 GLP5        0.0000 
     16 CA         27.6085   14.8500   61.9225 C.3       3 GLC5        0.0000 
     17 CA         27.3270   13.0210   61.7660 C.3       9 GLL5        0.0000 
     18 CA         27.8900   16.6790   62.0790 C.3       6 GLP5        0.0000 
     19 N          28.4985   13.4305   59.4210 N.am      2 SEC2        0.0000 
     20 N          27.4250   14.4590   59.8100 N.am      8 SEL2        0.0000 
     21 N          29.5720   12.4020   59.0320 N.am      5 SEP2        0.0000 
     22 O          26.7735   14.7695   58.6805 O.2       1 ALC1        0.0000 
     23 O          27.4250   14.4590   59.8100 O.2       7 ALL1        0.0000 
     24 O          26.1220   15.0800   57.5510 O.2       4 ALP1        0.0000 
     25 CA         19.5230    8.0745   61.9230 C.3       3 GLC5        0.0000 
     26 CA         19.4300    9.8040   63.1620 C.3       9 GLL5        0.0000 
     27 CA         23.1605   13.3425   58.4430 C.3       3 GLC5        0.0000 
     28 CA         22.5340   11.8600   59.8410 C.3       9 GLL5        0.0000 
     29 CA         17.6690   10.3975   66.1960 C.3       3 GLC5        0.0000 
     30 CA         19.3110   11.5360   65.4720 C.3       9 GLL5        0.0000 
     31 CA         16.0270    9.2590   66.9200 C.3       6 GLP5        0.0000 
     32 CA         18.8775   11.6525   67.3445 C.3       3 GLC5        0.0000 
     33 CA         18.4440   11.7690   69.2170 C.3       6 GLP5        0.0000 
     34 CA         25.1105    8.2520   61.7955 C.3       3 GLC5        0.0000 
     35 CA         23.2500    7.9100   61.5030 C.3       9 GLL5        0.0000 
     36 CA         26.9710    8.5940   62.0880 C.3       6 GLP5        0.0000 
     37 CA         23.2805    8.1835   63.3550 C.3       3 GLC5        0.0000 
     38 CA         22.9610    6.2920   62.1940 C.3       3 GLC5        0.0000 
     39 CA         22.6720    4.6740   62.8850 C.3       6 GLP5        0.0000 
     40 CA         21.4330    7.1275   61.0935 C.3       3 GLC5        0.0000 
     41 CA         25.3080    7.3755   60.1455 C.3       3 GLC5        0.0000 
     42 CA         23.4130    7.1270   59.1500 C.3       9 GLL5        0.0000 
     43 CA         27.2030    7.6240   61.1410 C.3       6 GLP5        0.0000 
     44 CA         24.2785    5.8265   60.7045 C.3       3 GLC5        0.0000 
     45 CA         25.1440    4.5260   62.2590 C.3       6 GLP5        0.0000 
     46 CA         21.5145    6.7360   59.9170 C.3       3 GLC5        0.0000 
     47 CA         20.6140   13.4660   62.3498 C.3       3 GLC5        0.0000 
     48 CA         21.2360   11.2290   62.2450 C.3       9 GLL5        0.0000 
     49 CA         19.5650   15.1360   62.4200 C.3       6 GLP5        0.0000 
     50 CA         20.6065   14.1065   63.2127 C.3       3 GLC5        0.0000 
     51 CA         22.0980   13.2210   63.4700 C.3       9 GLL5        0.0000 
     52 CA         22.8330   14.3615   64.7473 C.3       3 GLC5        0.0000 
     53 CA         24.0180   15.6460   65.4890 C.3       6 GLP5        0.0000 
     54 CA         23.2595   11.6920   64.3085 C.3       3 GLC5        0.0000 
     55 CA         24.4250   10.5920   65.7250 C.3       6 GLP5        0.0000 
     56 CA         19.3977   13.3755   66.0525 C.3       3 GLC5        0.0000 
     57 CA         20.3140   11.8140   64.4260 C.3       9 GLL5        0.0000 
     58 CA         18.9830   15.0760   67.1560 C.3       6 GLP5        0.0000 
     59 CA         26.3910   15.3445   60.8115 C.3       3 GLC5        0.0000 
     60 CA         26.8250   17.1430   61.0920 C.3       6 GLP5        0.0000 
     61 CA         27.1260   11.7880   60.3425 C.3       3 GLC5        0.0000 
     62 CA         27.2720   10.9890   58.4530 C.3       6 GLP5        0.0000 
     63 CA         28.5195   11.6290   62.4090 C.3       3 GLC5        0.0000 
     64 CA         30.0590   10.6710   62.5860 C.3       6 GLP5        0.0000 
     65 CA         25.1767   11.3205   64.1455 C.3       3 GLC5        0.0000 
     66 CA         26.6330   12.1530   62.6980 C.3       9 GLL5        0.0000 
     67 CA         26.2575   12.0340   59.6955 C.3       3 GLC5        0.0000 
     68 CA         24.5290   12.6120   61.3450 C.3       9 GLL5        0.0000 
     69 CA         26.0755   13.3575   63.8875 C.3       3 GLC5        0.0000 
     70 CA         26.0490   14.4490   65.4420 C.3       6 GLP5        0.0000 
     71 CA         19.1096   13.1395   64.0246 C.3       3 GLC5        0.0000 
     72 CA         18.4020   14.8180   63.3840 C.3       6 GLP5        0.0000 
     73 CA         21.2182   10.9509   65.9969 C.3       3 GLC5        0.0000 
     74 CA         22.4030    9.9470   67.0160 C.3       6 GLP5        0.0000 
@<TRIPOS>BOND
@<TRIPOS>SUBSTRUCTURE
     1 ALC1       22 GROUP        1 X    ALC  0     ROOT ALC X 1
     2 SEC2       19 GROUP        1 X    SEC  0     **** SEC X 2
     3 GLC5        1 GROUP        1 X    GLC  0     **** GLC X 6
     4 ALP1       24 GROUP        1 Y    ALP  0     ROOT ALP Y 8
     5 SEP2       21 GROUP        1 Y    SEP  0     **** SEP Y 9
     6 GLP5        3 GROUP        1 Y    GLP  0     **** GLP Y 13
     7 ALL1       23 GROUP        1 Z    ALL  0     ROOT ALL Z 15
     8 SEL2       20 GROUP        1 Z    SEL  0     **** SEL Z 16
     9 GLL5        2 GROUP        1 Z    GLL  0     **** GLL Z 20
@<TRIPOS>SET

