#    Name: 2fme_3QC_2_ligand
#    Modification time : Tue Mar 25 12:56:12 2014

@<TRIPOS>MOLECULE
2fme_3QC_2_ligand
   48    50     1     0     0
SMALL
NO_CHARGES


@<TRIPOS>ATOM
      1 C1         21.2360   11.2290   62.2450 C.ar      1 3QC370      0.0000 
      2 C2         21.2820   10.2590   61.1040 C.3       1 3QC370      0.0000 
      3 C11        22.0980   13.2210   63.4700 C.ar      1 3QC370      0.0000 
      4 C12        21.1980   12.9330   64.5410 C.ar      1 3QC370      0.0000 
      5 C13        20.3140   11.8140   64.4260 C.ar      1 3QC370      0.0000 
      6 C14        20.3330   10.9580   63.2910 C.ar      1 3QC370      0.0000 
      7 C19        25.2420   13.4510   60.4140 C.ar      1 3QC370      0.0000 
      8 C20        26.6720   13.6410   60.6480 C.ar      1 3QC370      0.0000 
      9 C21        27.3270   13.0210   61.7660 C.ar      1 3QC370      0.0000 
     10 C22        26.6330   12.1530   62.6980 C.ar      1 3QC370      0.0000 
     11 O28        27.4250   14.4590   59.8100 O.3       1 3QC370      0.0000 
     12 C33        19.4300    9.8040   63.1620 C.3       1 3QC370      0.0000 
     13 N3         22.3810   10.4510   60.1810 N.am      1 3QC370      0.0000 
     14 C4         22.5340   11.8600   59.8410 C.3       1 3QC370      0.0000 
     15 C5         23.0480   12.4430   61.1670 C.3       1 3QC370      0.0000 
     16 C6         22.0900   12.3630   62.3140 C.ar      1 3QC370      0.0000 
     17 C17        24.5290   12.6120   61.3450 C.ar      1 3QC370      0.0000 
     18 C23        25.2240   11.9450   62.4340 C.ar      1 3QC370      0.0000 
     19 C29        19.3110   11.5360   65.4720 C.3       1 3QC370      0.0000 
     20 C38        22.9870    9.4520   59.5010 C.2       1 3QC370      0.0000 
     21 N39        23.1890    8.2240   60.0810 N.am      1 3QC370      0.0000 
     22 C40        23.2500    7.9100   61.5030 C.3       1 3QC370      0.0000 
     23 C44        23.4130    7.1270   59.1500 C.3       1 3QC370      0.0000 
     24 O48        23.3490    9.6650   58.3510 O.2       1 3QC370      0.0000 
     25 H          20.3064   10.3155   60.5586 H         1 3QC370      0.0000 
     26 H          21.3108    9.2235   61.5275 H         1 3QC370      0.0000 
     27 H          22.7246   14.0035   63.5173 H         1 3QC370      0.0000 
     28 H          21.1850   13.5105   65.3683 H         1 3QC370      0.0000 
     29 H          24.7919   13.8826   59.6487 H         1 3QC370      0.0000 
     30 H          28.3311   13.1965   61.9171 H         1 3QC370      0.0000 
     31 H          27.0881   11.7352   63.4560 H         1 3QC370      0.0000 
     32 H          21.6049   12.3137   59.6098 H         1 3QC370      0.0000 
     33 H          23.2735   12.0088   59.0971 H         1 3QC370      0.0000 
     34 H          22.7821   13.7033   60.8424 H         1 3QC370      0.0000 
     35 H          24.6955   11.3044   63.0358 H         1 3QC370      0.0000 
     36 H          19.9350    8.9463   63.0654 H         1 3QC370      0.0000 
     37 H          18.8360    9.7061   63.9605 H         1 3QC370      0.0000 
     38 H          18.8350    9.8855   62.3624 H         1 3QC370      0.0000 
     39 H          19.7374   11.3754   66.3622 H         1 3QC370      0.0000 
     40 H          18.6725   12.2971   65.5859 H         1 3QC370      0.0000 
     41 H          18.7658   10.7256   65.2577 H         1 3QC370      0.0000 
     42 H          23.4042    6.9348   61.6617 H         1 3QC370      0.0000 
     43 H          23.9906    8.4021   61.9606 H         1 3QC370      0.0000 
     44 H          22.4019    8.1531   61.9737 H         1 3QC370      0.0000 
     45 H          24.2217    7.2810   58.5823 H         1 3QC370      0.0000 
     46 H          23.5500    6.2582   59.6258 H         1 3QC370      0.0000 
     47 H          22.6387    7.0025   58.5296 H         1 3QC370      0.0000 
     48 H          26.7525   14.9837   59.2881 H         1 3QC370      0.0000 
@<TRIPOS>BOND
     1    2    1 1    
     2    6    1 ar   
     3   16    1 ar   
     4   13    2 1    
     5   25    2 1    
     6   26    2 1    
     7    4    3 ar   
     8   16    3 ar   
     9   27    3 1    
    10    5    4 ar   
    11   28    4 1    
    12    6    5 ar   
    13   19    5 1    
    14   12    6 1    
    15    8    7 ar   
    16   17    7 ar   
    17   29    7 1    
    18    9    8 ar   
    19   11    8 1    
    20   10    9 ar   
    21   30    9 1    
    22   18   10 ar   
    23   31   10 1    
    24   48   11 1    
    25   36   12 1    
    26   37   12 1    
    27   38   12 1    
    28   14   13 1    
    29   20   13 am   
    30   15   14 1    
    31   32   14 1    
    32   33   14 1    
    33   16   15 1    
    34   17   15 1    
    35   34   15 1    
    36   18   17 ar   
    37   35   18 1    
    38   39   19 1    
    39   40   19 1    
    40   41   19 1    
    41   21   20 am   
    42   24   20 2    
    43   22   21 1    
    44   23   21 1    
    45   42   22 1    
    46   43   22 1    
    47   44   22 1    
    48   45   23 1    
    49   46   23 1    
    50   47   23 1    
@<TRIPOS>SUBSTRUCTURE
     1 3QC370      1 GROUP   
@<TRIPOS>SET

