#    Name: 3l1s_Z92_2_INTS_M
#    Modification time : Mon Mar 24 20:48:11 2014

@<TRIPOS>MOLECULE
3l1s_Z92_2_INTS_M
   63     0     9     0     0
SMALL
NO_CHARGES


@<TRIPOS>ATOM
      1 CA         18.3215   56.6140   75.9585 C.3       3 GLC5        0.0000 
      2 CA         18.2170   56.1560   77.8580 C.3       9 GLL5        0.0000 
      3 CA         18.4260   57.0720   74.0590 C.3       6 GLP5        0.0000 
      4 CA         16.3020   56.8555   77.7065 C.3       3 GLC5        0.0000 
      5 CA         14.3870   57.5550   77.5550 C.3       6 GLP5        0.0000 
      6 CA         17.9950   54.7650   78.7970 C.3       3 GLC5        0.0000 
      7 CA         17.7730   53.3740   79.7360 C.3       6 GLP5        0.0000 
      8 N          15.9735   56.3950   78.4820 N.am      2 SEC2        0.0000 
      9 N          17.3440   56.6200   78.8510 N.am      8 SEL2        0.0000 
     10 N          14.6030   56.1700   78.1130 N.am      5 SEP2        0.0000 
     11 CA         19.1715   60.9305   80.0135 C.3       3 GLC5        0.0000 
     12 CA         19.0060   59.2110   81.4060 C.3       9 GLL5        0.0000 
     13 CA         19.3370   62.6500   78.6210 C.3       6 GLP5        0.0000 
     14 CA         20.4255   58.8150   83.0295 C.3       3 GLC5        0.0000 
     15 CA         21.8450   58.4190   84.6530 C.3       6 GLP5        0.0000 
     16 CA         17.5795   58.1725   83.8885 C.3       3 GLC5        0.0000 
     17 CA         17.8460   58.5810   81.7500 C.3       9 GLL5        0.0000 
     18 CA         17.3130   57.7640   86.0270 C.3       6 GLP5        0.0000 
     19 N          16.7900   55.7690   81.6520 N.am      2 SEC2        0.0000 
     20 N          16.1730   57.1280   81.3240 N.am      8 SEL2        0.0000 
     21 N          17.4070   54.4100   81.9800 N.am      5 SEP2        0.0000 
     22 CA         15.0600   58.3275   80.3125 C.3       3 GLC5        0.0000 
     23 CA         15.3880   57.9690   82.1150 C.3       9 GLL5        0.0000 
     24 CA         14.7320   58.6860   78.5100 C.3       6 GLP5        0.0000 
     25 CA         13.9850   57.2610   83.3675 C.3       3 GLC5        0.0000 
     26 CA         12.5820   56.5530   84.6200 C.3       6 GLP5        0.0000 
     27 CA         16.3505   57.8665   84.0710 C.3       3 GLC5        0.0000 
     28 CA         15.4275   59.4315   82.4955 C.3       3 GLC5        0.0000 
     29 CA         15.4670   60.8940   82.8760 C.3       6 GLP5        0.0000 
     30 O          19.5725   62.1580   85.2220 O.2       1 ALC1        0.0000 
     31 O          19.7480   61.3810   84.1490 O.2       7 ALL1        0.0000 
     32 O          19.3970   62.9350   86.2950 O.2       4 ALP1        0.0000 
     33 N          22.4545   62.7755   84.9060 N.am      2 SEC2        0.0000 
     34 N          21.6810   62.4000   83.6850 N.am      8 SEL2        0.0000 
     35 N          23.2280   63.1510   86.1270 N.am      5 SEP2        0.0000 
     36 CA         27.0085   59.2000   79.6085 C.3       3 GLC5        0.0000 
     37 CA         27.2910   60.9760   78.3400 C.3       9 GLL5        0.0000 
     38 CA         26.7260   57.4240   80.8770 C.3       6 GLP5        0.0000 
     39 CA         28.8240   60.0670   78.4645 C.3       3 GLC5        0.0000 
     40 CA         30.3570   59.1580   78.5890 C.3       6 GLP5        0.0000 
     41 CA         16.5955   58.2452   79.0160 C.3       3 GLC5        0.0000 
     42 CA         19.0370   58.1290   79.3500 C.3       9 GLL5        0.0000 
     43 CA         17.1780   55.6953   80.5557 C.3       3 GLC5        0.0000 
     44 CA         17.8810   57.4800   79.6940 C.3       9 GLL5        0.0000 
     45 CA         16.7730   53.7990   80.8140 C.3       6 GLP5        0.0000 
     46 CA         19.1393   59.7790   78.3053 C.3       3 GLC5        0.0000 
     47 CA         18.9480   60.9880   76.8340 C.3       6 GLP5        0.0000 
     48 CA         19.8223   56.9874   81.0367 C.3       3 GLC5        0.0000 
     49 CA         19.6240   59.0110   80.2030 C.3       9 GLL5        0.0000 
     50 CA         20.6030   55.5670   82.2110 C.3       6 GLP5        0.0000 
     51 CA         16.1487   58.4140   79.9177 C.3       3 GLC5        0.0000 
     52 CA         16.6613   59.5968   82.0577 C.3       3 GLC5        0.0000 
     53 CA         17.2850   57.7030   80.9010 C.3       9 GLL5        0.0000 
     54 CA         18.6318   57.0778   82.3858 C.3       3 GLC5        0.0000 
     55 CA         19.4080   55.8560   83.5320 C.3       6 GLP5        0.0000 
     56 CA         23.5260   63.0742   80.4985 C.3       3 GLC5        0.0000 
     57 CA         23.7880   61.3550   81.0010 C.3       9 GLL5        0.0000 
     58 CA         22.6630   64.5830   79.7690 C.3       6 GLP5        0.0000 
     59 CA         23.6565   59.3907   81.6805 C.3       3 GLC5        0.0000 
     60 CA         23.6000   57.6980   82.9770 C.3       6 GLP5        0.0000 
     61 CA         23.4190   62.6692   79.5648 C.3       3 GLC5        0.0000 
     62 CA         24.7120   60.6990   78.9540 C.3       9 GLL5        0.0000 
     63 CA         26.0386   59.2338   80.1782 C.3       3 GLC5        0.0000 
@<TRIPOS>BOND
@<TRIPOS>SUBSTRUCTURE
     1 ALC1       30 GROUP        1 X    ALC  0     ROOT ALC X 1
     2 SEC2        8 GROUP        1 X    SEC  0     **** SEC X 2
     3 GLC5        1 GROUP        1 X    GLC  0     **** GLC X 6
     4 ALP1       32 GROUP        1 Y    ALP  0     ROOT ALP Y 8
     5 SEP2       10 GROUP        1 Y    SEP  0     **** SEP Y 9
     6 GLP5        3 GROUP        1 Y    GLP  0     **** GLP Y 13
     7 ALL1       31 GROUP        1 Z    ALL  0     ROOT ALL Z 15
     8 SEL2        9 GROUP        1 Z    SEL  0     **** SEL Z 16
     9 GLL5        2 GROUP        1 Z    GLL  0     **** GLL Z 20
@<TRIPOS>SET

