#    Name: 3l1s_Z92_2_ligand
#    Modification time : Mon Mar 24 20:48:12 2014

@<TRIPOS>MOLECULE
3l1s_Z92_2_ligand
   40    42     1     0     0
SMALL
NO_CHARGES


@<TRIPOS>ATOM
      1 C1         18.2170   56.1560   77.8580 C.3       1 Z92422      0.0000 
      2 O2         17.3440   56.6200   78.8510 O.3       1 Z92422      0.0000 
      3 C3         17.8810   57.4800   79.6940 C.ar      1 Z92422      0.0000 
      4 C4         19.0370   58.1290   79.3500 C.ar      1 Z92422      0.0000 
      5 C5         19.6240   59.0110   80.2030 C.ar      1 Z92422      0.0000 
      6 C6         19.0060   59.2110   81.4060 C.ar      1 Z92422      0.0000 
      7 C7         17.8460   58.5810   81.7500 C.ar      1 Z92422      0.0000 
      8 C8         17.2850   57.7030   80.9010 C.ar      1 Z92422      0.0000 
      9 O9         16.1730   57.1280   81.3240 O.3       1 Z92422      0.0000 
     10 C10        15.3880   57.9690   82.1150 C.3       1 Z92422      0.0000 
     11 C11        19.5360   60.1230   82.3710 C.2       1 Z92422      0.0000 
     12 N12        19.0060   60.4520   83.4680 N.2       1 Z92422      0.0000 
     13 N13        19.7480   61.3810   84.1490 N.am      1 Z92422      0.0000 
     14 C14        20.8130   61.6490   83.4510 C.2       1 Z92422      0.0000 
     15 O15        21.6810   62.4000   83.6850 O.2       1 Z92422      0.0000 
     16 C16        20.7830   60.8110   82.3120 C.2       1 Z92422      0.0000 
     17 N17        21.7480   60.6930   81.4980 N.2       1 Z92422      0.0000 
     18 N18        22.6940   61.4500   81.8010 N.pl3     1 Z92422      0.0000 
     19 C19        23.7880   61.3550   81.0010 C.ar      1 Z92422      0.0000 
     20 C20        24.9900   61.7760   81.4550 C.ar      1 Z92422      0.0000 
     21 C21        26.0520   61.6590   80.6260 C.ar      1 Z92422      0.0000 
     22 C22        25.9290   61.1170   79.3840 C.ar      1 Z92422      0.0000 
     23 CL23       27.2910   60.9760   78.3400 Cl        1 Z92422      0.0000 
     24 C24        24.7120   60.6990   78.9540 C.ar      1 Z92422      0.0000 
     25 C25        23.6380   60.8120   79.7670 C.ar      1 Z92422      0.0000 
     26 H          19.4702   57.9414   78.4197 H         1 Z92422      0.0000 
     27 H          20.4809   59.4996   79.9609 H         1 Z92422      0.0000 
     28 H          17.4043   58.7856   82.6682 H         1 Z92422      0.0000 
     29 H          19.4875   61.7531   85.0080 H         1 Z92422      0.0000 
     30 H          22.6999   62.1140   82.5844 H         1 Z92422      0.0000 
     31 H          25.0930   62.1707   82.3961 H         1 Z92422      0.0000 
     32 H          26.9952   61.9932   80.9448 H         1 Z92422      0.0000 
     33 H          24.6083   60.2939   78.0031 H         1 Z92422      0.0000 
     34 H          22.7051   60.4865   79.4516 H         1 Z92422      0.0000 
     35 H          18.5641   56.9025   77.2903 H         1 Z92422      0.0000 
     36 H          19.0115   55.6916   78.2494 H         1 Z92422      0.0000 
     37 H          17.7696   55.5050   77.2448 H         1 Z92422      0.0000 
     38 H          15.8768   58.2726   82.9328 H         1 Z92422      0.0000 
     39 H          15.1080   58.7909   81.6189 H         1 Z92422      0.0000 
     40 H          14.5527   57.5147   82.4246 H         1 Z92422      0.0000 
@<TRIPOS>BOND
     1    2    1 1    
     2   35    1 1    
     3   36    1 1    
     4   37    1 1    
     5    3    2 1    
     6    4    3 ar   
     7    8    3 ar   
     8    5    4 ar   
     9   26    4 1    
    10    6    5 ar   
    11   27    5 1    
    12    7    6 ar   
    13   11    6 1    
    14    8    7 ar   
    15   28    7 1    
    16    9    8 1    
    17   10    9 1    
    18   38   10 1    
    19   39   10 1    
    20   40   10 1    
    21   12   11 2    
    22   16   11 1    
    23   13   12 1    
    24   14   13 am   
    25   29   13 1    
    26   15   14 2    
    27   16   14 1    
    28   17   16 2    
    29   18   17 1    
    30   19   18 1    
    31   30   18 1    
    32   20   19 ar   
    33   25   19 ar   
    34   21   20 ar   
    35   31   20 1    
    36   22   21 ar   
    37   32   21 1    
    38   23   22 1    
    39   24   22 ar   
    40   25   24 ar   
    41   33   24 1    
    42   34   25 1    
@<TRIPOS>SUBSTRUCTURE
     1 Z92422      1 GROUP   
@<TRIPOS>SET

