#    Name: 2bu9_HFV_1_INTS_M
#    Modification time : Mon Mar 24 21:42:38 2014

@<TRIPOS>MOLECULE
2bu9_HFV_1_INTS_M
   73     0     9     0     0
SMALL
NO_CHARGES


@<TRIPOS>ATOM
      1 NZ         18.7560   35.5405    3.9070 N.4       2 LYC4        0.0000 
      2 NZ         17.4430   35.8560    4.3580 N.4       8 LYL4        0.0000 
      3 NZ         21.0910   35.4700    4.2670 N.4       5 LYP4        0.0000 
      4 N          18.7560   35.5405    3.9070 N.am      1 SEC2        0.0000 
      5 N          17.4430   35.8560    4.3580 N.am      7 SEL2        0.0000 
      6 N          20.0690   35.2250    3.4560 N.am      4 SEP2        0.0000 
      7 N          16.9715   34.8065    3.6860 N.am      1 SEC2        0.0000 
      8 N          16.5000   33.7570    3.0140 N.am      4 SEP2        0.0000 
      9 NZ         19.5465   36.1175    5.9260 N.4       2 LYC4        0.0000 
     10 NZ         18.2460   36.2290    6.3960 N.4       8 LYL4        0.0000 
     11 N          19.5465   36.1175    5.9260 N.am      1 SEC2        0.0000 
     12 N          18.2460   36.2290    6.3960 N.am      7 SEL2        0.0000 
     13 N          20.8470   36.0060    5.4560 N.am      4 SEP2        0.0000 
     14 CA         16.2920   34.5295    6.7785 C.3       3 GLC5        0.0000 
     15 CA         15.8870   36.3420    6.0840 C.3       9 GLL5        0.0000 
     16 CA         16.6970   32.7170    7.4730 C.3       6 GLP5        0.0000 
     17 CA         14.4170   34.8515    5.9730 C.3       3 GLC5        0.0000 
     18 CA         12.9470   33.3610    5.8620 C.3       6 GLP5        0.0000 
     19 CA         16.2910   39.1370    4.8030 C.3       3 GLC5        0.0000 
     20 CA         15.3300   37.6050    5.4490 C.3       9 GLL5        0.0000 
     21 CA         17.2520   40.6690    4.1570 C.3       6 GLP5        0.0000 
     22 CA         15.4025   39.9935    4.7140 C.3       3 GLC5        0.0000 
     23 CA         13.5530   39.3180    5.2710 C.3       9 GLL5        0.0000 
     24 CA         13.0820   41.1955    4.9340 C.3       3 GLC5        0.0000 
     25 CA         12.6110   43.0730    4.5970 C.3       6 GLP5        0.0000 
     26 CA         10.4265   38.0925    2.3875 C.3       3 GLC5        0.0000 
     27 CA          9.2810   39.5370    2.4500 C.3       9 GLL5        0.0000 
     28 CA         11.5720   36.6480    2.3250 C.3       6 GLP5        0.0000 
     29 N           4.1305   37.3515    6.8745 N.am      1 SEC2        0.0000 
     30 N           4.9000   37.0720    5.8250 N.am      7 SEL2        0.0000 
     31 N           3.3610   37.6310    7.9240 N.am      4 SEP2        0.0000 
     32 CA          5.8905   41.1255    7.8365 C.3       3 GLC5        0.0000 
     33 CA          6.0440   39.3390    8.3380 C.3       9 GLL5        0.0000 
     34 CA          5.7370   42.9120    7.3350 C.3       6 GLP5        0.0000 
     35 CA          5.4235   38.4585   11.2035 C.3       3 GLC5        0.0000 
     36 CA          5.3200   39.1550    9.4670 C.3       9 GLL5        0.0000 
     37 CA          5.5270   37.7620   12.9400 C.3       6 GLP5        0.0000 
     38 CA          4.8030   40.8845    8.5020 C.3       3 GLC5        0.0000 
     39 CA          4.2860   42.6140    7.5370 C.3       6 GLP5        0.0000 
     40 CA          4.7775   41.1995    7.4745 C.3       3 GLC5        0.0000 
     41 CA          5.2690   39.7850    7.4120 C.3       9 GLL5        0.0000 
     42 CA          4.0010   40.0855    5.9905 C.3       3 GLC5        0.0000 
     43 CA          2.7330   40.3860    4.5690 C.3       6 GLP5        0.0000 
     44 CA          6.7750   41.6390    8.5350 C.3       3 GLC5        0.0000 
     45 CA          6.9790   40.1750    8.6510 C.3       9 GLL5        0.0000 
     46 CA          6.5710   43.1030    8.4190 C.3       6 GLP5        0.0000 
     47 CA          8.5555   40.4450    9.4135 C.3       3 GLC5        0.0000 
     48 CA         10.1320   40.7150   10.1760 C.3       6 GLP5        0.0000 
     49 CA          9.4780   39.4510    9.4400 C.3       3 GLC5        0.0000 
     50 CA          8.8240   38.1870    8.7040 C.3       9 GLL5        0.0000 
     51 CA          6.4510   37.6870   11.5445 C.3       3 GLC5        0.0000 
     52 CA          7.3750   37.6120   10.1490 C.3       9 GLL5        0.0000 
     53 CA         13.3029   37.1864    4.1624 C.3       3 GLC5        0.0000 
     54 CA         13.9150   37.9540    5.9000 C.3       9 GLL5        0.0000 
     55 CA         12.5180   35.8240    2.8520 C.3       6 GLP5        0.0000 
     56 CA          8.5880   41.7632    5.2355 C.3       3 GLC5        0.0000 
     57 CA          9.8640   40.0420    5.1470 C.3       9 GLL5        0.0000 
     58 CA          7.6530   43.1890    5.9360 C.3       6 GLP5        0.0000 
     59 CA         11.0670   41.7053    4.5660 C.3       3 GLC5        0.0000 
     60 CA          9.1820   40.6330    3.9230 C.3       9 GLL5        0.0000 
     61 CA          8.8532   41.7800    2.4627 C.3       3 GLC5        0.0000 
     62 CA          8.4750   43.4750    1.7390 C.3       6 GLP5        0.0000 
     63 CA          7.1412   36.0588    6.8197 C.3       3 GLC5        0.0000 
     64 CA          7.0200   37.9150    6.4820 C.3       9 GLL5        0.0000 
     65 CA          7.5020   34.1850    6.4350 C.3       6 GLP5        0.0000 
     66 CA          4.1213   37.9647    8.3119 C.3       3 GLC5        0.0000 
     67 CA          2.7050   36.5870    8.5180 C.3       6 GLP5        0.0000 
     68 CA          7.6937   35.5448    7.5792 C.3       3 GLC5        0.0000 
     69 CA          7.7120   37.5550    8.8430 C.3       9 GLL5        0.0000 
     70 CA          9.0003   38.5667   10.3220 C.3       3 GLC5        0.0000 
     71 CA         10.4570   39.5500   11.1480 C.3       6 GLP5        0.0000 
     72 CA          6.5074   35.9711    9.8951 C.3       3 GLC5        0.0000 
     73 CA          4.9630   35.7160   11.6180 C.3       6 GLP5        0.0000 
@<TRIPOS>BOND
@<TRIPOS>SUBSTRUCTURE
     1 SEC2        4 GROUP        1 X    SEC  0     ROOT SEC X 2
     2 LYC4        1 GROUP        1 X    LYC  0     **** LYC X 4
     3 GLC5       14 GROUP        1 X    GLC  0     **** GLC X 6
     4 SEP2        6 GROUP        1 Y    SEP  0     ROOT SEP Y 9
     5 LYP4        3 GROUP        1 Y    LYP  0     **** LYP Y 11
     6 GLP5       16 GROUP        1 Y    GLP  0     **** GLP Y 13
     7 SEL2        5 GROUP        1 Z    SEL  0     ROOT SEL Z 16
     8 LYL4        2 GROUP        1 Z    LYL  0     **** LYL Z 18
     9 GLL5       15 GROUP        1 Z    GLL  0     **** GLL Z 20
@<TRIPOS>SET

