#    Name: 2bu9_HFV_1_ligand
#    Modification time : Mon Mar 24 21:42:38 2014

@<TRIPOS>MOLECULE
2bu9_HFV_1_ligand
   47    46     1     0     0
SMALL
NO_CHARGES


@<TRIPOS>ATOM
      1 O20        17.4430   35.8560    4.3580 O.co2     1 HFV1333     0.0000 
      2 C1         17.2980   36.1100    5.5730 C.2       1 HFV1333     0.0000 
      3 O19        18.2460   36.2290    6.3960 O.co2     1 HFV1333     0.0000 
      4 C2         15.8870   36.3420    6.0840 C.3       1 HFV1333     0.0000 
      5 N14        15.9460   36.4990    7.5770 N.4       1 HFV1333     0.0000 
      6 C3         15.3300   37.6050    5.4490 C.3       1 HFV1333     0.0000 
      7 C4         13.9150   37.9540    5.9000 C.3       1 HFV1333     0.0000 
      8 C7         13.5530   39.3180    5.2710 C.3       1 HFV1333     0.0000 
      9 C10        12.1860   39.6810    5.7280 C.2       1 HFV1333     0.0000 
     10 O15        11.9170   39.9410    6.8980 O.2       1 HFV1333     0.0000 
     11 N11        11.2280   39.7500    4.7870 N.am      1 HFV1333     0.0000 
     12 C12         9.8640   40.0420    5.1470 C.3       1 HFV1333     0.0000 
     13 C16         9.1820   40.6330    3.9230 C.3       1 HFV1333     0.0000 
     14 S17         9.2810   39.5370    2.4500 S.3       1 HFV1333     0.0000 
     15 C13         9.1310   38.8120    5.6610 C.2       1 HFV1333     0.0000 
     16 O18         9.6940   37.7060    5.7520 O.2       1 HFV1333     0.0000 
     17 N29         7.8870   38.9920    6.0350 N.am      1 HFV1333     0.0000 
     18 C30         7.0200   37.9150    6.4820 C.3       1 HFV1333     0.0000 
     19 C31         5.8040   37.8390    5.5340 C.2       1 HFV1333     0.0000 
     20 O42         4.9000   37.0720    5.8250 O.co2     1 HFV1333     0.0000 
     21 O43         5.8490   38.5600    4.5130 O.co2     1 HFV1333     0.0000 
     22 C32         6.5410   37.9500    7.9270 C.3       1 HFV1333     0.0000 
     23 C37         6.0440   39.3390    8.3380 C.3       1 HFV1333     0.0000 
     24 F24         5.3200   39.1550    9.4670 F         1 HFV1333     0.0000 
     25 F25         5.2690   39.7850    7.4120 F         1 HFV1333     0.0000 
     26 F26         6.9790   40.1750    8.6510 F         1 HFV1333     0.0000 
     27 C33         7.7120   37.5550    8.8430 C.3       1 HFV1333     0.0000 
     28 F21         8.0590   36.2540    8.6040 F         1 HFV1333     0.0000 
     29 F23         8.8240   38.1870    8.7040 F         1 HFV1333     0.0000 
     30 F22         7.3750   37.6120   10.1490 F         1 HFV1333     0.0000 
     31 H          15.2781   35.5107    5.8270 H         1 HFV1333     0.0000 
     32 H          15.3357   37.4896    4.3514 H         1 HFV1333     0.0000 
     33 H          15.9978   38.4516    5.6841 H         1 HFV1333     0.0000 
     34 H          13.8834   38.0407    6.9689 H         1 HFV1333     0.0000 
     35 H          13.2259   37.2110    5.5479 H         1 HFV1333     0.0000 
     36 H          13.5846   39.2180    4.1969 H         1 HFV1333     0.0000 
     37 H          14.2748   40.0490    5.6016 H         1 HFV1333     0.0000 
     38 H          11.4291   39.5988    3.7849 H         1 HFV1333     0.0000 
     39 H           9.8438   40.8056    5.9280 H         1 HFV1333     0.0000 
     40 H           9.6428   41.5303    3.5563 H         1 HFV1333     0.0000 
     41 H           8.1211   40.7559    4.0303 H         1 HFV1333     0.0000 
     42 H           7.4371   39.9490    6.0320 H         1 HFV1333     0.0000 
     43 H           7.5481   36.9388    6.3335 H         1 HFV1333     0.0000 
     44 H           5.7545   37.2361    8.0634 H         1 HFV1333     0.0000 
     45 H          15.4012   35.8034    8.0454 H         1 HFV1333     0.0000 
     46 H          16.8813   36.4202    7.9220 H         1 HFV1333     0.0000 
     47 H          15.5993   37.3898    7.8708 H         1 HFV1333     0.0000 
@<TRIPOS>BOND
     1    2    1 ar   
     2    3    2 ar   
     3    4    2 1    
     4    5    4 1    
     5    6    4 1    
     6   31    4 1    
     7   45    5 1    
     8   46    5 1    
     9   47    5 1    
    10    7    6 1    
    11   32    6 1    
    12   33    6 1    
    13    8    7 1    
    14   34    7 1    
    15   35    7 1    
    16    9    8 1    
    17   36    8 1    
    18   37    8 1    
    19   10    9 2    
    20   11    9 am   
    21   12   11 1    
    22   38   11 1    
    23   13   12 1    
    24   15   12 1    
    25   39   12 1    
    26   14   13 1    
    27   40   13 1    
    28   41   13 1    
    29   16   15 2    
    30   17   15 am   
    31   18   17 1    
    32   42   17 1    
    33   19   18 1    
    34   22   18 1    
    35   43   18 1    
    36   20   19 ar   
    37   21   19 ar   
    38   23   22 1    
    39   27   22 1    
    40   44   22 1    
    41   24   23 1    
    42   25   23 1    
    43   26   23 1    
    44   28   27 1    
    45   29   27 1    
    46   30   27 1    
@<TRIPOS>SUBSTRUCTURE
     1 HFV1333     1 GROUP   
@<TRIPOS>SET

