#    Name: 3gi4_K60_1_INTS_M
#    Modification time : Tue Mar 25 12:34:07 2014

@<TRIPOS>MOLECULE
3gi4_K60_1_INTS_M
  102     0     9     0     0
SMALL
NO_CHARGES


@<TRIPOS>ATOM
      1 CA         15.8620   33.2025   13.9045 C.3       3 GLC5        0.0000 
      2 CA         17.0950   33.2870   15.7700 C.3       9 GLL5        0.0000 
      3 CA         14.6290   33.1180   12.0390 C.3       6 GLP5        0.0000 
      4 CA         15.3465   36.7985   15.8495 C.3       3 GLC5        0.0000 
      5 CA         16.5440   35.3150   16.9670 C.3       9 GLL5        0.0000 
      6 CA         14.1490   38.2820   14.7320 C.3       6 GLP5        0.0000 
      7 CA         16.3100   33.0750   18.8830 C.3       3 GLC5        0.0000 
      8 CA         15.5660   34.6580   17.6760 C.3       9 GLL5        0.0000 
      9 CA         17.0540   31.4920   20.0900 C.3       6 GLP5        0.0000 
     10 CA         13.8325   34.9835   18.9805 C.3       3 GLC5        0.0000 
     11 CA         12.0990   35.3090   20.2850 C.3       6 GLP5        0.0000 
     12 CA         14.2875   35.3470   16.0115 C.3       3 GLC5        0.0000 
     13 CA         13.0090   36.0360   14.3470 C.3       6 GLP5        0.0000 
     14 N          14.4180   34.7655   19.9415 N.am      2 SEC2        0.0000 
     15 N          14.9590   35.5160   18.5480 N.am      8 SEL2        0.0000 
     16 N          13.8770   34.0150   21.3350 N.am      5 SEP2        0.0000 
     17 CA         15.9115   36.2640   20.4375 C.3       3 GLC5        0.0000 
     18 CA         15.6140   36.7990   18.4140 C.3       9 GLL5        0.0000 
     19 CA         16.2090   35.7290   22.4610 C.3       6 GLP5        0.0000 
     20 CA         13.8565   36.0540   19.3495 C.3       3 GLC5        0.0000 
     21 CA         14.4015   37.7750   17.1165 C.3       3 GLC5        0.0000 
     22 CA         13.1890   38.7510   15.8190 C.3       6 GLP5        0.0000 
     23 CA         15.2010   31.0260   15.3570 C.3       3 GLC5        0.0000 
     24 CA         16.0940   32.6320   16.5050 C.3       9 GLL5        0.0000 
     25 CA         14.3080   29.4200   14.2090 C.3       6 GLP5        0.0000 
     26 CA         23.0340   34.3330   14.4545 C.3       3 GLC5        0.0000 
     27 CA         22.2050   32.2860   14.8830 C.3       9 GLL5        0.0000 
     28 CA         23.8630   36.3800   14.0260 C.3       6 GLP5        0.0000 
     29 CA         23.9230   30.9140   14.8695 C.3       3 GLC5        0.0000 
     30 CA         25.6410   29.5420   14.8560 C.3       6 GLP5        0.0000 
     31 CA         23.2675   32.3975   12.9515 C.3       3 GLC5        0.0000 
     32 CA         24.3300   32.5090   11.0200 C.3       6 GLP5        0.0000 
     33 CA         22.7905   32.7510   18.9385 C.3       3 GLC5        0.0000 
     34 CA         22.3050   33.3910   17.1440 C.3       9 GLL5        0.0000 
     35 CA         23.2760   32.1110   20.7330 C.3       6 GLP5        0.0000 
     36 CA         23.8825   34.1885   17.7530 C.3       3 GLC5        0.0000 
     37 CA         25.4600   34.9860   18.3620 C.3       6 GLP5        0.0000 
     38 CA         24.0560   32.3305   17.1970 C.3       3 GLC5        0.0000 
     39 CA         25.8070   31.2700   17.2500 C.3       6 GLP5        0.0000 
     40 CA         17.4980   30.6160   17.7555 C.3       3 GLC5        0.0000 
     41 CA         19.0200   30.5460   16.1410 C.3       9 GLL5        0.0000 
     42 CA         15.9760   30.6860   19.3700 C.3       6 GLP5        0.0000 
     43 N          19.2835   27.8260   17.7195 N.am      2 SEC2        0.0000 
     44 N          19.8200   28.2970   16.4900 N.am      8 SEL2        0.0000 
     45 N          18.7470   27.3550   18.9490 N.am      5 SEP2        0.0000 
     46 O          20.6715   27.9795   17.3735 O.2       1 ALC1        0.0000 
     47 O          19.8200   28.2970   16.4900 O.2       7 ALL1        0.0000 
     48 O          21.5230   27.6620   18.2570 O.2       4 ALP1        0.0000 
     49 O          21.3580   28.7215   16.9245 O.2       1 ALC1        0.0000 
     50 O          22.8960   29.1460   17.3590 O.2       4 ALP1        0.0000 
     51 CA         17.1600   26.2990   14.3460 C.3       3 GLC5        0.0000 
     52 CA         18.1380   28.3000   14.0710 C.3       9 GLL5        0.0000 
     53 CA         16.1820   24.2980   14.6210 C.3       6 GLP5        0.0000 
     54 CA         17.0640   25.5025   13.3695 C.3       3 GLC5        0.0000 
     55 CA         17.9460   26.7070   12.1180 C.3       9 GLL5        0.0000 
     56 CA         17.1255   30.6550    9.7710 C.3       3 GLC5        0.0000 
     57 CA         17.0990   28.7230   10.4150 C.3       9 GLL5        0.0000 
     58 CA         17.1520   32.5870    9.1270 C.3       6 GLP5        0.0000 
     59 CA         17.0340   31.0205   11.1465 C.3       3 GLC5        0.0000 
     60 CA         17.3840   29.0140   11.7540 C.3       9 GLL5        0.0000 
     61 CA         16.6840   33.0270   10.5390 C.3       6 GLP5        0.0000 
     62 O          20.2020   26.7805   13.9745 O.2       1 ALC1        0.0000 
     63 O          20.3760   28.2340   13.3960 O.2       7 ALL1        0.0000 
     64 O          20.0280   25.3270   14.5530 O.2       4 ALP1        0.0000 
     65 CA         22.3460   26.4375   13.2720 C.3       3 GLC5        0.0000 
     66 CA         21.9000   27.6480   11.6040 C.3       9 GLL5        0.0000 
     67 CA         22.7920   25.2270   14.9400 C.3       6 GLP5        0.0000 
     68 CA         23.2620   29.3415   11.4310 C.3       3 GLC5        0.0000 
     69 CA         24.6240   31.0350   11.2580 C.3       6 GLP5        0.0000 
     70 N          22.5165   23.8155   12.3290 N.am      2 SEC2        0.0000 
     71 N          21.6170   24.2280   11.2130 N.am      8 SEL2        0.0000 
     72 N          23.4160   23.4030   13.4450 N.am      5 SEP2        0.0000 
     73 CA         20.8165   29.2170    9.2495 C.3       3 GLC5        0.0000 
     74 CA         21.2100   27.5600   10.2300 C.3       9 GLL5        0.0000 
     75 CA         20.4230   30.8740    8.2690 C.3       6 GLP5        0.0000 
     76 CA         15.9740   27.3815    6.8255 C.3       3 GLC5        0.0000 
     77 CA         17.3890   26.6550    6.1410 C.3       9 GLL5        0.0000 
     78 CA         14.5590   28.1080    7.5100 C.3       6 GLP5        0.0000 
     79 CA         19.7375   29.4150    6.9795 C.3       3 GLC5        0.0000 
     80 CA         19.0520   27.9560    5.6900 C.3       9 GLL5        0.0000 
     81 CA         19.5765   28.6065    3.9125 C.3       3 GLC5        0.0000 
     82 CA         20.1010   29.2570    2.1350 C.3       6 GLP5        0.0000 
     83 CA         15.8410   31.8302   18.1773 C.3       3 GLC5        0.0000 
     84 CA         15.3180   33.3170   17.4640 C.3       9 GLL5        0.0000 
     85 CA         13.8405   33.2189   16.4877 C.3       3 GLC5        0.0000 
     86 CA         11.9130   33.1280   15.9380 C.3       6 GLP5        0.0000 
     87 CA         16.0850   26.8090   11.9418 C.3       3 GLC5        0.0000 
     88 CA         17.8060   28.0030   12.6170 C.3       9 GLL5        0.0000 
     89 CA         14.2940   26.2630   11.5160 C.3       6 GLP5        0.0000 
     90 CA         15.8727   26.5957   10.9385 C.3       3 GLC5        0.0000 
     91 CA         17.6660   26.4270   10.7900 C.3       9 GLL5        0.0000 
     92 CA         15.8635   28.0922    8.8417 C.3       3 GLC5        0.0000 
     93 CA         17.2370   27.4300    9.9320 C.3       9 GLL5        0.0000 
     94 CA         15.7677   27.5658   11.3002 C.3       3 GLC5        0.0000 
     95 CA         15.9930   29.0014   13.3790 C.3       3 GLC5        0.0000 
     96 CA         20.9552   27.6777    6.2882 C.3       3 GLC5        0.0000 
     97 CA         19.9300   26.3670    7.8720 C.3       9 GLL5        0.0000 
     98 CA         22.1690   29.2290    5.3330 C.3       6 GLP5        0.0000 
     99 CA         20.5075   28.2790    5.5215 C.3       3 GLC5        0.0000 
    100 CA         19.7035   27.2560    3.6183 C.3       3 GLC5        0.0000 
    101 CA         18.6400   26.7020    5.7300 C.3       9 GLL5        0.0000 
    102 CA         20.7690   28.0450    2.1150 C.3       6 GLP5        0.0000 
@<TRIPOS>BOND
@<TRIPOS>SUBSTRUCTURE
     1 ALC1       46 GROUP        1 X    ALC  0     ROOT ALC X 1
     2 SEC2       14 GROUP        1 X    SEC  0     **** SEC X 2
     3 GLC5        1 GROUP        1 X    GLC  0     **** GLC X 6
     4 ALP1       48 GROUP        1 Y    ALP  0     ROOT ALP Y 8
     5 SEP2       16 GROUP        1 Y    SEP  0     **** SEP Y 9
     6 GLP5        3 GROUP        1 Y    GLP  0     **** GLP Y 13
     7 ALL1       47 GROUP        1 Z    ALL  0     ROOT ALL Z 15
     8 SEL2       15 GROUP        1 Z    SEL  0     **** SEL Z 16
     9 GLL5        2 GROUP        1 Z    GLL  0     **** GLL Z 20
@<TRIPOS>SET

