#    Name: 3gi4_K60_1_ligand
#    Modification time : Tue Mar 25 12:34:07 2014

@<TRIPOS>MOLECULE
3gi4_K60_1_ligand
   81    85     1     0     0
SMALL
NO_CHARGES


@<TRIPOS>ATOM
      1 O10        17.2130   31.4030   14.1340 O.2       1 K60200      0.0000 
      2 S8         17.9960   32.4630   14.6980 S.o2      1 K60200      0.0000 
      3 O9         18.5220   33.3570   13.6940 O.2       1 K60200      0.0000 
      4 C5         17.0950   33.2870   15.7700 C.ar      1 K60200      0.0000 
      5 C4         17.3270   34.6520   16.0130 C.ar      1 K60200      0.0000 
      6 C3         16.5440   35.3150   16.9670 C.ar      1 K60200      0.0000 
      7 C2         15.5660   34.6580   17.6760 C.ar      1 K60200      0.0000 
      8 O19        14.9590   35.5160   18.5480 O.3       1 K60200      0.0000 
      9 C18        15.6140   36.7990   18.4140 C.3       1 K60200      0.0000 
     10 O29        16.5830   36.6190   17.3640 O.3       1 K60200      0.0000 
     11 C7         15.3180   33.3170   17.4640 C.ar      1 K60200      0.0000 
     12 C6         16.0940   32.6320   16.5050 C.ar      1 K60200      0.0000 
     13 N11        19.2910   31.8020   15.4220 N.pl3     1 K60200      0.0000 
     14 C12        20.0680   32.7810   16.2280 C.3       1 K60200      0.0000 
     15 C13        21.5540   32.3930   16.2680 C.3       1 K60200      0.0000 
     16 C14        22.2050   32.2860   14.8830 C.3       1 K60200      0.0000 
     17 C15        22.3050   33.3910   17.1440 C.3       1 K60200      0.0000 
     18 C16        19.0200   30.5460   16.1410 C.3       1 K60200      0.0000 
     19 C17        19.8930   29.4140   15.5820 C.3       1 K60200      0.0000 
     20 O18        19.8200   28.2970   16.4900 O.3       1 K60200      0.0000 
     21 C19        19.4530   29.0850   14.1530 C.3       1 K60200      0.0000 
     22 C32        18.1380   28.3000   14.0710 C.3       1 K60200      0.0000 
     23 C38        17.8060   28.0030   12.6170 C.ar      1 K60200      0.0000 
     24 C33        17.9460   26.7070   12.1180 C.ar      1 K60200      0.0000 
     25 C34        17.6660   26.4270   10.7900 C.ar      1 K60200      0.0000 
     26 C35        17.2370   27.4300    9.9320 C.ar      1 K60200      0.0000 
     27 C36        17.0990   28.7230   10.4150 C.ar      1 K60200      0.0000 
     28 C37        17.3840   29.0140   11.7540 C.ar      1 K60200      0.0000 
     29 N20        20.3760   28.2340   13.3960 N.am      1 K60200      0.0000 
     30 C21        21.1240   28.6770   12.3760 C.2       1 K60200      0.0000 
     31 O22        21.1990   29.8450   12.0010 O.2       1 K60200      0.0000 
     32 C29        21.9000   27.6480   11.6040 C.3       1 K60200      0.0000 
     33 O28        21.8600   26.3190   12.1450 O.3       1 K60200      0.0000 
     34 C26        21.5120   25.4290   11.0580 C.2       1 K60200      0.0000 
     35 O27        21.6170   24.2280   11.2130 O.2       1 K60200      0.0000 
     36 C25        21.2100   27.5600   10.2300 C.3       1 K60200      0.0000 
     37 N24        21.1460   26.1290    9.9840 N.am      1 K60200      0.0000 
     38 C43        20.7690   25.6230    8.7180 C.ar      1 K60200      0.0000 
     39 C44        21.2460   24.3930    8.2560 C.ar      1 K60200      0.0000 
     40 C45        20.8730   23.9080    7.0050 C.ar      1 K60200      0.0000 
     41 C40        20.0400   24.6530    6.1790 C.ar      1 K60200      0.0000 
     42 C42        19.9300   26.3670    7.8720 C.ar      1 K60200      0.0000 
     43 C41        19.5530   25.8860    6.6150 C.ar      1 K60200      0.0000 
     44 C46        18.6400   26.7020    5.7300 C.3       1 K60200      0.0000 
     45 F1         17.3890   26.6550    6.1410 F         1 K60200      0.0000 
     46 F2         18.6360   26.2320    4.5130 F         1 K60200      0.0000 
     47 F3         19.0520   27.9560    5.6900 F         1 K60200      0.0000 
     48 H          18.0530   35.1490   15.5027 H         1 K60200      0.0000 
     49 H          16.1026   37.0729   19.3431 H         1 K60200      0.0000 
     50 H          14.8943   37.5645   18.1438 H         1 K60200      0.0000 
     51 H          14.5961   32.8212   17.9796 H         1 K60200      0.0000 
     52 H          15.9195   31.6271   16.3425 H         1 K60200      0.0000 
     53 H          19.6922   32.8135   17.2527 H         1 K60200      0.0000 
     54 H          19.9839   33.7806   15.7968 H         1 K60200      0.0000 
     55 H          21.6285   31.4130   16.7581 H         1 K60200      0.0000 
     56 H          17.9728   30.2559   16.0323 H         1 K60200      0.0000 
     57 H          19.2400   30.6539   17.2052 H         1 K60200      0.0000 
     58 H          20.9137   29.8047   15.5389 H         1 K60200      0.0000 
     59 H          19.2935   30.0084   13.5936 H         1 K60200      0.0000 
     60 H          17.3434   28.8913   14.5127 H         1 K60200      0.0000 
     61 H          18.2453   27.3695   14.6176 H         1 K60200      0.0000 
     62 H          18.2617   25.9522   12.7483 H         1 K60200      0.0000 
     63 H          17.7773   25.4629   10.4344 H         1 K60200      0.0000 
     64 H          17.0247   27.2174    8.9528 H         1 K60200      0.0000 
     65 H          16.7849   29.4782    9.7882 H         1 K60200      0.0000 
     66 H          17.2813   29.9760   12.1001 H         1 K60200      0.0000 
     67 H          20.4163   27.2318   13.7093 H         1 K60200      0.0000 
     68 H          22.8919   27.9901   11.4258 H         1 K60200      0.0000 
     69 H          21.8210   28.0601    9.5145 H         1 K60200      0.0000 
     70 H          20.2403   27.9936   10.3126 H         1 K60200      0.0000 
     71 H          21.8823   23.8392    8.8510 H         1 K60200      0.0000 
     72 H          21.2185   22.9882    6.6901 H         1 K60200      0.0000 
     73 H          19.7822   24.2998    5.2506 H         1 K60200      0.0000 
     74 H          19.5856   27.2896    8.1886 H         1 K60200      0.0000 
     75 H          23.1708   32.0342   14.9450 H         1 K60200      0.0000 
     76 H          21.7579   31.5952   14.3148 H         1 K60200      0.0000 
     77 H          22.1592   33.1510   14.3833 H         1 K60200      0.0000 
     78 H          23.2798   33.1752   17.2010 H         1 K60200      0.0000 
     79 H          22.2314   34.3238   16.7911 H         1 K60200      0.0000 
     80 H          21.9523   33.4029   18.0796 H         1 K60200      0.0000 
     81 H          20.7252   28.2470   16.9118 H         1 K60200      0.0000 
@<TRIPOS>BOND
     1    2    1 2    
     2    3    2 2    
     3    4    2 1    
     4   13    2 1    
     5    5    4 ar   
     6   12    4 ar   
     7    6    5 ar   
     8   48    5 1    
     9    7    6 ar   
    10   10    6 1    
    11    8    7 1    
    12   11    7 ar   
    13    9    8 1    
    14   10    9 1    
    15   49    9 1    
    16   50    9 1    
    17   12   11 ar   
    18   51   11 1    
    19   52   12 1    
    20   14   13 1    
    21   18   13 1    
    22   15   14 1    
    23   53   14 1    
    24   54   14 1    
    25   16   15 1    
    26   17   15 1    
    27   55   15 1    
    28   75   16 1    
    29   76   16 1    
    30   77   16 1    
    31   78   17 1    
    32   79   17 1    
    33   80   17 1    
    34   19   18 1    
    35   56   18 1    
    36   57   18 1    
    37   20   19 1    
    38   21   19 1    
    39   58   19 1    
    40   81   20 1    
    41   22   21 1    
    42   29   21 1    
    43   59   21 1    
    44   23   22 1    
    45   60   22 1    
    46   61   22 1    
    47   24   23 ar   
    48   28   23 ar   
    49   25   24 ar   
    50   62   24 1    
    51   26   25 ar   
    52   63   25 1    
    53   27   26 ar   
    54   64   26 1    
    55   28   27 ar   
    56   65   27 1    
    57   66   28 1    
    58   30   29 am   
    59   67   29 1    
    60   31   30 2    
    61   32   30 1    
    62   33   32 1    
    63   36   32 1    
    64   68   32 1    
    65   34   33 1    
    66   35   34 2    
    67   37   34 am   
    68   37   36 1    
    69   69   36 1    
    70   70   36 1    
    71   38   37 1    
    72   39   38 ar   
    73   42   38 ar   
    74   40   39 ar   
    75   71   39 1    
    76   41   40 ar   
    77   72   40 1    
    78   43   41 ar   
    79   73   41 1    
    80   43   42 ar   
    81   74   42 1    
    82   44   43 1    
    83   45   44 1    
    84   46   44 1    
    85   47   44 1    
@<TRIPOS>SUBSTRUCTURE
     1 K60200      1 GROUP   
@<TRIPOS>SET

