#    Name: 2xik_J60_1_INTS_M
#    Modification time : Tue Mar 25 06:03:02 2014

@<TRIPOS>MOLECULE
2xik_J60_1_INTS_M
   60     0     9     0     0
SMALL
NO_CHARGES


@<TRIPOS>ATOM
      1 CA         -5.4290   -2.5215  -23.9670 C.3       3 GLC5        0.0000 
      2 CA         -3.9640   -2.5150  -22.2640 C.3       9 GLL5        0.0000 
      3 CA         -6.8940   -2.5280  -25.6700 C.3       6 GLP5        0.0000 
      4 CA         -1.9275   -5.4425  -19.4605 C.3       3 GLC5        0.0000 
      5 CA         -2.5480   -3.8830  -20.8470 C.3       9 GLL5        0.0000 
      6 CA         -1.3070   -7.0020  -18.0740 C.3       6 GLP5        0.0000 
      7 CA         -5.7460   -3.8855  -24.2950 C.3       3 GLC5        0.0000 
      8 CA         -4.5980   -5.2430  -22.9200 C.3       9 GLL5        0.0000 
      9 CA         -2.9490   -7.7720  -19.0925 C.3       3 GLC5        0.0000 
     10 CA         -4.5910   -8.5420  -20.1110 C.3       9 GLL5        0.0000 
     11 CA         -2.7530  -11.7195  -25.7815 C.3       3 GLC5        0.0000 
     12 CA         -3.6440  -10.3540  -24.8470 C.3       9 GLL5        0.0000 
     13 CA         -1.8620  -13.0850  -26.7160 C.3       6 GLP5        0.0000 
     14 CA         -4.6650  -11.3025  -26.0960 C.3       3 GLC5        0.0000 
     15 CA         -5.6860  -12.2510  -27.3450 C.3       6 GLP5        0.0000 
     16 CA         -6.2145  -13.0775  -13.0695 C.3       3 GLC5        0.0000 
     17 CA         -4.7610  -13.2880  -14.5480 C.3       9 GLL5        0.0000 
     18 CA         -7.6680  -12.8670  -11.5910 C.3       6 GLP5        0.0000 
     19 CA         -3.2590  -16.2690  -15.6485 C.3       3 GLC5        0.0000 
     20 CA         -4.6290  -15.2510  -16.4060 C.3       9 GLL5        0.0000 
     21 CA         -1.8890  -17.2870  -14.8910 C.3       6 GLP5        0.0000 
     22 CA         -6.4715  -16.4995  -17.8695 C.3       3 GLC5        0.0000 
     23 CA         -4.5350  -15.7510  -17.7050 C.3       9 GLL5        0.0000 
     24 CA         -8.4080  -17.2480  -18.0340 C.3       6 GLP5        0.0000 
     25 CA         -3.4905  -17.5030  -17.6075 C.3       3 GLC5        0.0000 
     26 CA         -2.4460  -19.2550  -17.5100 C.3       6 GLP5        0.0000 
     27 O          -4.1515  -16.3800  -20.7125 O.2       1 ALC1        0.0000 
     28 O          -4.3140  -15.1200  -20.0990 O.2       7 ALL1        0.0000 
     29 O          -3.9890  -17.6400  -21.3260 O.2       4 ALP1        0.0000 
     30 N          -4.6315  -14.6670  -23.0870 N.am      2 SEC2        0.0000 
     31 N          -4.0020  -13.8830  -21.9580 N.am      8 SEL2        0.0000 
     32 N          -5.2610  -15.4510  -24.2160 N.am      5 SEP2        0.0000 
     33 CA         -5.6698   -1.0393  -22.2777 C.3       3 GLC5        0.0000 
     34 CA         -7.6890   -0.2610  -22.2590 C.3       6 GLP5        0.0000 
     35 CA         -2.0862   -9.7965  -23.1363 C.3       3 GLC5        0.0000 
     36 CA         -3.8870  -10.2420  -23.3380 C.3       9 GLL5        0.0000 
     37 CA         -0.4070   -9.2950  -22.1800 C.3       6 GLP5        0.0000 
     38 CA         -5.9630   -9.3040  -23.1442 C.3       3 GLC5        0.0000 
     39 CA         -7.8700   -8.8530  -23.6320 C.3       6 GLP5        0.0000 
     40 CA         -2.3018   -9.6788  -21.8983 C.3       3 GLC5        0.0000 
     41 CA         -4.1500   -9.0740  -22.6380 C.3       9 GLL5        0.0000 
     42 CA         -2.3890  -12.4718  -18.9362 C.3       3 GLC5        0.0000 
     43 CA         -4.2590  -11.5250  -20.0310 C.3       9 GLL5        0.0000 
     44 CA         -0.5390  -12.7250  -17.9470 C.3       6 GLP5        0.0000 
     45 CA         -5.9590  -12.6798  -19.5107 C.3       3 GLC5        0.0000 
     46 CA         -4.2190  -12.9120  -19.8200 C.3       9 GLL5        0.0000 
     47 CA         -7.6790  -13.1410  -19.0960 C.3       6 GLP5        0.0000 
     48 CA         -2.6950  -14.4835  -19.8297 C.3       3 GLC5        0.0000 
     49 CA         -1.0970  -15.7610  -20.4670 C.3       6 GLP5        0.0000 
     50 CA         -2.4848  -12.9857  -17.9305 C.3       3 GLC5        0.0000 
     51 CA         -4.3670  -13.5000  -18.5650 C.3       9 GLL5        0.0000 
     52 CA         -2.8230  -12.6530  -15.5258 C.3       3 GLC5        0.0000 
     53 CA         -4.6130  -13.8760  -16.1770 C.3       9 GLL5        0.0000 
     54 CA         -0.9590  -11.7240  -15.6890 C.3       6 GLP5        0.0000 
     55 CA         -6.1004  -13.3511  -18.0708 C.3       3 GLC5        0.0000 
     56 CA         -6.7280  -14.3558  -15.8521 C.3       3 GLC5        0.0000 
     57 CA         -8.7980  -14.2950  -15.8200 C.3       6 GLP5        0.0000 
     58 CA         -2.7835  -15.5390  -19.3565 C.3       3 GLC5        0.0000 
     59 CA         -6.0745  -14.2290  -18.6710 C.3       3 GLC5        0.0000 
     60 CA         -4.4050  -14.8830  -18.7870 C.3       9 GLL5        0.0000 
@<TRIPOS>BOND
@<TRIPOS>SUBSTRUCTURE
     1 ALC1       27 GROUP        1 X    ALC  0     ROOT ALC X 1
     2 SEC2       30 GROUP        1 X    SEC  0     **** SEC X 2
     3 GLC5        1 GROUP        1 X    GLC  0     **** GLC X 6
     4 ALP1       29 GROUP        1 Y    ALP  0     ROOT ALP Y 8
     5 SEP2       32 GROUP        1 Y    SEP  0     **** SEP Y 9
     6 GLP5        3 GROUP        1 Y    GLP  0     **** GLP Y 13
     7 ALL1       28 GROUP        1 Z    ALL  0     ROOT ALL Z 15
     8 SEL2       31 GROUP        1 Z    SEL  0     **** SEL Z 16
     9 GLL5        2 GROUP        1 Z    GLL  0     **** GLL Z 20
@<TRIPOS>SET

