#    Name: 2xik_J60_1_ligand
#    Modification time : Tue Mar 25 06:03:02 2014

@<TRIPOS>MOLECULE
2xik_J60_1_ligand
   57    59     1     0     0
SMALL
NO_CHARGES


@<TRIPOS>ATOM
      1 CBA        -3.3370   -1.1200  -22.3290 C.3       1 J601294     0.0000 
      2 CAZ        -3.9640   -2.5150  -22.2640 C.3       1 J601294     0.0000 
      3 NAX        -2.8950   -3.5250  -22.2290 N.4       1 J601294     0.0000 
      4 CAY        -2.5480   -3.8830  -20.8470 C.3       1 J601294     0.0000 
      5 CBB        -1.3810   -3.0070  -20.3850 C.3       1 J601294     0.0000 
      6 CAW        -3.1590   -4.7150  -23.0610 C.3       1 J601294     0.0000 
      7 CAV        -4.5980   -5.2430  -22.9200 C.3       1 J601294     0.0000 
      8 NAU        -4.5840   -6.6580  -22.4850 N.am      1 J601294     0.0000 
      9 CAS        -4.1230   -7.6570  -23.2480 C.2       1 J601294     0.0000 
     10 OAT        -3.6530   -7.4910  -24.3740 O.2       1 J601294     0.0000 
     11 CAN        -4.1500   -9.0740  -22.6380 C.2       1 J601294     0.0000 
     12 CAM        -4.3000   -9.4620  -21.3120 C.2       1 J601294     0.0000 
     13 CAQ        -4.5910   -8.5420  -20.1110 C.3       1 J601294     0.0000 
     14 CAO        -3.8870  -10.2420  -23.3380 C.2       1 J601294     0.0000 
     15 CAR        -3.6440  -10.3540  -24.8470 C.3       1 J601294     0.0000 
     16 NAP        -3.9210  -11.2820  -22.5030 N.pl3     1 J601294     0.0000 
     17 CAL        -4.1680  -10.8570  -21.2580 C.2       1 J601294     0.0000 
     18 CAK        -4.2590  -11.5250  -20.0310 C.2       1 J601294     0.0000 
     19 CAG        -4.2190  -12.9120  -19.8200 C.2       1 J601294     0.0000 
     20 CAE        -4.3670  -13.5000  -18.5650 C.ar      1 J601294     0.0000 
     21 CAD        -4.4940  -12.9930  -17.2630 C.ar      1 J601294     0.0000 
     22 CAA        -4.6130  -13.8760  -16.1770 C.ar      1 J601294     0.0000 
     23 CL         -4.7610  -13.2880  -14.5480 Cl        1 J601294     0.0000 
     24 CAB        -4.6290  -15.2510  -16.4060 C.ar      1 J601294     0.0000 
     25 CAC        -4.5350  -15.7510  -17.7050 C.ar      1 J601294     0.0000 
     26 CAF        -4.4050  -14.8830  -18.7870 C.ar      1 J601294     0.0000 
     27 NAH        -4.3140  -15.1200  -20.0990 N.am      1 J601294     0.0000 
     28 CAI        -4.1910  -13.9580  -20.7450 C.2       1 J601294     0.0000 
     29 OAJ        -4.0020  -13.8830  -21.9580 O.2       1 J601294     0.0000 
     30 H          -4.5954   -2.6497  -23.1401 H         1 J601294     0.0000 
     31 H          -4.5813   -2.5735  -21.3697 H         1 J601294     0.0000 
     32 H          -1.9691   -3.0269  -22.6636 H         1 J601294     0.0000 
     33 H          -2.2433   -4.9247  -20.7807 H         1 J601294     0.0000 
     34 H          -3.3896   -3.7146  -20.1794 H         1 J601294     0.0000 
     35 H          -2.4696   -5.5333  -22.7922 H         1 J601294     0.0000 
     36 H          -2.9844   -4.4865  -24.1261 H         1 J601294     0.0000 
     37 H          -5.0954   -5.1424  -23.8852 H         1 J601294     0.0000 
     38 H          -5.1204   -4.6220  -22.1916 H         1 J601294     0.0000 
     39 H          -4.9656   -6.8259  -21.5242 H         1 J601294     0.0000 
     40 H          -3.7858  -12.2177  -22.7601 H         1 J601294     0.0000 
     41 H          -4.3716  -10.9112  -19.1562 H         1 J601294     0.0000 
     42 H          -4.5000  -11.9825  -17.1040 H         1 J601294     0.0000 
     43 H          -4.7106  -15.9016  -15.6122 H         1 J601294     0.0000 
     44 H          -4.5620  -16.7682  -17.8643 H         1 J601294     0.0000 
     45 H          -4.3343  -16.0008  -20.5170 H         1 J601294     0.0000 
     46 H          -2.7567   -0.9363  -21.5356 H         1 J601294     0.0000 
     47 H          -2.7661   -1.0070  -23.1422 H         1 J601294     0.0000 
     48 H          -4.0319   -0.4014  -22.3565 H         1 J601294     0.0000 
     49 H          -0.5733   -3.1300  -20.9616 H         1 J601294     0.0000 
     50 H          -1.6137   -2.0348  -20.4101 H         1 J601294     0.0000 
     51 H          -1.1065   -3.2185  -19.4470 H         1 J601294     0.0000 
     52 H          -4.6520   -9.0562  -19.2555 H         1 J601294     0.0000 
     53 H          -3.8761   -7.8535  -19.9888 H         1 J601294     0.0000 
     54 H          -5.4553   -8.0510  -20.2201 H         1 J601294     0.0000 
     55 H          -2.8502   -9.8189  -25.1361 H         1 J601294     0.0000 
     56 H          -3.4779  -11.2994  -25.1273 H         1 J601294     0.0000 
     57 H          -4.4272  -10.0251  -25.3747 H         1 J601294     0.0000 
@<TRIPOS>BOND
     1    2    1 1    
     2   46    1 1    
     3   47    1 1    
     4   48    1 1    
     5    3    2 1    
     6   30    2 1    
     7   31    2 1    
     8    4    3 1    
     9    6    3 1    
    10   32    3 1    
    11    5    4 1    
    12   33    4 1    
    13   34    4 1    
    14   49    5 1    
    15   50    5 1    
    16   51    5 1    
    17    7    6 1    
    18   35    6 1    
    19   36    6 1    
    20    8    7 1    
    21   37    7 1    
    22   38    7 1    
    23    9    8 am   
    24   39    8 1    
    25   10    9 2    
    26   11    9 1    
    27   12   11 1    
    28   14   11 2    
    29   13   12 1    
    30   17   12 2    
    31   52   13 1    
    32   53   13 1    
    33   54   13 1    
    34   15   14 1    
    35   16   14 1    
    36   55   15 1    
    37   56   15 1    
    38   57   15 1    
    39   17   16 1    
    40   40   16 1    
    41   18   17 1    
    42   19   18 2    
    43   41   18 1    
    44   20   19 1    
    45   28   19 1    
    46   21   20 ar   
    47   26   20 ar   
    48   22   21 ar   
    49   42   21 1    
    50   23   22 1    
    51   24   22 ar   
    52   25   24 ar   
    53   43   24 1    
    54   26   25 ar   
    55   44   25 1    
    56   27   26 1    
    57   28   27 am   
    58   45   27 1    
    59   29   28 2    
@<TRIPOS>SUBSTRUCTURE
     1 J601294     1 GROUP   
@<TRIPOS>SET

