#    Name: 1ank_ANP_4_INTS_M
#    Modification time : Mon Mar 24 18:33:06 2014

@<TRIPOS>MOLECULE
1ank_ANP_4_INTS_M
   65     0    12     0     0
SMALL
NO_CHARGES


@<TRIPOS>ATOM
      1 NZ        -30.9980    6.4845    2.1230 N.4       3 LYC4        0.0000 
      2 NZ        -30.1380    7.6040    1.5310 N.4      11 LYL4        0.0000 
      3 NZ        -33.1620    5.3940    2.7620 N.4       7 LYP4        0.0000 
      4 N         -30.9980    6.4845    2.1230 N.am      2 SEC2        0.0000 
      5 N         -30.1380    7.6040    1.5310 N.am     10 SEL2        0.0000 
      6 N         -31.8580    5.3650    2.7150 N.am      6 SEP2        0.0000 
      7 NZ        -26.5010    7.0610    2.4900 N.4       3 LYC4        0.0000 
      8 NZ        -27.7620    7.6570    2.4870 N.4      11 LYL4        0.0000 
      9 NZ        -25.2400    6.4650    2.4930 N.4       7 LYP4        0.0000 
     10 N         -26.5010    7.0610    2.4900 N.am      2 SEC2        0.0000 
     11 N         -27.7620    7.6570    2.4870 N.am     10 SEL2        0.0000 
     12 N         -25.2400    6.4650    2.4930 N.am      6 SEP2        0.0000 
     13 NZ        -26.0980    5.6110    3.2640 N.4       3 LYC4        0.0000 
     14 NZ        -26.9560    4.7570    4.0350 N.4      11 LYL4        0.0000 
     15 N         -26.8705    3.2485    4.3140 N.am      2 SEC2        0.0000 
     16 N         -26.9560    4.7570    4.0350 N.am     10 SEL2        0.0000 
     17 N         -26.7850    1.7400    4.5930 N.am      6 SEP2        0.0000 
     18 N         -26.4460    4.1195    5.2765 N.am      2 SEC2        0.0000 
     19 N         -25.9360    3.4820    6.5180 N.am      6 SEP2        0.0000 
     20 N         -26.0980    5.6110    3.2640 N.am      2 SEC2        0.0000 
     21 N         -27.9910    5.6255    6.8090 N.am      2 SEC2        0.0000 
     22 N         -28.5240    5.9300    5.4880 N.am     10 SEL2        0.0000 
     23 N         -27.4580    5.3210    8.1300 N.am      6 SEP2        0.0000 
     24 N         -29.1725    3.2655    8.4015 N.am      2 SEC2        0.0000 
     25 N         -29.5040    2.9870    7.0310 N.am     10 SEL2        0.0000 
     26 N         -28.8410    3.5440    9.7720 N.am      6 SEP2        0.0000 
     27 N         -29.9765    2.0315    8.1215 N.am      2 SEC2        0.0000 
     28 N         -30.4490    1.0760    9.2120 N.am      6 SEP2        0.0000 
     29 NZ        -31.5590    4.5930    4.0410 N.4       3 LYC4        0.0000 
     30 NZ        -31.2600    3.8210    5.3670 N.4      11 LYL4        0.0000 
     31 N         -32.5405    4.1920    4.4685 N.am      2 SEC2        0.0000 
     32 N         -31.2600    3.8210    5.3670 N.am     10 SEL2        0.0000 
     33 N         -33.8210    4.5630    3.5700 N.am      6 SEP2        0.0000 
     34 N         -31.5590    4.5930    4.0410 N.am      2 SEC2        0.0000 
     35 N         -27.8905    2.6970    4.5720 N.am      2 SEC2        0.0000 
     36 N         -28.9960    3.6540    4.5510 N.am     10 SEL2        0.0000 
     37 CA        -30.0450    2.0210    2.5480 C.3       4 GLC5        0.0000 
     38 CA        -31.1660    1.3940    4.0370 C.3      12 GLL5        0.0000 
     39 CA        -28.9240    2.6480    1.0590 C.3       8 GLP5        0.0000 
     40 CA        -31.9710   -0.5445    2.2540 C.3       4 GLC5        0.0000 
     41 CA        -32.2340    0.3470    4.2130 C.3      12 GLL5        0.0000 
     42 CA        -31.7080   -1.4360    0.2950 C.3       8 GLP5        0.0000 
     43 CA        -33.6700   -1.2015    3.7785 C.3       4 GLC5        0.0000 
     44 CA        -35.1060   -2.7500    3.3440 C.3       8 GLP5        0.0000 
     45 CA        -34.4370    1.9755    4.9020 C.3       4 GLC5        0.0000 
     46 CA        -33.0030    0.5510    5.4630 C.3      12 GLL5        0.0000 
     47 CA        -35.8710    3.4000    4.3410 C.3       8 GLP5        0.0000 
     48 CA        -33.9080    2.0390    6.5355 C.3       4 GLC5        0.0000 
     49 CA        -34.8130    3.5270    7.6080 C.3       8 GLP5        0.0000 
     50 O         -35.1485   -0.3505    7.0415 O.2       1 ALC1        0.0000 
     51 O         -33.6610   -1.0100    6.9710 O.2       9 ALL1        0.0000 
     52 O         -36.6360    0.3090    7.1120 O.2       5 ALP1        0.0000 
     53 O         -26.1455   -5.6270    7.2095 O.2       1 ALC1        0.0000 
     54 O         -26.8420   -4.2570    7.3010 O.2       9 ALL1        0.0000 
     55 O         -25.4490   -6.9970    7.1180 O.2       5 ALP1        0.0000 
     56 CA        -31.8365   -5.8975    5.0765 C.3       4 GLC5        0.0000 
     57 CA        -29.7510   -5.5140    5.6240 C.3      12 GLL5        0.0000 
     58 CA        -33.9220   -6.2810    4.5290 C.3       8 GLP5        0.0000 
     59 CA        -29.6230   -5.2275    7.7565 C.3       4 GLC5        0.0000 
     60 CA        -29.4950   -4.9410    9.8890 C.3       8 GLP5        0.0000 
     61 CA        -34.0113   -1.7484    5.8105 C.3       4 GLC5        0.0000 
     62 CA        -32.4410   -0.5280    6.4470 C.3      12 GLL5        0.0000 
     63 CA        -35.7430   -2.7170    5.8710 C.3       8 GLP5        0.0000 
     64 CA        -29.3716   -4.2240    8.1212 C.3       4 GLC5        0.0000 
     65 CA        -28.8230   -3.2190    6.6200 C.3      12 GLL5        0.0000 
@<TRIPOS>BOND
@<TRIPOS>SUBSTRUCTURE
     1 ALC1       50 GROUP        1 X    ALC  0     ROOT ALC X 1
     2 SEC2        4 GROUP        1 X    SEC  0     **** SEC X 2
     3 LYC4        1 GROUP        1 X    LYC  0     **** LYC X 4
     4 GLC5       37 GROUP        1 X    GLC  0     **** GLC X 6
     5 ALP1       52 GROUP        1 Y    ALP  0     ROOT ALP Y 8
     6 SEP2        6 GROUP        1 Y    SEP  0     **** SEP Y 9
     7 LYP4        3 GROUP        1 Y    LYP  0     **** LYP Y 11
     8 GLP5       39 GROUP        1 Y    GLP  0     **** GLP Y 13
     9 ALL1       51 GROUP        1 Z    ALL  0     ROOT ALL Z 15
    10 SEL2        5 GROUP        1 Z    SEL  0     **** SEL Z 16
    11 LYL4        2 GROUP        1 Z    LYL  0     **** LYL Z 18
    12 GLL5       38 GROUP        1 Z    GLL  0     **** GLL Z 20
@<TRIPOS>SET

