#    Name: 1ank_ANP_4_ligand
#    Modification time : Mon Mar 24 18:33:06 2014

@<TRIPOS>MOLECULE
1ank_ANP_4_ligand
   43    45     1     0     0
SMALL
NO_CHARGES


@<TRIPOS>ATOM
      1 PG        -29.2000    7.3110    2.6790 P.3       1 ANP216      0.0000 
      2 O1G       -30.1380    7.6040    1.5310 O.co2     1 ANP216      0.0000 
      3 O2G       -27.7620    7.6570    2.4870 O.co2     1 ANP216      0.0000 
      4 O3G       -29.7270    7.6180    4.0400 O.co2     1 ANP216      0.0000 
      5 PB        -28.4030    5.1180    4.2800 P.3       1 ANP216      0.0000 
      6 O1B       -26.9560    4.7570    4.0350 O.co2     1 ANP216      0.0000 
      7 O2B       -28.5240    5.9300    5.4880 O.co2     1 ANP216      0.0000 
      8 N3B       -29.1190    5.7170    3.0300 N.4       1 ANP216      0.0000 
      9 PA        -30.0170    3.0210    5.6370 P.3       1 ANP216      0.0000 
     10 O1A       -29.5040    2.9870    7.0310 O.co2     1 ANP216      0.0000 
     11 O2A       -31.2600    3.8210    5.3670 O.co2     1 ANP216      0.0000 
     12 O3A       -28.9960    3.6540    4.5510 O.3       1 ANP216      0.0000 
     13 O5'       -30.2280    1.5540    5.1590 O.3       1 ANP216      0.0000 
     14 C5'       -31.1660    1.3940    4.0370 C.3       1 ANP216      0.0000 
     15 C4'       -32.2340    0.3470    4.2130 C.3       1 ANP216      0.0000 
     16 O4'       -31.7330   -1.0030    4.2450 O.3       1 ANP216      0.0000 
     17 C3'       -33.0030    0.5510    5.4630 C.3       1 ANP216      0.0000 
     18 O3'       -34.4400    0.4980    5.2390 O.3       1 ANP216      0.0000 
     19 C2'       -32.4410   -0.5280    6.4470 C.3       1 ANP216      0.0000 
     20 O2'       -33.6610   -1.0100    6.9710 O.3       1 ANP216      0.0000 
     21 C1'       -31.8370   -1.5710    5.5450 C.3       1 ANP216      0.0000 
     22 N9        -30.5360   -1.9960    6.0370 N.pl3     1 ANP216      0.0000 
     23 C8        -29.5620   -1.2320    6.6080 C.2       1 ANP216      0.0000 
     24 N7        -28.5230   -2.0040    7.0030 N.2       1 ANP216      0.0000 
     25 C5        -28.8230   -3.2190    6.6200 C.ar      1 ANP216      0.0000 
     26 C6        -28.0240   -4.3550    6.7300 C.ar      1 ANP216      0.0000 
     27 N6        -26.8420   -4.2570    7.3010 N.pl3     1 ANP216      0.0000 
     28 N1        -28.4840   -5.5310    6.1900 N.ar      1 ANP216      0.0000 
     29 C2        -29.7510   -5.5140    5.6240 C.ar      1 ANP216      0.0000 
     30 N3        -30.4850   -4.3990    5.5650 N.ar      1 ANP216      0.0000 
     31 C4        -30.0730   -3.2270    6.0320 C.ar      1 ANP216      0.0000 
     32 H         -30.5962    1.1595    3.1016 H         1 ANP216      0.0000 
     33 H         -31.6668    2.3729    3.8236 H         1 ANP216      0.0000 
     34 H         -32.9485    0.4421    3.3753 H         1 ANP216      0.0000 
     35 H         -32.7007    1.5186    5.8789 H         1 ANP216      0.0000 
     36 H         -31.8105   -0.1067    7.0825 H         1 ANP216      0.0000 
     37 H         -32.5207   -2.4186    5.5263 H         1 ANP216      0.0000 
     38 H         -29.6122   -0.2631    6.7146 H         1 ANP216      0.0000 
     39 H         -26.5855   -3.3476    7.6284 H         1 ANP216      0.0000 
     40 H         -26.3083   -5.1009    7.3553 H         1 ANP216      0.0000 
     41 H         -30.1250   -6.4172    5.2359 H         1 ANP216      0.0000 
     42 H         -34.8088    1.2818    5.7387 H         1 ANP216      0.0000 
     43 H         -34.3713   -0.5247    6.4611 H         1 ANP216      0.0000 
@<TRIPOS>BOND
     1    2    1 ar   
     2    3    1 ar   
     3    4    1 ar   
     4    8    1 1    
     5    6    5 ar   
     6    7    5 ar   
     7    8    5 1    
     8   12    5 1    
     9   10    9 ar   
    10   11    9 ar   
    11   12    9 1    
    12   13    9 1    
    13   14   13 1    
    14   15   14 1    
    15   32   14 1    
    16   33   14 1    
    17   16   15 1    
    18   17   15 1    
    19   34   15 1    
    20   21   16 1    
    21   18   17 1    
    22   19   17 1    
    23   35   17 1    
    24   42   18 1    
    25   20   19 1    
    26   21   19 1    
    27   36   19 1    
    28   43   20 1    
    29   22   21 1    
    30   37   21 1    
    31   23   22 1    
    32   31   22 1    
    33   24   23 2    
    34   38   23 1    
    35   25   24 1    
    36   26   25 ar   
    37   31   25 ar   
    38   27   26 1    
    39   28   26 ar   
    40   39   27 1    
    41   40   27 1    
    42   29   28 ar   
    43   30   29 ar   
    44   41   29 1    
    45   31   30 ar   
@<TRIPOS>SUBSTRUCTURE
     1 ANP216      1 GROUP   
@<TRIPOS>SET

