#    Name: 3hrc_ATP_1_INTS_M
#    Modification time : Tue Mar 25 14:53:31 2014

@<TRIPOS>MOLECULE
3hrc_ATP_1_INTS_M
   51     0    12     0     0
SMALL
NO_CHARGES


@<TRIPOS>ATOM
      1 N          28.6420  -18.0715  -11.1605 N.am      2 SEC2        0.0000 
      2 N          29.0350  -18.4130  -12.4530 N.am     10 SEL2        0.0000 
      3 N          28.2490  -17.7300   -9.8680 N.am      6 SEP2        0.0000 
      4 N          29.4015  -17.0925  -11.8290 N.am      2 SEC2        0.0000 
      5 N          29.7680  -15.7720  -11.2050 N.am      6 SEP2        0.0000 
      6 NZ         22.2990  -18.2400  -13.4860 N.4       3 LYC4        0.0000 
      7 NZ         22.7940  -19.3930  -12.2450 N.4      11 LYL4        0.0000 
      8 NZ         21.8040  -17.0870  -14.7270 N.4       7 LYP4        0.0000 
      9 N          23.1420  -18.2305  -11.6665 N.am      2 SEC2        0.0000 
     10 N          22.7940  -19.3930  -12.2450 N.am     10 SEL2        0.0000 
     11 N          23.4900  -17.0680  -11.0880 N.am      6 SEP2        0.0000 
     12 NZ         22.4530  -18.3015  -14.7675 N.4       3 LYC4        0.0000 
     13 NZ         23.1020  -19.5160  -14.8080 N.4      11 LYL4        0.0000 
     14 N          22.4530  -18.3015  -14.7675 N.am      2 SEC2        0.0000 
     15 N          23.1020  -19.5160  -14.8080 N.am     10 SEL2        0.0000 
     16 N          21.8040  -17.0870  -14.7270 N.am      6 SEP2        0.0000 
     17 CA         24.1005  -22.1990  -10.2340 C.3       4 GLC5        0.0000 
     18 CA         23.5290  -22.4160  -12.2760 C.3      12 GLL5        0.0000 
     19 CA         24.6720  -21.9820   -8.1920 C.3       8 GLP5        0.0000 
     20 O          24.7230  -27.1270  -14.5610 O.2       1 ALC1        0.0000 
     21 O          23.4400  -26.7390  -13.8670 O.2       9 ALL1        0.0000 
     22 O          26.0060  -27.5150  -15.2550 O.2       5 ALP1        0.0000 
     23 CA         22.1265  -25.1320  -11.2835 C.3       4 GLC5        0.0000 
     24 CA         21.5920  -25.2230  -13.4400 C.3      12 GLL5        0.0000 
     25 CA         22.6610  -25.0410   -9.1270 C.3       8 GLP5        0.0000 
     26 O          15.3080  -23.8640  -17.0400 O.2       1 ALC1        0.0000 
     27 O          16.6400  -23.6150  -16.6500 O.2       9 ALL1        0.0000 
     28 O          13.9760  -24.1130  -17.4300 O.2       5 ALP1        0.0000 
     29 N          15.8720  -26.6055  -16.3510 N.am      2 SEC2        0.0000 
     30 N          16.8980  -25.7320  -15.6300 N.am     10 SEL2        0.0000 
     31 N          14.8460  -27.4790  -17.0720 N.am      6 SEP2        0.0000 
     32 CA         16.8225  -26.3875  -13.0325 C.3       4 GLC5        0.0000 
     33 CA         17.6110  -26.6160  -14.9010 C.3      12 GLL5        0.0000 
     34 CA         16.0340  -26.1590  -11.1640 C.3       8 GLP5        0.0000 
     35 CA         16.1700  -25.1360  -14.2605 C.3       4 GLC5        0.0000 
     36 CA         14.7290  -23.6560  -13.6200 C.3       8 GLP5        0.0000 
     37 CA         17.1215  -27.3085  -16.7750 C.3       4 GLC5        0.0000 
     38 CA         16.6320  -28.0010  -18.6490 C.3       8 GLP5        0.0000 
     39 CA         18.7320  -26.1720  -16.5535 C.3       4 GLC5        0.0000 
     40 CA         19.8530  -25.7280  -18.2060 C.3       8 GLP5        0.0000 
     41 CA         23.0478  -24.0983  -10.7788 C.3       4 GLC5        0.0000 
     42 CA         23.3400  -23.8950  -12.5850 C.3      12 GLL5        0.0000 
     43 CA         21.7103  -22.1513  -12.1137 C.3       4 GLC5        0.0000 
     44 CA         19.9860  -21.1470  -11.7970 C.3       8 GLP5        0.0000 
     45 CA         18.4808  -23.6030  -13.3600 C.3       4 GLC5        0.0000 
     46 CA         19.4000  -25.1220  -14.6050 C.3      12 GLL5        0.0000 
     47 CA         17.9200  -22.5890  -11.7200 C.3       8 GLP5        0.0000 
     48 CA         16.3723  -23.9805  -14.6378 C.3       4 GLC5        0.0000 
     49 CA         18.6830  -24.1120  -15.3950 C.3      12 GLL5        0.0000 
     50 CA         19.2804  -25.2208  -16.6681 C.3       4 GLC5        0.0000 
     51 CA         17.3480  -24.4980  -15.9160 C.3      12 GLL5        0.0000 
@<TRIPOS>BOND
@<TRIPOS>SUBSTRUCTURE
     1 ALC1       20 GROUP        1 X    ALC  0     ROOT ALC X 1
     2 SEC2        1 GROUP        1 X    SEC  0     **** SEC X 2
     3 LYC4        6 GROUP        1 X    LYC  0     **** LYC X 4
     4 GLC5       17 GROUP        1 X    GLC  0     **** GLC X 6
     5 ALP1       22 GROUP        1 Y    ALP  0     ROOT ALP Y 8
     6 SEP2        3 GROUP        1 Y    SEP  0     **** SEP Y 9
     7 LYP4        8 GROUP        1 Y    LYP  0     **** LYP Y 11
     8 GLP5       19 GROUP        1 Y    GLP  0     **** GLP Y 13
     9 ALL1       21 GROUP        1 Z    ALL  0     ROOT ALL Z 15
    10 SEL2        2 GROUP        1 Z    SEL  0     **** SEL Z 16
    11 LYL4        7 GROUP        1 Z    LYL  0     **** LYL Z 18
    12 GLL5       18 GROUP        1 Z    GLL  0     **** GLL Z 20
@<TRIPOS>SET

