#    Name: 3hrc_ATP_1_ligand
#    Modification time : Tue Mar 25 14:53:31 2014

@<TRIPOS>MOLECULE
3hrc_ATP_1_ligand
   43    45     1     0     0
SMALL
NO_CHARGES


@<TRIPOS>ATOM
      1 PG         28.2790  -18.6870  -13.7280 P.3       1 ATP1373     0.0000 
      2 O1G        27.1520  -17.7140  -14.0000 O.co2     1 ATP1373     0.0000 
      3 O2G        29.0350  -18.4130  -12.4530 O.co2     1 ATP1373     0.0000 
      4 O3G        29.1670  -18.9810  -14.9110 O.co2     1 ATP1373     0.0000 
      5 PB         26.2340  -20.6700  -14.0970 P.3       1 ATP1373     0.0000 
      6 O1B        26.2990  -22.1510  -13.7870 O.co2     1 ATP1373     0.0000 
      7 O2B        26.1250  -20.1410  -15.4950 O.co2     1 ATP1373     0.0000 
      8 O3B        27.5830  -20.1060  -13.3960 O.3       1 ATP1373     0.0000 
      9 PA         23.4640  -20.0410  -13.4360 P.3       1 ATP1373     0.0000 
     10 O1A        22.7940  -19.3930  -12.2450 O.co2     1 ATP1373     0.0000 
     11 O2A        23.1020  -19.5160  -14.8080 O.co2     1 ATP1373     0.0000 
     12 O3A        25.0740  -19.9150  -13.2350 O.3       1 ATP1373     0.0000 
     13 O5'        23.2190  -21.6180  -13.4060 O.3       1 ATP1373     0.0000 
     14 C5'        23.5290  -22.4160  -12.2760 C.3       1 ATP1373     0.0000 
     15 C4'        23.3400  -23.8950  -12.5850 C.3       1 ATP1373     0.0000 
     16 O4'        21.9660  -24.2900  -12.4120 O.3       1 ATP1373     0.0000 
     17 C3'        23.7120  -24.2970  -14.0140 C.3       1 ATP1373     0.0000 
     18 O3'        25.1110  -24.5760  -14.1290 O.3       1 ATP1373     0.0000 
     19 C2'        22.8280  -25.5030  -14.2900 C.3       1 ATP1373     0.0000 
     20 O2'        23.4400  -26.7390  -13.8670 O.3       1 ATP1373     0.0000 
     21 C1'        21.5920  -25.2230  -13.4400 C.3       1 ATP1373     0.0000 
     22 N9         20.5460  -24.5580  -14.2630 N.pl3     1 ATP1373     0.0000 
     23 C8         20.5890  -23.3010  -14.7630 C.2       1 ATP1373     0.0000 
     24 N7         19.4620  -23.0130  -15.4580 N.2       1 ATP1373     0.0000 
     25 C5         18.6830  -24.1120  -15.3950 C.ar      1 ATP1373     0.0000 
     26 C6         17.3480  -24.4980  -15.9160 C.ar      1 ATP1373     0.0000 
     27 N6         16.6400  -23.6150  -16.6500 N.pl3     1 ATP1373     0.0000 
     28 N1         16.8980  -25.7320  -15.6300 N.ar      1 ATP1373     0.0000 
     29 C2         17.6110  -26.6160  -14.9010 C.ar      1 ATP1373     0.0000 
     30 N3         18.8340  -26.3410  -14.3980 N.ar      1 ATP1373     0.0000 
     31 C4         19.4000  -25.1220  -14.6050 C.ar      1 ATP1373     0.0000 
     32 H          22.8869  -22.1712  -11.4131 H         1 ATP1373     0.0000 
     33 H          24.5729  -22.2748  -11.9488 H         1 ATP1373     0.0000 
     34 H          23.9674  -24.4803  -11.9102 H         1 ATP1373     0.0000 
     35 H          23.3883  -23.4977  -14.6589 H         1 ATP1373     0.0000 
     36 H          22.5400  -25.4949  -15.3044 H         1 ATP1373     0.0000 
     37 H          21.2285  -26.1250  -13.0347 H         1 ATP1373     0.0000 
     38 H          21.3378  -22.6791  -14.6389 H         1 ATP1373     0.0000 
     39 H          17.0523  -22.7118  -16.7698 H         1 ATP1373     0.0000 
     40 H          15.7659  -23.9421  -17.0090 H         1 ATP1373     0.0000 
     41 H          17.1906  -27.5742  -14.7135 H         1 ATP1373     0.0000 
     42 H          25.5601  -23.6868  -14.0420 H         1 ATP1373     0.0000 
     43 H          24.2858  -26.8034  -14.3966 H         1 ATP1373     0.0000 
@<TRIPOS>BOND
     1    2    1 ar   
     2    3    1 ar   
     3    4    1 ar   
     4    8    1 1    
     5    6    5 ar   
     6    7    5 ar   
     7    8    5 1    
     8   12    5 1    
     9   10    9 ar   
    10   11    9 ar   
    11   12    9 1    
    12   13    9 1    
    13   14   13 1    
    14   15   14 1    
    15   32   14 1    
    16   33   14 1    
    17   16   15 1    
    18   17   15 1    
    19   34   15 1    
    20   21   16 1    
    21   18   17 1    
    22   19   17 1    
    23   35   17 1    
    24   42   18 1    
    25   20   19 1    
    26   21   19 1    
    27   36   19 1    
    28   43   20 1    
    29   22   21 1    
    30   37   21 1    
    31   23   22 1    
    32   31   22 1    
    33   24   23 2    
    34   38   23 1    
    35   25   24 1    
    36   26   25 ar   
    37   31   25 ar   
    38   27   26 1    
    39   28   26 ar   
    40   39   27 1    
    41   40   27 1    
    42   29   28 ar   
    43   30   29 ar   
    44   41   29 1    
    45   31   30 ar   
@<TRIPOS>SUBSTRUCTURE
     1 ATP1373     1 GROUP   
@<TRIPOS>SET

