#    Name: 4g3f_0WB_1_INTS_M
#    Modification time : Mon Mar 24 21:20:15 2014

@<TRIPOS>MOLECULE
4g3f_0WB_1_INTS_M
   78     0     9     0     0
SMALL
NO_CHARGES


@<TRIPOS>ATOM
      1 CA         18.7380    9.2460    5.6750 C.3       3 GLC5        0.0000 
      2 CA         17.6930   10.5210    6.4540 C.3       9 GLL5        0.0000 
      3 CA         19.7830    7.9710    4.8960 C.3       6 GLP5        0.0000 
      4 CA         18.7330   12.3290    5.8935 C.3       3 GLC5        0.0000 
      5 CA         19.7730   14.1370    5.3330 C.3       6 GLP5        0.0000 
      6 CA         15.2350   10.4550    9.2760 C.3       3 GLC5        0.0000 
      7 CA         16.3550    9.4700    8.1290 C.3       9 GLL5        0.0000 
      8 CA         14.1150   11.4400   10.4230 C.3       6 GLP5        0.0000 
      9 O          19.8765   10.5850    6.7050 O.2       1 ALC1        0.0000 
     10 O          18.8890   10.9660    5.9880 O.2       7 ALL1        0.0000 
     11 O          20.8640   10.2040    7.4220 O.2       4 ALP1        0.0000 
     12 CA         17.7920   10.9170    9.6885 C.3       3 GLC5        0.0000 
     13 CA         17.6040    9.9050    7.6940 C.3       9 GLL5        0.0000 
     14 CA         17.9800   11.9290   11.6830 C.3       6 GLP5        0.0000 
     15 CA         12.3415    9.4285    7.8510 C.3       3 GLC5        0.0000 
     16 CA         14.0200    9.2180    7.7670 C.3       9 GLL5        0.0000 
     17 CA         10.6630    9.6390    7.9350 C.3       6 GLP5        0.0000 
     18 CA         14.0675   10.3290    9.0950 C.3       3 GLC5        0.0000 
     19 CA         15.6005    9.6010    4.2185 C.3       3 GLC5        0.0000 
     20 CA         16.5630   10.7060    5.6610 C.3       9 GLL5        0.0000 
     21 CA         14.6380    8.4960    2.7760 C.3       6 GLP5        0.0000 
     22 CA         16.7660    8.7640    5.6775 C.3       3 GLC5        0.0000 
     23 CA         16.9690    6.8220    5.6940 C.3       6 GLP5        0.0000 
     24 CA         17.9560   12.2375    4.7845 C.3       3 GLC5        0.0000 
     25 CA         19.3490   13.7690    3.9080 C.3       6 GLP5        0.0000 
     26 O          18.0300   11.4540    3.7015 O.2       1 ALC1        0.0000 
     27 O          16.7690   11.3240    4.4270 O.2       7 ALL1        0.0000 
     28 O          19.2910   11.5840    2.9760 O.2       4 ALP1        0.0000 
     29 CA         14.2730   10.5285    2.7475 C.3       3 GLC5        0.0000 
     30 CA         13.9080   12.5610    2.7190 C.3       9 GLL5        0.0000 
     31 CA         17.0800   11.1490    1.3060 C.3       3 GLC5        0.0000 
     32 CA         16.3560   12.6480    2.0820 C.3       9 GLL5        0.0000 
     33 CA         17.8040    9.6500    0.5300 C.3       6 GLP5        0.0000 
     34 CA         16.0320   14.0535    3.3455 C.3       3 GLC5        0.0000 
     35 CA         15.7080   15.4590    4.6090 C.3       6 GLP5        0.0000 
     36 CA         17.8525   13.2085    2.9950 C.3       3 GLC5        0.0000 
     37 CA         12.5850   12.7530    5.6560 C.3       3 GLC5        0.0000 
     38 CA         11.7430   12.7120    3.8980 C.3       9 GLL5        0.0000 
     39 CA         13.4270   12.7940    7.4140 C.3       6 GLP5        0.0000 
     40 CA         11.6410   11.1840    0.2515 C.3       3 GLC5        0.0000 
     41 CA         11.7640   13.0170    1.5010 C.3       9 GLL5        0.0000 
     42 CA         11.5180    9.3510   -0.9980 C.3       6 GLP5        0.0000 
     43 CA         10.1605   11.2595    6.5425 C.3       3 GLC5        0.0000 
     44 CA          9.6580   12.8800    5.1500 C.3       9 GLL5        0.0000 
     45 CA         11.5425   12.8370    6.2820 C.3       3 GLC5        0.0000 
     46 CA          8.0525   11.8385    6.2220 C.3       3 GLC5        0.0000 
     47 CA          6.4470   10.7970    7.2940 C.3       6 GLP5        0.0000 
     48 N           8.2900   13.7510    7.1025 N.am      2 SEC2        0.0000 
     49 N           9.1210   12.8440    6.1520 N.am      8 SEL2        0.0000 
     50 N           7.4590   14.6580    8.0530 N.am      5 SEP2        0.0000 
     51 CA         16.9742    8.2548    6.8027 C.3       3 GLC5        0.0000 
     52 CA         17.9913    8.9372    9.2862 C.3       3 GLC5        0.0000 
     53 CA         19.0030    8.1870   10.6610 C.3       6 GLP5        0.0000 
     54 CA         13.8270    7.6568    7.9615 C.3       3 GLC5        0.0000 
     55 CA         15.2340    9.6470    7.3370 C.3       9 GLL5        0.0000 
     56 CA         13.0270    5.8810    8.3710 C.3       6 GLP5        0.0000 
     57 CA         13.5895    9.0861    5.6740 C.3       3 GLC5        0.0000 
     58 CA         12.5290    8.5870    4.1070 C.3       6 GLP5        0.0000 
     59 CA         15.8095    8.2036    6.4675 C.3       3 GLC5        0.0000 
     60 CA         15.3260   10.2580    6.0930 C.3       9 GLL5        0.0000 
     61 CA         14.6743   11.5616    6.8010 C.3       3 GLC5        0.0000 
     62 CA         15.0005   14.1255    3.4132 C.3       3 GLC5        0.0000 
     63 CA         10.7920   11.2030    3.0297 C.3       3 GLC5        0.0000 
     64 CA         12.4390   12.7580    2.6970 C.3       9 GLL5        0.0000 
     65 CA          9.4930    9.6710    2.7620 C.3       6 GLP5        0.0000 
     66 CA         12.3100   10.6610    3.7023 C.3       3 GLC5        0.0000 
     67 CA         11.0207   14.7528    2.6615 C.3       3 GLC5        0.0000 
     68 CA          9.6970   13.1730    2.7040 C.3       9 GLL5        0.0000 
     69 CA         11.9970   16.3120    3.2160 C.3       6 GLP5        0.0000 
     70 CA         10.2855   11.3932    2.1338 C.3       3 GLC5        0.0000 
     71 CA         10.3920   13.2140    1.5100 C.3       9 GLL5        0.0000 
     72 CA         11.0765   14.8528    0.5137 C.3       3 GLC5        0.0000 
     73 CA         11.0750   16.5900   -0.4780 C.3       6 GLP5        0.0000 
     74 CA         12.2329   14.5751    2.6603 C.3       3 GLC5        0.0000 
     75 CA          9.6686   11.3170    3.4944 C.3       3 GLC5        0.0000 
     76 CA         10.3640   12.9190    3.9030 C.3       9 GLL5        0.0000 
     77 CA         11.1944   14.3009    5.0831 C.3       3 GLC5        0.0000 
     78 CA         12.0330   15.7540    5.6410 C.3       6 GLP5        0.0000 
@<TRIPOS>BOND
@<TRIPOS>SUBSTRUCTURE
     1 ALC1        9 GROUP        1 X    ALC  0     ROOT ALC X 1
     2 SEC2       48 GROUP        1 X    SEC  0     **** SEC X 2
     3 GLC5        1 GROUP        1 X    GLC  0     **** GLC X 6
     4 ALP1       11 GROUP        1 Y    ALP  0     ROOT ALP Y 8
     5 SEP2       50 GROUP        1 Y    SEP  0     **** SEP Y 9
     6 GLP5        3 GROUP        1 Y    GLP  0     **** GLP Y 13
     7 ALL1       10 GROUP        1 Z    ALL  0     ROOT ALL Z 15
     8 SEL2       49 GROUP        1 Z    SEL  0     **** SEL Z 16
     9 GLL5        2 GROUP        1 Z    GLL  0     **** GLL Z 20
@<TRIPOS>SET

