#    Name: 4g3f_0WB_1_ligand
#    Modification time : Mon Mar 24 21:20:15 2014

@<TRIPOS>MOLECULE
4g3f_0WB_1_ligand
   32    34     1     0     0
SMALL
NO_CHARGES


@<TRIPOS>ATOM
      1 C7         15.3260   10.2580    6.0930 C.ar      1 0WB701      0.0000 
      2 C2         17.6930   10.5210    6.4540 C.ar      1 0WB701      0.0000 
      3 C10        15.8430   11.8820    3.5860 C.2       1 0WB701      0.0000 
      4 C4         16.3550    9.4700    8.1290 C.ar      1 0WB701      0.0000 
      5 O1         18.8890   10.9660    5.9880 O.3       1 0WB701      0.0000 
      6 C3         17.6040    9.9050    7.6940 C.ar      1 0WB701      0.0000 
      7 C5         15.2340    9.6470    7.3370 C.ar      1 0WB701      0.0000 
      8 F6         14.0200    9.2180    7.7670 F         1 0WB701      0.0000 
      9 C8         16.5630   10.7060    5.6610 C.ar      1 0WB701      0.0000 
     10 N9         16.7690   11.3240    4.4270 N.pl3     1 0WB701      0.0000 
     11 N11        14.5530   11.9520    3.7250 N.2       1 0WB701      0.0000 
     12 C12        13.9080   12.5610    2.7190 C.2       1 0WB701      0.0000 
     13 C13        14.6780   13.0230    1.7160 C.2       1 0WB701      0.0000 
     14 S14        16.3560   12.6480    2.0820 S.3       1 0WB701      0.0000 
     15 C15        12.4390   12.7580    2.6970 C.ar      1 0WB701      0.0000 
     16 C16        11.7430   12.7120    3.8980 C.ar      1 0WB701      0.0000 
     17 C17        10.3640   12.9190    3.9030 C.ar      1 0WB701      0.0000 
     18 C18         9.6970   13.1730    2.7040 C.ar      1 0WB701      0.0000 
     19 C19        10.3920   13.2140    1.5100 C.ar      1 0WB701      0.0000 
     20 C20        11.7640   13.0170    1.5010 C.ar      1 0WB701      0.0000 
     21 C21         9.6580   12.8800    5.1500 C.1       1 0WB701      0.0000 
     22 N22         9.1210   12.8440    6.1520 N.1       1 0WB701      0.0000 
     23 H          14.4963   10.3737    5.5097 H         1 0WB701      0.0000 
     24 H          16.2682    9.0120    9.0506 H         1 0WB701      0.0000 
     25 H          18.4300    9.7733    8.2730 H         1 0WB701      0.0000 
     26 H          17.8090   11.3633    4.0962 H         1 0WB701      0.0000 
     27 H          14.5790   13.4606    0.9271 H         1 0WB701      0.0000 
     28 H          12.2376   12.5272    4.7766 H         1 0WB701      0.0000 
     29 H           8.6769   13.3307    2.7149 H         1 0WB701      0.0000 
     30 H           9.8925   13.3907    0.6267 H         1 0WB701      0.0000 
     31 H          12.2887   13.0603    0.6188 H         1 0WB701      0.0000 
     32 H          19.5466   10.2582    6.2459 H         1 0WB701      0.0000 
@<TRIPOS>BOND
     1    7    1 ar   
     2    9    1 ar   
     3   23    1 1    
     4    5    2 1    
     5    6    2 ar   
     6    9    2 ar   
     7   10    3 1    
     8   11    3 2    
     9   14    3 1    
    10    6    4 ar   
    11    7    4 ar   
    12   24    4 1    
    13   32    5 1    
    14   25    6 1    
    15    8    7 1    
    16   10    9 1    
    17   26   10 1    
    18   12   11 1    
    19   13   12 2    
    20   15   12 1    
    21   14   13 1    
    22   27   13 1    
    23   16   15 ar   
    24   20   15 ar   
    25   17   16 ar   
    26   28   16 1    
    27   18   17 ar   
    28   21   17 1    
    29   19   18 ar   
    30   29   18 1    
    31   20   19 ar   
    32   30   19 1    
    33   31   20 1    
    34   22   21 3    
@<TRIPOS>SUBSTRUCTURE
     1 0WB701      1 GROUP   
@<TRIPOS>SET

