#    Name: 2ouq_5GP_1_INTS_M
#    Modification time : Mon Mar 24 17:51:05 2014

@<TRIPOS>MOLECULE
2ouq_5GP_1_INTS_M
   41     0    12     0     0
SMALL
NO_CHARGES


@<TRIPOS>ATOM
      1 Zn          9.0210    7.2275   47.9930 Zn        3 ZIC7        0.0000 
      2 Zn          8.6460    7.8850   46.9780 Zn       11 ZIL7        0.0000 
      3 Zn          9.3960    6.5700   49.0080 Zn        7 ZIP7        0.0000 
      4 Zn         10.3515    5.5500   45.7105 Zn        3 ZIC7        0.0000 
      5 Zn         10.0180    6.6770   45.3640 Zn       11 ZIL7        0.0000 
      6 Zn         10.6850    4.4230   46.0570 Zn        7 ZIP7        0.0000 
      7 Zn          9.1345    6.0125   48.0805 Zn        3 ZIC7        0.0000 
      8 Zn          8.8730    5.4550   47.1530 Zn       11 ZIL7        0.0000 
      9 Zn          9.7790    4.9390   46.6050 Zn        3 ZIC7        0.0000 
     10 CA          4.6740    8.0075   46.0540 C.3       4 GLC5        0.0000 
     11 CA          6.4330    7.3150   45.2830 C.3      12 GLL5        0.0000 
     12 CA          2.9150    8.7000   46.8250 C.3       8 GLP5        0.0000 
     13 CA          8.6040   10.5540   46.0530 C.3       4 GLC5        0.0000 
     14 CA          7.7110    9.3750   44.5400 C.3      12 GLL5        0.0000 
     15 CA          9.4970   11.7330   47.5660 C.3       8 GLP5        0.0000 
     16 N          10.2290    9.0475   44.7505 N.am      2 SEC2        0.0000 
     17 N           9.0090    8.8380   44.2980 N.am     10 SEL2        0.0000 
     18 N          11.4490    9.2570   45.2030 N.am      6 SEP2        0.0000 
     19 CA          4.7910    8.7745   43.0805 C.3       4 GLC5        0.0000 
     20 CA          5.8420   10.4010   43.4970 C.3      12 GLL5        0.0000 
     21 CA          3.7400    7.1480   42.6640 C.3       8 GLP5        0.0000 
     22 CA          3.6580   10.5915   43.6825 C.3       4 GLC5        0.0000 
     23 CA          1.4740   10.7820   43.8680 C.3       8 GLP5        0.0000 
     24 CA          5.2975   14.2555   45.8315 C.3       4 GLC5        0.0000 
     25 CA          4.0590   13.2480   44.8110 C.3      12 GLL5        0.0000 
     26 CA          6.5360   15.2630   46.8520 C.3       8 GLP5        0.0000 
     27 N           2.3395   16.4990   44.8970 N.am      2 SEC2        0.0000 
     28 N           2.8420   15.2180   45.4130 N.am     10 SEL2        0.0000 
     29 N           1.8370   17.7800   44.3810 N.am      6 SEP2        0.0000 
     30 O           2.9070   15.9740   42.7815 O.2       1 ALC1        0.0000 
     31 O           3.2830   14.7630   43.2260 O.2       9 ALL1        0.0000 
     32 O           2.5310   17.1850   42.3370 O.2       5 ALP1        0.0000 
     33 O           3.0705   15.8170   41.6520 O.2       1 ALC1        0.0000 
     34 O           3.6100   14.4490   40.9670 O.2       9 ALL1        0.0000 
     35 CA          6.3035   13.7840   43.9465 C.3       4 GLC5        0.0000 
     36 CA          4.5440   12.5510   43.7280 C.3      12 GLL5        0.0000 
     37 CA          8.0630   15.0170   44.1650 C.3       8 GLP5        0.0000 
     38 CA          5.1393    7.4895   43.7075 C.3       4 GLC5        0.0000 
     39 CA          6.6440    8.3470   44.2190 C.3      12 GLL5        0.0000 
     40 CA          7.3242   11.9040   42.2897 C.3       4 GLC5        0.0000 
     41 CA          8.0400   13.3650   41.0530 C.3       8 GLP5        0.0000 
@<TRIPOS>BOND
@<TRIPOS>SUBSTRUCTURE
     1 ALC1       30 GROUP        1 X    ALC  0     ROOT ALC X 1
     2 SEC2       16 GROUP        1 X    SEC  0     **** SEC X 2
     3 ZIC7        1 GROUP        1 X    ZIC  0     **** ZIC X 5
     4 GLC5       10 GROUP        1 X    GLC  0     **** GLC X 6
     5 ALP1       32 GROUP        1 Y    ALP  0     ROOT ALP Y 8
     6 SEP2       18 GROUP        1 Y    SEP  0     **** SEP Y 9
     7 ZIP7        3 GROUP        1 Y    ZIP  0     **** ZIP Y 12
     8 GLP5       12 GROUP        1 Y    GLP  0     **** GLP Y 13
     9 ALL1       31 GROUP        1 Z    ALL  0     ROOT ALL Z 15
    10 SEL2       17 GROUP        1 Z    SEL  0     **** SEL Z 16
    11 ZIL7        2 GROUP        1 Z    ZIL  0     **** ZIL Z 19
    12 GLL5       11 GROUP        1 Z    GLL  0     **** GLL Z 20
@<TRIPOS>SET

