#    Name: 2ouq_5GP_1_ligand
#    Modification time : Mon Mar 24 17:51:05 2014

@<TRIPOS>MOLECULE
2ouq_5GP_1_ligand
   36    38     1     0     0
SMALL
NO_CHARGES


@<TRIPOS>ATOM
      1 P           8.7960    6.6210   46.2120 P.3       1 5GP401      0.0000 
      2 O1P         8.6460    7.8850   46.9780 O.co2     1 5GP401      0.0000 
      3 O2P        10.0180    6.6770   45.3640 O.co2     1 5GP401      0.0000 
      4 O3P         8.8730    5.4550   47.1530 O.co2     1 5GP401      0.0000 
      5 O5'         7.5280    6.4120   45.2700 O.3       1 5GP401      0.0000 
      6 C5'         6.4330    7.3150   45.2830 C.3       1 5GP401      0.0000 
      7 C4'         6.6440    8.3470   44.2190 C.3       1 5GP401      0.0000 
      8 O4'         5.4560    9.1430   44.0160 O.3       1 5GP401      0.0000 
      9 C3'         7.7110    9.3750   44.5400 C.3       1 5GP401      0.0000 
     10 O3'         9.0090    8.8380   44.2980 O.3       1 5GP401      0.0000 
     11 C2'         7.3750   10.4850   43.5560 C.3       1 5GP401      0.0000 
     12 O2'         7.9260   10.2100   42.2830 O.3       1 5GP401      0.0000 
     13 C1'         5.8420   10.4010   43.4970 C.3       1 5GP401      0.0000 
     14 N9          5.1620   11.4430   44.2540 N.pl3     1 5GP401      0.0000 
     15 C8          5.0120   11.5240   45.6170 C.2       1 5GP401      0.0000 
     16 N7          4.3590   12.5880   45.9970 N.2       1 5GP401      0.0000 
     17 C5          4.0590   13.2480   44.8110 C.2       1 5GP401      0.0000 
     18 C6          3.3600   14.4610   44.5840 C.2       1 5GP401      0.0000 
     19 O6          2.8420   15.2180   45.4130 O.2       1 5GP401      0.0000 
     20 N1          3.2830   14.7630   43.2260 N.am      1 5GP401      0.0000 
     21 C2          3.7980   13.9930   42.2140 C.2       1 5GP401      0.0000 
     22 N2          3.6100   14.4490   40.9670 N.pl3     1 5GP401      0.0000 
     23 N3          4.4500   12.8580   42.4140 N.2       1 5GP401      0.0000 
     24 C4          4.5440   12.5510   43.7280 C.2       1 5GP401      0.0000 
     25 H           6.3426    7.8261   46.2491 H         1 5GP401      0.0000 
     26 H           5.4841    6.8019   45.0854 H         1 5GP401      0.0000 
     27 H           6.9151    7.8734   43.2834 H         1 5GP401      0.0000 
     28 H           7.5550    9.7288   45.5158 H         1 5GP401      0.0000 
     29 H           7.6406   11.4046   43.9726 H         1 5GP401      0.0000 
     30 H           5.5574   10.4629   42.4444 H         1 5GP401      0.0000 
     31 H           5.3792   10.8204   46.2252 H         1 5GP401      0.0000 
     32 H           2.7816   15.6675   42.9604 H         1 5GP401      0.0000 
     33 H           3.0964   15.3030   40.8835 H         1 5GP401      0.0000 
     34 H           4.0002   13.8943   40.2321 H         1 5GP401      0.0000 
     35 H           8.9126    7.8533   44.4426 H         1 5GP401      0.0000 
     36 H           8.6869    9.5856   42.4598 H         1 5GP401      0.0000 
@<TRIPOS>BOND
     1    2    1 ar   
     2    3    1 ar   
     3    4    1 ar   
     4    5    1 1    
     5    6    5 1    
     6    7    6 1    
     7   25    6 1    
     8   26    6 1    
     9    8    7 1    
    10    9    7 1    
    11   27    7 1    
    12   13    8 1    
    13   10    9 1    
    14   11    9 1    
    15   28    9 1    
    16   35   10 1    
    17   12   11 1    
    18   13   11 1    
    19   29   11 1    
    20   36   12 1    
    21   14   13 1    
    22   30   13 1    
    23   15   14 1    
    24   24   14 1    
    25   16   15 2    
    26   31   15 1    
    27   17   16 1    
    28   18   17 1    
    29   24   17 2    
    30   19   18 2    
    31   20   18 am   
    32   21   20 1    
    33   32   20 1    
    34   22   21 1    
    35   23   21 2    
    36   33   22 1    
    37   34   22 1    
    38   24   23 1    
@<TRIPOS>SUBSTRUCTURE
     1 5GP401      1 GROUP   
@<TRIPOS>SET

