#    Name: 3daj_FXG_1_INTS_M
#    Modification time : Mon Mar 24 23:00:19 2014

@<TRIPOS>MOLECULE
3daj_FXG_1_INTS_M
   69     0     9     0     0
SMALL
NO_CHARGES


@<TRIPOS>ATOM
      1 CA         67.4385   22.1075    7.4370 C.3       3 GLC5        0.0000 
      2 CA         69.3260   23.1030    7.3630 C.3       9 GLL5        0.0000 
      3 CA         65.5510   21.1120    7.5110 C.3       6 GLP5        0.0000 
      4 CA         71.2825   25.6605    7.6240 C.3       3 GLC5        0.0000 
      5 CA         69.7120   24.4670    6.8050 C.3       9 GLL5        0.0000 
      6 CA         72.8530   26.8540    8.4430 C.3       6 GLP5        0.0000 
      7 CA         71.2580   25.3405    5.5045 C.3       3 GLC5        0.0000 
      8 CA         72.8040   26.2140    4.2040 C.3       6 GLP5        0.0000 
      9 CA         66.8395   23.5760    3.7405 C.3       3 GLC5        0.0000 
     10 CA         68.1410   25.0770    3.5450 C.3       9 GLL5        0.0000 
     11 CA         65.5380   22.0750    3.9360 C.3       6 GLP5        0.0000 
     12 CA         68.6975   26.4235    0.1220 C.3       3 GLC5        0.0000 
     13 CA         67.6800   25.1320    1.2210 C.3       9 GLL5        0.0000 
     14 CA         69.7150   27.7150   -0.9770 C.3       6 GLP5        0.0000 
     15 CA         66.5380   26.2655   -0.2670 C.3       3 GLC5        0.0000 
     16 CA         65.3960   27.3990   -1.7550 C.3       6 GLP5        0.0000 
     17 O          67.5465   24.9700   -1.2290 O.2       1 ALC1        0.0000 
     18 O          68.2170   24.7710    0.0430 O.2       7 ALL1        0.0000 
     19 O          66.8760   25.1690   -2.5010 O.2       4 ALP1        0.0000 
     20 N          65.2455   25.9875    0.6430 N.am      2 SEC2        0.0000 
     21 N          66.4880   25.7390    1.4390 N.am      8 SEL2        0.0000 
     22 N          64.0030   26.2360   -0.1530 N.am      5 SEP2        0.0000 
     23 CA         67.7235   27.3745    2.7245 C.3       3 GLC5        0.0000 
     24 CA         66.1390   26.0100    2.7080 C.3       9 GLL5        0.0000 
     25 CA         69.3080   28.7390    2.7410 C.3       6 GLP5        0.0000 
     26 CA         64.5575   25.1390    1.7870 C.3       3 GLC5        0.0000 
     27 CA         62.9760   24.2680    0.8660 C.3       6 GLP5        0.0000 
     28 CA         65.8385   24.0425    3.3220 C.3       3 GLC5        0.0000 
     29 CA         78.2035   22.4560    2.7795 C.3       3 GLC5        0.0000 
     30 CA         76.7150   22.7300    4.2020 C.3       9 GLL5        0.0000 
     31 CA         79.6920   22.1820    1.3570 C.3       6 GLP5        0.0000 
     32 N          79.8355   20.5175    4.8320 N.am      2 SEC2        0.0000 
     33 N          78.6230   20.3940    4.2070 N.am      8 SEL2        0.0000 
     34 N          81.0480   20.6410    5.4570 N.am      5 SEP2        0.0000 
     35 CA         76.3240   20.0465    2.0360 C.3       3 GLC5        0.0000 
     36 CA         77.5900   18.4270    2.8590 C.3       9 GLL5        0.0000 
     37 CA         75.0580   21.6660    1.2130 C.3       6 GLP5        0.0000 
     38 CA         76.5695   18.3160    1.4690 C.3       3 GLC5        0.0000 
     39 CA         75.5490   18.2050    0.0790 C.3       6 GLP5        0.0000 
     40 CA         79.4115   15.9740    5.0645 C.3       3 GLC5        0.0000 
     41 CA         78.3650   16.2320    3.2270 C.3       9 GLL5        0.0000 
     42 CA         80.4580   15.7160    6.9020 C.3       6 GLP5        0.0000 
     43 CA         80.2195   16.4210    3.2695 C.3       3 GLC5        0.0000 
     44 CA         82.0740   16.6100    3.3120 C.3       6 GLP5        0.0000 
     45 CA         69.6285   26.6540    5.7513 C.3       3 GLC5        0.0000 
     46 CA         70.1100   28.5520    5.1180 C.3       6 GLP5        0.0000 
     47 CA         67.2728   23.4178    1.6740 C.3       3 GLC5        0.0000 
     48 CA         68.5330   24.7830    2.2450 C.3       9 GLL5        0.0000 
     49 CA         66.4390   21.8780    1.6150 C.3       6 GLP5        0.0000 
     50 CA         68.6583   26.8850    2.3995 C.3       3 GLC5        0.0000 
     51 CA         75.8440   22.4410    6.4725 C.3       3 GLC5        0.0000 
     52 CA         74.6090   23.3650    5.2020 C.3       9 GLL5        0.0000 
     53 CA         77.2480   22.1900    7.6610 C.3       6 GLP5        0.0000 
     54 CA         74.7490   22.1790    3.2485 C.3       3 GLC5        0.0000 
     55 CA         74.2710   22.0190    5.3660 C.3       9 GLL5        0.0000 
     56 CA         74.0115   24.8787    4.5585 C.3       3 GLC5        0.0000 
     57 CA         76.7600   22.7080    6.0370 C.3       3 GLC5        0.0000 
     58 CA         75.8290   23.7220    4.6240 C.3       9 GLL5        0.0000 
     59 CA         77.0505   25.1185    4.6685 C.3       3 GLC5        0.0000 
     60 CA         77.8290   27.0110    4.9240 C.3       6 GLP5        0.0000 
     61 CA         75.6650   22.4460    2.8130 C.3       3 GLC5        0.0000 
     62 CA         76.5095   21.6990    6.1560 C.3       3 GLC5        0.0000 
     63 CA         76.3820   21.3830    4.3620 C.3       9 GLL5        0.0000 
     64 CA         75.4145   21.4370    2.9320 C.3       3 GLC5        0.0000 
     65 CA         79.8780   17.9573    2.8890 C.3       3 GLC5        0.0000 
     66 CA         81.8070   17.9630    3.1170 C.3       6 GLP5        0.0000 
     67 CA         76.7214   16.4445    1.5262 C.3       3 GLC5        0.0000 
     68 CA         78.3080   17.4760    2.4630 C.3       9 GLL5        0.0000 
     69 CA         75.5510   16.8130    0.1060 C.3       6 GLP5        0.0000 
@<TRIPOS>BOND
@<TRIPOS>SUBSTRUCTURE
     1 ALC1       17 GROUP        1 X    ALC  0     ROOT ALC X 1
     2 SEC2       20 GROUP        1 X    SEC  0     **** SEC X 2
     3 GLC5        1 GROUP        1 X    GLC  0     **** GLC X 6
     4 ALP1       19 GROUP        1 Y    ALP  0     ROOT ALP Y 8
     5 SEP2       22 GROUP        1 Y    SEP  0     **** SEP Y 9
     6 GLP5        3 GROUP        1 Y    GLP  0     **** GLP Y 13
     7 ALL1       18 GROUP        1 Z    ALL  0     ROOT ALL Z 15
     8 SEL2       21 GROUP        1 Z    SEL  0     **** SEL Z 16
     9 GLL5        2 GROUP        1 Z    GLL  0     **** GLL Z 20
@<TRIPOS>SET

