#    Name: 3daj_FXG_1_ligand
#    Modification time : Mon Mar 24 23:00:19 2014

@<TRIPOS>MOLECULE
3daj_FXG_1_ligand
   60    62     1     0     0
SMALL
NO_CHARGES


@<TRIPOS>ATOM
      1 O18        73.1820   22.8950    7.8020 O.2       1 FXG1        0.0000 
      2 C16        72.5920   22.0780    7.1100 C.2       1 FXG1        0.0000 
      3 C15        71.2610   21.5100    7.5540 C.3       1 FXG1        0.0000 
      4 C14        70.4200   22.5610    8.2730 C.3       1 FXG1        0.0000 
      5 C13        69.3260   23.1030    7.3630 C.3       1 FXG1        0.0000 
      6 C12        69.7120   24.4670    6.8050 C.3       1 FXG1        0.0000 
      7 C11        68.5820   25.0450    5.9640 C.3       1 FXG1        0.0000 
      8 N10        68.9530   24.7540    4.5850 N.pl3     1 FXG1        0.0000 
      9 C6         68.1410   25.0770    3.5450 C.ar      1 FXG1        0.0000 
     10 C1         68.5330   24.7830    2.2450 C.ar      1 FXG1        0.0000 
     11 C2         67.6800   25.1320    1.2210 C.ar      1 FXG1        0.0000 
     12 N9         68.2170   24.7710    0.0430 N.pl3     1 FXG1        0.0000 
     13 C8         69.4120   24.1980    0.3300 C.2       1 FXG1        0.0000 
     14 N7         69.6080   24.2030    1.6740 N.2       1 FXG1        0.0000 
     15 N3         66.4880   25.7390    1.4390 N.ar      1 FXG1        0.0000 
     16 C4         66.1390   26.0100    2.7080 C.ar      1 FXG1        0.0000 
     17 N5         66.9440   25.6890    3.7390 N.ar      1 FXG1        0.0000 
     18 N17        73.0500   21.6220    5.9420 N.am      1 FXG1        0.0000 
     19 C19        74.2710   22.0190    5.3660 C.ar      1 FXG1        0.0000 
     20 C20        74.6090   23.3650    5.2020 C.ar      1 FXG1        0.0000 
     21 C21        75.8290   23.7220    4.6240 C.ar      1 FXG1        0.0000 
     22 C22        76.7150   22.7300    4.2020 C.ar      1 FXG1        0.0000 
     23 C23        76.3820   21.3830    4.3620 C.ar      1 FXG1        0.0000 
     24 C24        75.1600   21.0330    4.9400 C.ar      1 FXG1        0.0000 
     25 C25        77.3270   20.3060    3.9100 C.2       1 FXG1        0.0000 
     26 O27        78.6230   20.3940    4.2070 O.2       1 FXG1        0.0000 
     27 N26        76.8770   19.3250    3.2500 N.am      1 FXG1        0.0000 
     28 C28        77.5900   18.4270    2.8590 C.3       1 FXG1        0.0000 
     29 C29        78.3080   17.4760    2.4630 C.3       1 FXG1        0.0000 
     30 C30        78.3650   16.2320    3.2270 C.3       1 FXG1        0.0000 
     31 C31        77.4470   15.2980    3.0480 C.3       1 FXG1        0.0000 
     32 H          71.4305   20.6671    8.2285 H         1 FXG1        0.0000 
     33 H          70.7097   21.1478    6.6827 H         1 FXG1        0.0000 
     34 H          71.0651   23.3811    8.5899 H         1 FXG1        0.0000 
     35 H          69.9651   22.1129    9.1571 H         1 FXG1        0.0000 
     36 H          68.3991   23.1948    7.9288 H         1 FXG1        0.0000 
     37 H          69.1664   22.4088    6.5383 H         1 FXG1        0.0000 
     38 H          70.6042   24.3643    6.1883 H         1 FXG1        0.0000 
     39 H          69.9306   25.1445    7.6297 H         1 FXG1        0.0000 
     40 H          68.5260   26.1026    6.1406 H         1 FXG1        0.0000 
     41 H          67.6649   24.5568    6.2351 H         1 FXG1        0.0000 
     42 H          69.8662   24.2890    4.4386 H         1 FXG1        0.0000 
     43 H          67.8400   24.8904   -0.8228 H         1 FXG1        0.0000 
     44 H          70.0327   23.8391   -0.3235 H         1 FXG1        0.0000 
     45 H          65.2188   26.4823    2.9015 H         1 FXG1        0.0000 
     46 H          72.4790   20.9147    5.3905 H         1 FXG1        0.0000 
     47 H          73.9545   24.0972    5.5092 H         1 FXG1        0.0000 
     48 H          76.0730   24.7117    4.5100 H         1 FXG1        0.0000 
     49 H          77.6110   22.9894    3.7742 H         1 FXG1        0.0000 
     50 H          74.9145   20.0389    5.0520 H         1 FXG1        0.0000 
     51 H          75.8045   19.3089    3.0373 H         1 FXG1        0.0000 
     52 H          78.8086   19.1743    3.2877 H         1 FXG1        0.0000 
     53 H          78.0328   19.2513    1.6964 H         1 FXG1        0.0000 
     54 H          79.4252   17.7848    2.3046 H         1 FXG1        0.0000 
     55 H          78.0633   17.1468    1.3674 H         1 FXG1        0.0000 
     56 H          78.4414   16.5434    4.3434 H         1 FXG1        0.0000 
     57 H          79.4359   15.8092    3.0737 H         1 FXG1        0.0000 
     58 H          77.4306   14.9695    2.1036 H         1 FXG1        0.0000 
     59 H          77.6077   14.5025    3.6323 H         1 FXG1        0.0000 
     60 H          76.5289   15.6347    3.2572 H         1 FXG1        0.0000 
@<TRIPOS>BOND
     1    2    1 2    
     2    3    2 1    
     3   18    2 am   
     4    4    3 1    
     5   32    3 1    
     6   33    3 1    
     7    5    4 1    
     8   34    4 1    
     9   35    4 1    
    10    6    5 1    
    11   36    5 1    
    12   37    5 1    
    13    7    6 1    
    14   38    6 1    
    15   39    6 1    
    16    8    7 1    
    17   40    7 1    
    18   41    7 1    
    19    9    8 1    
    20   42    8 1    
    21   10    9 ar   
    22   17    9 ar   
    23   11   10 ar   
    24   14   10 1    
    25   12   11 1    
    26   15   11 ar   
    27   13   12 1    
    28   43   12 1    
    29   14   13 2    
    30   44   13 1    
    31   16   15 ar   
    32   17   16 ar   
    33   45   16 1    
    34   19   18 1    
    35   46   18 1    
    36   20   19 ar   
    37   24   19 ar   
    38   21   20 ar   
    39   47   20 1    
    40   22   21 ar   
    41   48   21 1    
    42   23   22 ar   
    43   49   22 1    
    44   24   23 ar   
    45   25   23 1    
    46   50   24 1    
    47   26   25 2    
    48   27   25 am   
    49   28   27 1    
    50   51   27 1    
    51   29   28 1    
    52   52   28 1    
    53   53   28 1    
    54   30   29 1    
    55   54   29 1    
    56   55   29 1    
    57   31   30 1    
    58   56   30 1    
    59   57   30 1    
    60   58   31 1    
    61   59   31 1    
    62   60   31 1    
@<TRIPOS>SUBSTRUCTURE
     1 FXG1        1 GROUP   
@<TRIPOS>SET

