#    Name: 3k2h_LYA_2_INTS_M
#    Modification time : Mon Mar 24 18:05:37 2014

@<TRIPOS>MOLECULE
3k2h_LYA_2_INTS_M
   72     0    12     0     0
SMALL
NO_CHARGES


@<TRIPOS>ATOM
      1 CA          7.1605   -1.9115  -16.3250 C.3       4 GLC5        0.0000 
      2 CA          6.1510   -1.9930  -18.2140 C.3      12 GLL5        0.0000 
      3 CA          8.1700   -1.8300  -14.4360 C.3       8 GLP5        0.0000 
      4 CA          4.9415   -3.2125  -16.0950 C.3       4 GLC5        0.0000 
      5 CA          5.4290   -3.1570  -17.9460 C.3      12 GLL5        0.0000 
      6 CA          4.4540   -3.2680  -14.2440 C.3       8 GLP5        0.0000 
      7 CA          3.6390   -3.9480  -17.1755 C.3       4 GLC5        0.0000 
      8 CA          4.9450   -3.9490  -19.0030 C.3      12 GLL5        0.0000 
      9 CA          2.3330   -3.9470  -15.3480 C.3       8 GLP5        0.0000 
     10 CA          5.9620   -2.0880  -22.6065 C.3       4 GLC5        0.0000 
     11 CA          5.8570   -2.3520  -20.5880 C.3      12 GLL5        0.0000 
     12 CA          6.0670   -1.8240  -24.6250 C.3       8 GLP5        0.0000 
     13 CA          7.0795    1.5200  -19.2225 C.3       4 GLC5        0.0000 
     14 CA          7.1530   -0.3060  -19.8000 C.3      12 GLL5        0.0000 
     15 CA          7.0060    3.3460  -18.6450 C.3       8 GLP5        0.0000 
     16 CA          9.7835   -0.1600  -16.7070 C.3       4 GLC5        0.0000 
     17 CA         10.0740   -0.6480  -18.5550 C.3      12 GLL5        0.0000 
     18 CA          9.4930    0.3280  -14.8590 C.3       8 GLP5        0.0000 
     19 O          12.3335   -1.2025  -17.2830 O.2       1 ALC1        0.0000 
     20 O          11.0530   -1.4620  -18.0800 O.2       9 ALL1        0.0000 
     21 O          13.6140   -0.9430  -16.4860 O.2       5 ALP1        0.0000 
     22 CA         12.9990   -1.9615  -18.9765 C.3       4 GLC5        0.0000 
     23 CA         11.1270   -2.4910  -18.9690 C.3      12 GLL5        0.0000 
     24 CA         14.8710   -1.4320  -18.9840 C.3       8 GLP5        0.0000 
     25 O          12.9345   -6.6260  -20.6235 O.2       1 ALC1        0.0000 
     26 O          12.8280   -5.5540  -19.7200 O.2       9 ALL1        0.0000 
     27 O          13.0410   -7.6980  -21.5270 O.2       5 ALP1        0.0000 
     28 O          12.2880   -5.9320  -21.1840 O.2       1 ALC1        0.0000 
     29 O          11.7480   -6.3100  -22.6480 O.2       5 ALP1        0.0000 
     30 O          14.1755   -5.8160  -19.0540 O.2       1 ALC1        0.0000 
     31 O          15.5230   -6.0780  -18.3880 O.2       5 ALP1        0.0000 
     32 CA          3.0410   -5.5620  -16.3270 C.3       4 GLC5        0.0000 
     33 CA          3.7490   -7.1770  -17.3060 C.3      12 GLL5        0.0000 
     34 CA          5.2250   -9.3165  -16.6035 C.3       4 GLC5        0.0000 
     35 CA          4.1860   -8.3510  -18.1780 C.3      12 GLL5        0.0000 
     36 CA          6.2640  -10.2820  -15.0290 C.3       8 GLP5        0.0000 
     37 CA          3.5610  -10.4670  -16.2835 C.3       4 GLC5        0.0000 
     38 CA          3.0790   -9.4060  -18.1730 C.3      12 GLL5        0.0000 
     39 CA          4.0430  -11.5280  -14.3940 C.3       8 GLP5        0.0000 
     40 NZ          3.7170  -12.1355  -16.6545 N.4       3 LYC4        0.0000 
     41 NZ          3.1000  -11.7790  -17.8410 N.4      11 LYL4        0.0000 
     42 NZ          5.0170  -13.6260  -15.3270 N.4       7 LYP4        0.0000 
     43 N           3.7170  -12.1355  -16.6545 N.am      2 SEC2        0.0000 
     44 N           3.1000  -11.7790  -17.8410 N.am     10 SEL2        0.0000 
     45 N           4.3340  -12.4920  -15.4680 N.am      6 SEP2        0.0000 
     46 NZ          4.3165   -7.2155  -13.9245 N.4       3 LYC4        0.0000 
     47 NZ          5.1050   -7.0800  -15.4030 N.4      11 LYL4        0.0000 
     48 NZ          4.6010   -6.8400  -11.8700 N.4       7 LYP4        0.0000 
     49 N           5.3910   -6.8245  -14.0055 N.am      2 SEC2        0.0000 
     50 N           5.1050   -7.0800  -15.4030 N.am     10 SEL2        0.0000 
     51 N           5.6770   -6.5690  -12.6080 N.am      6 SEP2        0.0000 
     52 N           4.3165   -7.2155  -13.9245 N.am      2 SEC2        0.0000 
     53 N           3.5280   -7.3510  -12.4460 N.am      6 SEP2        0.0000 
     54 NZ          3.2080   -8.1950  -15.2220 N.4      11 LYL4        0.0000 
     55 N           3.3680   -7.7730  -13.8340 N.am      2 SEC2        0.0000 
     56 N           3.2080   -8.1950  -15.2220 N.am     10 SEL2        0.0000 
     57 CA          7.3372   -3.4285  -18.2275 C.3       4 GLC5        0.0000 
     58 CA          8.4150   -5.0670  -17.5800 C.3       8 GLP5        0.0000 
     59 CA          4.4700   -1.1470  -17.9435 C.3       4 GLC5        0.0000 
     60 CA          3.1500    0.2810  -17.8070 C.3       8 GLP5        0.0000 
     61 CA          6.8010   -4.3100  -18.0272 C.3       4 GLC5        0.0000 
     62 CA          3.2100   -2.7867  -19.6397 C.3       4 GLC5        0.0000 
     63 CA          1.3720   -1.8310  -19.6140 C.3       8 GLP5        0.0000 
     64 CA          4.7819   -0.5029  -19.6170 C.3       4 GLC5        0.0000 
     65 CA          6.3680   -1.5870  -19.5360 C.3      12 GLL5        0.0000 
     66 CA          2.9310    0.1320  -19.3030 C.3       8 GLP5        0.0000 
     67 CA          9.4593    0.6325  -20.2675 C.3       4 GLC5        0.0000 
     68 CA         11.1260    1.6960  -20.3400 C.3       8 GLP5        0.0000 
     69 CA          9.5448   -3.7430  -18.5325 C.3       4 GLC5        0.0000 
     70 CA         10.2220   -2.3470  -20.0010 C.3      12 GLL5        0.0000 
     71 CA          5.0038   -8.9018  -19.6542 C.3       4 GLC5        0.0000 
     72 CA          6.3750   -8.9250  -21.1330 C.3       8 GLP5        0.0000 
@<TRIPOS>BOND
@<TRIPOS>SUBSTRUCTURE
     1 ALC1       19 GROUP        1 X    ALC  0     ROOT ALC X 1
     2 SEC2       43 GROUP        1 X    SEC  0     **** SEC X 2
     3 LYC4       40 GROUP        1 X    LYC  0     **** LYC X 4
     4 GLC5        1 GROUP        1 X    GLC  0     **** GLC X 6
     5 ALP1       21 GROUP        1 Y    ALP  0     ROOT ALP Y 8
     6 SEP2       45 GROUP        1 Y    SEP  0     **** SEP Y 9
     7 LYP4       42 GROUP        1 Y    LYP  0     **** LYP Y 11
     8 GLP5        3 GROUP        1 Y    GLP  0     **** GLP Y 13
     9 ALL1       20 GROUP        1 Z    ALL  0     ROOT ALL Z 15
    10 SEL2       44 GROUP        1 Z    SEL  0     **** SEL Z 16
    11 LYL4       41 GROUP        1 Z    LYL  0     **** LYL Z 18
    12 GLL5        2 GROUP        1 Z    GLL  0     **** GLL Z 20
@<TRIPOS>SET

