#    Name: 3k2h_LYA_2_ligand
#    Modification time : Mon Mar 24 18:05:38 2014

@<TRIPOS>MOLECULE
3k2h_LYA_2_ligand
   50    52     1     0     0
SMALL
NO_CHARGES


@<TRIPOS>ATOM
      1 C1          6.3680   -1.5870  -19.5360 C.ar      1 LYA514      0.0000 
      2 C2          6.1510   -1.9930  -18.2140 C.ar      1 LYA514      0.0000 
      3 C3          5.4290   -3.1570  -17.9460 C.ar      1 LYA514      0.0000 
      4 C4          4.9450   -3.9490  -19.0030 C.ar      1 LYA514      0.0000 
      5 C5          5.1510   -3.5360  -20.3280 C.ar      1 LYA514      0.0000 
      6 C6          5.8570   -2.3520  -20.5880 C.ar      1 LYA514      0.0000 
      7 C7          7.1530   -0.3060  -19.8000 C.3       1 LYA514      0.0000 
      8 C8          8.4320   -0.5560  -20.5900 C.3       1 LYA514      0.0000 
      9 C9          9.5280   -1.1730  -19.7400 C.2       1 LYA514      0.0000 
     10 C10        10.0740   -0.6480  -18.5550 C.2       1 LYA514      0.0000 
     11 N11        11.0530   -1.4620  -18.0800 N.pl3     1 LYA514      0.0000 
     12 C12        11.1270   -2.4910  -18.9690 C.2       1 LYA514      0.0000 
     13 C13        10.2220   -2.3470  -20.0010 C.2       1 LYA514      0.0000 
     14 C14        10.2110   -3.4220  -21.0350 C.2       1 LYA514      0.0000 
     15 O15         9.4500   -3.4050  -22.0280 O.2       1 LYA514      0.0000 
     16 N16        11.0800   -4.4420  -20.8870 N.2       1 LYA514      0.0000 
     17 C17        11.9500   -4.5090  -19.8350 C.2       1 LYA514      0.0000 
     18 N18        11.9700   -3.5470  -18.8910 N.pl3     1 LYA514      0.0000 
     19 N19        12.8280   -5.5540  -19.7200 N.pl3     1 LYA514      0.0000 
     20 C20         4.1480   -5.1910  -18.6890 C.2       1 LYA514      0.0000 
     21 O21         3.1470   -5.4220  -19.3620 O.2       1 LYA514      0.0000 
     22 N22         4.5140   -5.9960  -17.6830 N.am      1 LYA514      0.0000 
     23 C23         3.7490   -7.1770  -17.3060 C.3       1 LYA514      0.0000 
     24 C24         4.1860   -8.3510  -18.1780 C.3       1 LYA514      0.0000 
     25 C25         3.0790   -9.4060  -18.1730 C.3       1 LYA514      0.0000 
     26 C26         3.5400  -10.8120  -18.5150 C.2       1 LYA514      0.0000 
     27 O27         3.1000  -11.7790  -17.8410 O.co2     1 LYA514      0.0000 
     28 O28         4.3350  -10.9890  -19.4650 O.co2     1 LYA514      0.0000 
     29 C29         4.0180   -7.4930  -15.8720 C.2       1 LYA514      0.0000 
     30 O30         5.1050   -7.0800  -15.4030 O.co2     1 LYA514      0.0000 
     31 O31         3.2080   -8.1950  -15.2220 O.co2     1 LYA514      0.0000 
     32 H           6.5253   -1.4309  -17.4396 H         1 LYA514      0.0000 
     33 H           5.2481   -3.4402  -16.9763 H         1 LYA514      0.0000 
     34 H           4.7873   -4.0968  -21.1023 H         1 LYA514      0.0000 
     35 H           5.9982   -2.0471  -21.5597 H         1 LYA514      0.0000 
     36 H           7.4083    0.1620  -18.8413 H         1 LYA514      0.0000 
     37 H           6.5184    0.3952  -20.3558 H         1 LYA514      0.0000 
     38 H           8.7880    0.3955  -21.0047 H         1 LYA514      0.0000 
     39 H           8.2078   -1.2234  -21.4317 H         1 LYA514      0.0000 
     40 H           9.7759    0.1799  -18.1545 H         1 LYA514      0.0000 
     41 H          11.5705   -1.3419  -17.3027 H         1 LYA514      0.0000 
     42 H          12.6402   -3.6148  -18.0923 H         1 LYA514      0.0000 
     43 H          12.7597   -6.2651  -20.4198 H         1 LYA514      0.0000 
     44 H          13.4604   -5.5143  -18.9464 H         1 LYA514      0.0000 
     45 H           5.3732   -5.8121  -17.1170 H         1 LYA514      0.0000 
     46 H           2.7032   -7.0140  -17.4503 H         1 LYA514      0.0000 
     47 H           5.0925   -8.7803  -17.7773 H         1 LYA514      0.0000 
     48 H           4.3502   -8.0081  -19.1889 H         1 LYA514      0.0000 
     49 H           2.2941   -9.0987  -18.8900 H         1 LYA514      0.0000 
     50 H           2.6031   -9.4147  -17.1740 H         1 LYA514      0.0000 
@<TRIPOS>BOND
     1    2    1 ar   
     2    6    1 ar   
     3    7    1 1    
     4    3    2 ar   
     5   32    2 1    
     6    4    3 ar   
     7   33    3 1    
     8    5    4 ar   
     9   20    4 1    
    10    6    5 ar   
    11   34    5 1    
    12   35    6 1    
    13    8    7 1    
    14   36    7 1    
    15   37    7 1    
    16    9    8 1    
    17   38    8 1    
    18   39    8 1    
    19   10    9 2    
    20   13    9 1    
    21   11   10 1    
    22   40   10 1    
    23   12   11 1    
    24   41   11 1    
    25   13   12 2    
    26   18   12 1    
    27   14   13 1    
    28   15   14 2    
    29   16   14 1    
    30   17   16 2    
    31   18   17 1    
    32   19   17 1    
    33   42   18 1    
    34   43   19 1    
    35   44   19 1    
    36   21   20 2    
    37   22   20 am   
    38   23   22 1    
    39   45   22 1    
    40   24   23 1    
    41   29   23 1    
    42   46   23 1    
    43   25   24 1    
    44   47   24 1    
    45   48   24 1    
    46   26   25 1    
    47   49   25 1    
    48   50   25 1    
    49   27   26 ar   
    50   28   26 ar   
    51   30   29 ar   
    52   31   29 ar   
@<TRIPOS>SUBSTRUCTURE
     1 LYA514      1 GROUP   
@<TRIPOS>SET

