#    Name: 4bb4_32W_1_INTS_M
#    Modification time : Tue Mar 25 07:10:43 2014

@<TRIPOS>MOLECULE
4bb4_32W_1_INTS_M
   62     0     9     0     0
SMALL
NO_CHARGES


@<TRIPOS>ATOM
      1 O          11.1635   13.9575   11.7710 O.2       1 ALC1        0.0000 
      2 O          12.2400   14.5460   11.1980 O.2       7 ALL1        0.0000 
      3 O          10.0870   13.3690   12.3440 O.2       4 ALP1        0.0000 
      4 CA         11.3475   15.2880   14.6085 C.3       3 GLC5        0.0000 
      5 CA         12.2640   17.0930   14.5080 C.3       9 GLL5        0.0000 
      6 CA         10.4310   13.4830   14.7090 C.3       6 GLP5        0.0000 
      7 O          15.6090    8.2355   11.1925 O.2       1 ALC1        0.0000 
      8 O          14.3250    8.4760   11.5280 O.2       7 ALL1        0.0000 
      9 O          16.8930    7.9950   10.8570 O.2       4 ALP1        0.0000 
     10 CA         12.9185    8.6855   13.3435 C.3       3 GLC5        0.0000 
     11 CA         13.5590    7.3910   11.8030 C.3       9 GLL5        0.0000 
     12 CA         12.2780    9.9800   14.8840 C.3       6 GLP5        0.0000 
     13 CA         13.0555    6.3165   13.6785 C.3       3 GLC5        0.0000 
     14 CA         12.5520    5.2420   15.5540 C.3       6 GLP5        0.0000 
     15 CA         15.1960    6.2600   11.0265 C.3       3 GLC5        0.0000 
     16 CA         16.8330    5.1290   10.2500 C.3       6 GLP5        0.0000 
     17 CA         14.1730    8.2305    9.8455 C.3       3 GLC5        0.0000 
     18 CA         14.7870    9.0700    7.8880 C.3       6 GLP5        0.0000 
     19 CA         13.0630    6.4635    9.9385 C.3       3 GLC5        0.0000 
     20 CA         12.5670    5.5360    8.0740 C.3       6 GLP5        0.0000 
     21 CA         15.2300    5.0635   13.7085 C.3       3 GLC5        0.0000 
     22 CA         13.5440    5.2200   12.4340 C.3       9 GLL5        0.0000 
     23 CA         16.9160    4.9070   14.9830 C.3       6 GLP5        0.0000 
     24 CA         15.1885    5.1745   11.3420 C.3       3 GLC5        0.0000 
     25 N          15.6670    5.9935   12.4555 N.am      2 SEC2        0.0000 
     26 N          14.2370    6.3240   12.2610 N.am      8 SEL2        0.0000 
     27 N          17.0970    5.6630   12.6500 N.am      5 SEP2        0.0000 
     28 CA          6.6765   -0.9415   12.3755 C.3       3 GLC5        0.0000 
     29 CA          7.9660    0.7610   12.2140 C.3       9 GLL5        0.0000 
     30 CA          5.3870   -2.6440   12.5370 C.3       6 GLP5        0.0000 
     31 CA          8.5255   -0.9570   12.3800 C.3       3 GLC5        0.0000 
     32 CA          9.0850   -2.6750   12.5460 C.3       6 GLP5        0.0000 
     33 CA          9.5205    0.2260   13.6020 C.3       3 GLC5        0.0000 
     34 CA         11.0750   -0.3090   14.9900 C.3       6 GLP5        0.0000 
     35 CA          7.7830    0.1455   15.6920 C.3       3 GLC5        0.0000 
     36 CA          8.1310    1.4350   14.3820 C.3       9 GLL5        0.0000 
     37 CA          7.4350   -1.1440   17.0020 C.3       6 GLP5        0.0000 
     38 CA         12.3622   12.3230   12.8947 C.3       3 GLC5        0.0000 
     39 CA         12.5240   11.6720   11.0920 C.3       9 GLL5        0.0000 
     40 CA         11.6700   12.5320   14.7900 C.3       6 GLP5        0.0000 
     41 CA         14.8933   10.2220    9.4462 C.3       3 GLC5        0.0000 
     42 CA         14.8840   12.0490   10.9030 C.3       9 GLL5        0.0000 
     43 CA         12.8400   10.0235   13.0595 C.3       3 GLC5        0.0000 
     44 CA         14.0470    9.8120   11.1800 C.3       9 GLL5        0.0000 
     45 CA         14.0945    9.5685    9.5615 C.3       3 GLC5        0.0000 
     46 CA         12.7570   10.3220   11.2900 C.3       9 GLL5        0.0000 
     47 CA         11.6837    5.8905    9.8510 C.3       3 GLC5        0.0000 
     48 CA         11.4950    6.2700   11.7650 C.3       9 GLL5        0.0000 
     49 CA         12.6161    5.3487   13.8899 C.3       3 GLC5        0.0000 
     50 CA          9.4576    6.9287   12.9763 C.3       3 GLC5        0.0000 
     51 CA          8.8250    8.1870   14.2570 C.3       6 GLP5        0.0000 
     52 CA         11.1047    3.9225   10.6073 C.3       3 GLC5        0.0000 
     53 CA          9.3800    5.0960   11.7630 C.3       9 GLL5        0.0000 
     54 CA         12.5290    3.3280    9.2000 C.3       6 GLP5        0.0000 
     55 CA         11.6085    4.5947   13.9693 C.3       3 GLC5        0.0000 
     56 CA         11.3490    3.9570   12.5030 C.3       9 GLL5        0.0000 
     57 CA         12.3120    3.9447   10.8137 C.3       3 GLC5        0.0000 
     58 CA          6.9701    2.6120   12.9357 C.3       3 GLC5        0.0000 
     59 CA          9.1720    2.7720   12.6840 C.3       9 GLL5        0.0000 
     60 CA          5.4860    3.6920   13.6520 C.3       6 GLP5        0.0000 
     61 CA          6.9975    2.8395   13.9290 C.3       3 GLC5        0.0000 
     62 CA          9.8276    0.8681   14.4298 C.3       3 GLC5        0.0000 
@<TRIPOS>BOND
@<TRIPOS>SUBSTRUCTURE
     1 ALC1        1 GROUP        1 X    ALC  0     ROOT ALC X 1
     2 SEC2       25 GROUP        1 X    SEC  0     **** SEC X 2
     3 GLC5        4 GROUP        1 X    GLC  0     **** GLC X 6
     4 ALP1        3 GROUP        1 Y    ALP  0     ROOT ALP Y 8
     5 SEP2       27 GROUP        1 Y    SEP  0     **** SEP Y 9
     6 GLP5        6 GROUP        1 Y    GLP  0     **** GLP Y 13
     7 ALL1        2 GROUP        1 Z    ALL  0     ROOT ALL Z 15
     8 SEL2       26 GROUP        1 Z    SEL  0     **** SEL Z 16
     9 GLL5        5 GROUP        1 Z    GLL  0     **** GLL Z 20
@<TRIPOS>SET

