#    Name: 4bb4_32W_1_ligand
#    Modification time : Tue Mar 25 07:10:43 2014

@<TRIPOS>MOLECULE
4bb4_32W_1_ligand
   51    54     1     0     0
SMALL
NO_CHARGES


@<TRIPOS>ATOM
      1 O1         14.1650   14.6920   10.0410 O.2       1 32W1889     0.0000 
      2 C3         13.3530   14.0190   10.6730 C.2       1 32W1889     0.0000 
      3 N          12.2400   14.5460   11.1980 N.am      1 32W1889     0.0000 
      4 C2         11.8750   15.9530   11.0590 C.3       1 32W1889     0.0000 
      5 C1         12.3970   16.8110   12.1760 C.3       1 32W1889     0.0000 
      6 O          11.8160   16.3560   13.3820 O.3       1 32W1889     0.0000 
      7 C          12.2640   17.0930   14.5080 C.3       1 32W1889     0.0000 
      8 C4         13.5850   12.5560   10.9070 C.ar      1 32W1889     0.0000 
      9 C22        14.8840   12.0490   10.9030 C.ar      1 32W1889     0.0000 
     10 C21        15.1150   10.6990   11.1060 C.ar      1 32W1889     0.0000 
     11 C7         14.0470    9.8120   11.1800 C.ar      1 32W1889     0.0000 
     12 C6         12.7570   10.3220   11.2900 C.ar      1 32W1889     0.0000 
     13 C5         12.5240   11.6720   11.0920 C.ar      1 32W1889     0.0000 
     14 N1         14.3250    8.4760   11.5280 N.pl3     1 32W1889     0.0000 
     15 C8         13.5590    7.3910   11.8030 C.ar      1 32W1889     0.0000 
     16 N3         12.1820    7.4260   11.4960 N.ar      1 32W1889     0.0000 
     17 C15        11.4950    6.2700   11.7650 C.ar      1 32W1889     0.0000 
     18 C10        12.1380    5.1120   12.2700 C.ar      1 32W1889     0.0000 
     19 C9         13.5440    5.2200   12.4340 C.ar      1 32W1889     0.0000 
     20 N2         14.2370    6.3240   12.2610 N.ar      1 32W1889     0.0000 
     21 C14        10.1060    6.2200   11.4910 C.ar      1 32W1889     0.0000 
     22 C13         9.3800    5.0960   11.7630 C.ar      1 32W1889     0.0000 
     23 C12         9.9810    3.9380   12.2660 C.ar      1 32W1889     0.0000 
     24 C11        11.3490    3.9570   12.5030 C.ar      1 32W1889     0.0000 
     25 C16         9.1720    2.7720   12.6840 C.ar      1 32W1889     0.0000 
     26 C20         8.7130    1.8340   11.7660 C.ar      1 32W1889     0.0000 
     27 C19         7.9660    0.7610   12.2140 C.ar      1 32W1889     0.0000 
     28 N4          7.6680    0.5450   13.5000 N.ar      1 32W1889     0.0000 
     29 C18         8.1310    1.4350   14.3820 C.ar      1 32W1889     0.0000 
     30 C17         8.8870    2.5390   14.0300 C.ar      1 32W1889     0.0000 
     31 H          11.5628   13.9591   11.7462 H         1 32W1889     0.0000 
     32 H          10.7719   16.0600   11.0187 H         1 32W1889     0.0000 
     33 H          12.2573   16.3544   10.0984 H         1 32W1889     0.0000 
     34 H          12.1339   17.8503   11.9629 H         1 32W1889     0.0000 
     35 H          13.4869   16.7292   12.1918 H         1 32W1889     0.0000 
     36 H          15.6787   12.6903   10.7467 H         1 32W1889     0.0000 
     37 H          16.0789   10.3487   11.2027 H         1 32W1889     0.0000 
     38 H          11.9758    9.6908   11.5194 H         1 32W1889     0.0000 
     39 H          11.5553   12.0316   11.0806 H         1 32W1889     0.0000 
     40 H          15.4400    8.2801   11.5873 H         1 32W1889     0.0000 
     41 H          14.0376    4.3141   12.7196 H         1 32W1889     0.0000 
     42 H           9.6575    7.0561   11.0802 H         1 32W1889     0.0000 
     43 H           8.3506    5.0867   11.5962 H         1 32W1889     0.0000 
     44 H          11.8212    3.1042   12.8625 H         1 32W1889     0.0000 
     45 H           8.9280    1.9404   10.7702 H         1 32W1889     0.0000 
     46 H           7.6151    0.0756   11.4774 H         1 32W1889     0.0000 
     47 H           7.9176    1.3054   15.4158 H         1 32W1889     0.0000 
     48 H           9.2365    3.1821   14.7463 H         1 32W1889     0.0000 
     49 H          13.2547   17.0254   14.6259 H         1 32W1889     0.0000 
     50 H          12.0441   18.0652   14.4270 H         1 32W1889     0.0000 
     51 H          11.8451   16.7674   15.3556 H         1 32W1889     0.0000 
@<TRIPOS>BOND
     1    2    1 2    
     2    3    2 am   
     3    8    2 1    
     4    4    3 1    
     5   31    3 1    
     6    5    4 1    
     7   32    4 1    
     8   33    4 1    
     9    6    5 1    
    10   34    5 1    
    11   35    5 1    
    12    7    6 1    
    13   49    7 1    
    14   50    7 1    
    15   51    7 1    
    16    9    8 ar   
    17   13    8 ar   
    18   10    9 ar   
    19   36    9 1    
    20   11   10 ar   
    21   37   10 1    
    22   12   11 ar   
    23   14   11 1    
    24   13   12 ar   
    25   38   12 1    
    26   39   13 1    
    27   15   14 1    
    28   40   14 1    
    29   16   15 ar   
    30   20   15 ar   
    31   17   16 ar   
    32   18   17 ar   
    33   21   17 ar   
    34   19   18 ar   
    35   24   18 ar   
    36   20   19 ar   
    37   41   19 1    
    38   22   21 ar   
    39   42   21 1    
    40   23   22 ar   
    41   43   22 1    
    42   24   23 ar   
    43   25   23 1    
    44   44   24 1    
    45   26   25 ar   
    46   30   25 ar   
    47   27   26 ar   
    48   45   26 1    
    49   28   27 ar   
    50   46   27 1    
    51   29   28 ar   
    52   30   29 ar   
    53   47   29 1    
    54   48   30 1    
@<TRIPOS>SUBSTRUCTURE
     1 32W1889     1 GROUP   
@<TRIPOS>SET

