#    Name: 3ftf_SAH_1_INTS_M
#    Modification time : Tue Mar 25 06:27:01 2014

@<TRIPOS>MOLECULE
3ftf_SAH_1_INTS_M
   64     0     9     0     0
SMALL
NO_CHARGES


@<TRIPOS>ATOM
      1 O          12.4940   -5.9845    2.3960 O.2       1 ALC1        0.0000 
      2 O          11.6870   -5.3910    1.1580 O.2       7 ALL1        0.0000 
      3 O          13.3010   -6.5780    3.6340 O.2       4 ALP1        0.0000 
      4 O          10.7415   -4.1185    1.7180 O.2       1 ALC1        0.0000 
      5 O           9.7960   -2.8460    2.2780 O.2       4 ALP1        0.0000 
      6 CA         14.7030   -5.0970   -1.4120 C.3       3 GLC5        0.0000 
      7 CA         13.7400   -4.2380    0.2710 C.3       9 GLL5        0.0000 
      8 CA         15.6660   -5.9560   -3.0950 C.3       6 GLP5        0.0000 
      9 CA         13.6350   -2.8430   -1.3640 C.3       3 GLC5        0.0000 
     10 CA         13.5300   -1.4480   -2.9990 C.3       6 GLP5        0.0000 
     11 CA         12.8060   -4.4870    3.0660 C.3       3 GLC5        0.0000 
     12 CA         14.0350   -3.8710    1.7240 C.3       9 GLL5        0.0000 
     13 CA         11.5770   -5.1030    4.4080 C.3       6 GLP5        0.0000 
     14 CA         17.5930   -3.6895    1.4850 C.3       3 GLC5        0.0000 
     15 CA         15.8080   -3.6370    2.0070 C.3       9 GLL5        0.0000 
     16 CA         19.3780   -3.7420    0.9630 C.3       6 GLP5        0.0000 
     17 N          13.1265   -8.1720   -0.2900 N.am      2 SEC2        0.0000 
     18 N          12.5620   -6.9980   -0.9260 N.am      8 SEL2        0.0000 
     19 N          13.6910   -9.3460    0.3460 N.am      5 SEP2        0.0000 
     20 N          12.3375   -7.8270   -2.2340 N.am      2 SEC2        0.0000 
     21 N          12.1130   -8.6560   -3.5420 N.am      5 SEP2        0.0000 
     22 N          11.5935   -4.6060   -3.6400 N.am      2 SEC2        0.0000 
     23 N          12.3690   -5.4460   -2.3440 N.am      8 SEL2        0.0000 
     24 N          10.8180   -3.7660   -4.9360 N.am      5 SEP2        0.0000 
     25 N          10.8245   -5.6960   -3.0770 N.am      2 SEC2        0.0000 
     26 N           9.2800   -5.9460   -3.8100 N.am      5 SEP2        0.0000 
     27 CA         15.6690   -1.0960    4.2380 C.3       3 GLC5        0.0000 
     28 CA         15.5400   -1.9300    2.5610 C.3       9 GLL5        0.0000 
     29 CA         15.7980   -0.2620    5.9150 C.3       6 GLP5        0.0000 
     30 CA         13.9510    0.2975    1.5565 C.3       3 GLC5        0.0000 
     31 CA         15.4420   -0.8980    1.4390 C.3       9 GLL5        0.0000 
     32 CA         12.4600    1.4930    1.6740 C.3       6 GLP5        0.0000 
     33 CA         19.4170    0.7645    0.7630 C.3       3 GLC5        0.0000 
     34 CA         17.3300    0.3860    0.6310 C.3       9 GLL5        0.0000 
     35 CA         21.5040    1.1430    0.8950 C.3       6 GLP5        0.0000 
     36 O          16.8215    1.6060   -1.2285 O.2       1 ALC1        0.0000 
     37 O          17.7370    0.8960   -0.6180 O.2       7 ALL1        0.0000 
     38 O          15.9060    2.3160   -1.8390 O.2       4 ALP1        0.0000 
     39 CA         14.3675    1.3835    1.4725 C.3       3 GLC5        0.0000 
     40 CA         16.2750    1.2740    1.2710 C.3       9 GLL5        0.0000 
     41 O          17.1215    7.2425    5.2795 O.2       1 ALC1        0.0000 
     42 O          17.3760    6.0030    4.8160 O.2       7 ALL1        0.0000 
     43 O          16.8670    8.4820    5.7430 O.2       4 ALP1        0.0000 
     44 N          14.5545    7.0380    4.2910 N.am      2 SEC2        0.0000 
     45 N          15.2850    5.7660    3.7690 N.am      8 SEL2        0.0000 
     46 N          13.8240    8.3100    4.8130 N.am      5 SEP2        0.0000 
     47 CA         13.0890    4.0275    4.2925 C.3       3 GLC5        0.0000 
     48 CA         14.4460    5.0440    2.9400 C.3       9 GLL5        0.0000 
     49 CA         11.7320    3.0110    5.6450 C.3       6 GLP5        0.0000 
     50 CA         13.4530    3.2685    2.3070 C.3       3 GLC5        0.0000 
     51 CA         13.7545    5.0395    0.9895 C.3       3 GLC5        0.0000 
     52 CA         13.0630    5.0350   -0.9610 C.3       6 GLP5        0.0000 
     53 CA         15.8900    5.8010    1.8060 C.3       3 GLC5        0.0000 
     54 CA         17.3340    6.5580    0.6720 C.3       6 GLP5        0.0000 
     55 CA         13.3095    5.8180    4.1595 C.3       3 GLC5        0.0000 
     56 CA         12.1730    6.5920    5.3790 C.3       6 GLP5        0.0000 
     57 CA         14.3055    2.4535    2.1410 C.3       3 GLC5        0.0000 
     58 CA         16.1510    3.4140    2.6080 C.3       9 GLL5        0.0000 
     59 CA         18.1422   -1.6593    0.0800 C.3       3 GLC5        0.0000 
     60 CA         19.3050   -3.0350   -0.4000 C.3       6 GLP5        0.0000 
     61 CA         16.8350    2.0957    4.3255 C.3       3 GLC5        0.0000 
     62 CA         17.0070    4.1270    3.4380 C.3       9 GLL5        0.0000 
     63 CA         17.0910    0.4210    5.6280 C.3       6 GLP5        0.0000 
     64 CA         16.9014    5.3124    1.9204 C.3       3 GLC5        0.0000 
@<TRIPOS>BOND
@<TRIPOS>SUBSTRUCTURE
     1 ALC1        1 GROUP        1 X    ALC  0     ROOT ALC X 1
     2 SEC2       17 GROUP        1 X    SEC  0     **** SEC X 2
     3 GLC5        6 GROUP        1 X    GLC  0     **** GLC X 6
     4 ALP1        3 GROUP        1 Y    ALP  0     ROOT ALP Y 8
     5 SEP2       19 GROUP        1 Y    SEP  0     **** SEP Y 9
     6 GLP5        8 GROUP        1 Y    GLP  0     **** GLP Y 13
     7 ALL1        2 GROUP        1 Z    ALL  0     ROOT ALL Z 15
     8 SEL2       18 GROUP        1 Z    SEL  0     **** SEL Z 16
     9 GLL5        7 GROUP        1 Z    GLL  0     **** GLL Z 20
@<TRIPOS>SET

