#    Name: 3ftf_SAH_1_ligand
#    Modification time : Tue Mar 25 06:27:01 2014

@<TRIPOS>MOLECULE
3ftf_SAH_1_ligand
   46    48     1     0     0
SMALL
NO_CHARGES


@<TRIPOS>ATOM
      1 N          11.6870   -5.3910    1.1580 N.4       1 SAH501      0.0000 
      2 CA         12.3440   -4.7810   -0.0340 C.3       1 SAH501      0.0000 
      3 CB         13.7400   -4.2380    0.2710 C.3       1 SAH501      0.0000 
      4 CG         14.0350   -3.8710    1.7240 C.3       1 SAH501      0.0000 
      5 SD         15.8080   -3.6370    2.0070 S.3       1 SAH501      0.0000 
      6 C          12.4310   -5.7980   -1.1650 C.2       1 SAH501      0.0000 
      7 O          12.5620   -6.9980   -0.9260 O.co2     1 SAH501      0.0000 
      8 OXT        12.3690   -5.4460   -2.3440 O.co2     1 SAH501      0.0000 
      9 C5'        15.5400   -1.9300    2.5610 C.3       1 SAH501      0.0000 
     10 C4'        15.4420   -0.8980    1.4390 C.3       1 SAH501      0.0000 
     11 O4'        15.4140    0.4070    1.9860 O.3       1 SAH501      0.0000 
     12 C3'        16.6290   -0.9530    0.4890 C.3       1 SAH501      0.0000 
     13 O3'        16.1620   -1.1430   -0.8280 O.3       1 SAH501      0.0000 
     14 C2'        17.3300    0.3860    0.6310 C.3       1 SAH501      0.0000 
     15 O2'        17.7370    0.8960   -0.6180 O.3       1 SAH501      0.0000 
     16 C1'        16.2750    1.2740    1.2710 C.3       1 SAH501      0.0000 
     17 N9         16.8320    2.3030    2.1750 N.pl3     1 SAH501      0.0000 
     18 C8         18.0840    2.3450    2.7380 C.2       1 SAH501      0.0000 
     19 N7         18.1790    3.4570    3.5030 N.2       1 SAH501      0.0000 
     20 C5         17.0070    4.1270    3.4380 C.ar      1 SAH501      0.0000 
     21 C6         16.5660    5.3120    4.0210 C.ar      1 SAH501      0.0000 
     22 N6         17.3760    6.0030    4.8160 N.pl3     1 SAH501      0.0000 
     23 N1         15.2850    5.7660    3.7690 N.ar      1 SAH501      0.0000 
     24 C2         14.4460    5.0440    2.9400 C.ar      1 SAH501      0.0000 
     25 N3         14.8910    3.8670    2.3650 N.ar      1 SAH501      0.0000 
     26 C4         16.1510    3.4140    2.6080 C.ar      1 SAH501      0.0000 
     27 H          11.7325   -3.9477   -0.3935 H         1 SAH501      0.0000 
     28 H          13.9175   -3.3394   -0.3654 H         1 SAH501      0.0000 
     29 H          14.4934   -4.9882   -0.0659 H         1 SAH501      0.0000 
     30 H          13.7913   -4.6458    2.4182 H         1 SAH501      0.0000 
     31 H          13.6285   -2.9274    2.0173 H         1 SAH501      0.0000 
     32 H          16.3838   -1.7682    3.2198 H         1 SAH501      0.0000 
     33 H          14.6312   -2.0183    3.1427 H         1 SAH501      0.0000 
     34 H          14.5456   -1.0921    0.8674 H         1 SAH501      0.0000 
     35 H          17.2854   -1.7199    0.8215 H         1 SAH501      0.0000 
     36 H          18.1266    0.2685    1.3315 H         1 SAH501      0.0000 
     37 H          15.7227    1.7541    0.4638 H         1 SAH501      0.0000 
     38 H          18.7723    1.6861    2.6033 H         1 SAH501      0.0000 
     39 H          18.2813    5.6080    4.9723 H         1 SAH501      0.0000 
     40 H          17.0072    6.8555    5.1862 H         1 SAH501      0.0000 
     41 H          13.4916    5.3817    2.7508 H         1 SAH501      0.0000 
     42 H          12.3551   -5.7842    1.7897 H         1 SAH501      0.0000 
     43 H          11.1560   -4.7188    1.6740 H         1 SAH501      0.0000 
     44 H          11.0591   -6.1255    0.9007 H         1 SAH501      0.0000 
     45 H          16.5320   -0.3727   -1.3473 H         1 SAH501      0.0000 
     46 H          17.2450    1.7610   -0.7170 H         1 SAH501      0.0000 
@<TRIPOS>BOND
     1    2    1 1    
     2   42    1 1    
     3   43    1 1    
     4   44    1 1    
     5    3    2 1    
     6    6    2 1    
     7   27    2 1    
     8    4    3 1    
     9   28    3 1    
    10   29    3 1    
    11    5    4 1    
    12   30    4 1    
    13   31    4 1    
    14    9    5 1    
    15    7    6 ar   
    16    8    6 ar   
    17   10    9 1    
    18   32    9 1    
    19   33    9 1    
    20   11   10 1    
    21   12   10 1    
    22   34   10 1    
    23   16   11 1    
    24   13   12 1    
    25   14   12 1    
    26   35   12 1    
    27   45   13 1    
    28   15   14 1    
    29   16   14 1    
    30   36   14 1    
    31   46   15 1    
    32   17   16 1    
    33   37   16 1    
    34   18   17 1    
    35   26   17 1    
    36   19   18 2    
    37   38   18 1    
    38   20   19 1    
    39   21   20 ar   
    40   26   20 ar   
    41   22   21 1    
    42   23   21 ar   
    43   39   22 1    
    44   40   22 1    
    45   24   23 ar   
    46   25   24 ar   
    47   41   24 1    
    48   26   25 ar   
@<TRIPOS>SUBSTRUCTURE
     1 SAH501      1 GROUP   
@<TRIPOS>SET

