#    Name: 4DA5_1_CAVITY_N1_6.mol2
#    Modification time : Mon Mar 10 13:34:24 2014

@<TRIPOS>MOLECULE
4DA5_1_CAVITY_N1_6.mol2
  125     0     6     0     0
SMALL
NO_CHARGES


@<TRIPOS>ATOM
      1 NZ        -11.4097  -13.3502    4.0023 N.2       3 LYS4        0.0000 
      2 NZ        -10.4584  -13.3983    2.8435 N.2       3 LYS4        0.0000 
      3 CA         -9.5071  -13.4465    1.6848 C.3       5 GLY6        0.0000 
      4 NZ         -8.8997   -9.8059   11.7410 N.2       3 LYS4        0.0000 
      5 NZ        -10.9783  -10.1482   11.9905 N.2       3 LYS4        0.0000 
      6 NZ        -10.0270  -10.1964   10.8317 N.2       3 LYS4        0.0000 
      7 NZ         -9.0757  -10.2445    9.6730 N.2       3 LYS4        0.0000 
      8 NZ        -12.1056  -10.5387   11.0812 N.2       3 LYS4        0.0000 
      9 NZ        -11.1543  -10.5868    9.9225 N.2       3 LYS4        0.0000 
     10 NZ        -10.2030  -10.6350    8.7637 N.2       3 LYS4        0.0000 
     11 CZ         -9.2516  -10.6831    7.6050 C.ar      4 PHE5        0.0000 
     12 O         -14.1842  -10.8810   11.3307 O.2       2 ALA2        0.0000 
     13 N         -13.2329  -10.9292   10.1719 N.2       2 ALA2        0.0000 
     14 O         -12.2816  -10.9773    9.0132 O.2       2 ALA2        0.0000 
     15 NZ        -11.3302  -11.0255    7.8545 N.2       3 LYS4        0.0000 
     16 NZ         -9.4276  -11.1218    5.5370 N.2       3 LYS4        0.0000 
     17 NZ        -11.5062  -11.4641    5.7864 N.2       3 LYS4        0.0000 
     18 NZ         -9.6036  -11.5604    3.4690 N.2       3 LYS4        0.0000 
     19 NZ        -10.7308  -11.9508    2.5597 N.2       3 LYS4        0.0000 
     20 NZ        -10.2995   -8.7489   10.5479 N.2       3 LYS4        0.0000 
     21 NZ        -11.4267   -9.1394    9.6386 N.2       3 LYS4        0.0000 
     22 NZ        -10.4754   -9.1875    8.4799 N.2       3 LYS4        0.0000 
     23 N         -12.5540   -9.5298    8.7294 N.2       2 ALA2        0.0000 
     24 CA         -4.7800  -15.3017   11.4681 C.3       5 GLY6        0.0000 
     25 CA         -5.9073  -15.6922   10.5588 C.3       5 GLY6        0.0000 
     26 CA         -7.9859  -16.0345   10.8083 C.3       5 GLY6        0.0000 
     27 OG         -7.0346  -16.0826    9.6496 O.2       1 SER1        0.0000 
     28 CA        -10.0645  -16.3768   11.0578 C.3       5 GLY6        0.0000 
     29 DU         -9.1132  -16.4249    9.8990 H         6 CUB7        0.0000 
     30 CZ         -8.1619  -16.4731    8.7403 C.ar      4 PHE5        0.0000 
     31 DU        -11.1918  -16.7673   10.1485 H         6 CUB7        0.0000 
     32 DU        -10.2405  -16.8154    8.9897 H         6 CUB7        0.0000 
     33 CZ         -9.2892  -16.8636    7.8310 C.ar      4 PHE5        0.0000 
     34 DU        -12.3191  -17.1577    9.2392 H         6 CUB7        0.0000 
     35 CZ        -11.3678  -17.2059    8.0805 C.ar      4 PHE5        0.0000 
     36 CZ        -10.4164  -17.2540    6.9217 C.ar      4 PHE5        0.0000 
     37 CZ         -9.4651  -17.3022    5.7630 C.ar      4 PHE5        0.0000 
     38 CZ        -12.4950  -17.5963    7.1712 C.ar      4 PHE5        0.0000 
     39 CZ        -11.5437  -17.6445    6.0125 C.ar      4 PHE5        0.0000 
     40 CZ        -10.5924  -17.6926    4.8537 C.ar      4 PHE5        0.0000 
     41 OG         -6.9551  -13.7579   13.5018 O.2       1 SER1        0.0000 
     42 CA         -6.0038  -13.8061   12.3430 C.3       5 GLY6        0.0000 
     43 N          -5.0525  -13.8542   11.1843 N.2       2 ALA2        0.0000 
     44 N          -4.1012  -13.9024   10.0256 N.2       2 ALA2        0.0000 
     45 CA         -8.0824  -14.1484   12.5925 C.3       5 GLY6        0.0000 
     46 CA         -7.1311  -14.1965   11.4337 C.3       5 GLY6        0.0000 
     47 CZ         -6.1798  -14.2447   10.2750 C.ar      4 PHE5        0.0000 
     48 DU         -8.2584  -14.5870   10.5245 H         6 CUB7        0.0000 
     49 CZ         -7.3070  -14.6351    9.3657 C.ar      4 PHE5        0.0000 
     50 DU        -10.3370  -14.9293   10.7739 H         6 CUB7        0.0000 
     51 DU         -9.3856  -14.9775    9.6152 H         6 CUB7        0.0000 
     52 CZ         -8.4343  -15.0256    8.4565 C.ar      4 PHE5        0.0000 
     53 DU        -10.5129  -15.3679    8.7059 H         6 CUB7        0.0000 
     54 CZ         -9.5616  -15.4161    7.5472 C.ar      4 PHE5        0.0000 
     55 DU        -11.6402  -15.7584    7.7966 H         6 CUB7        0.0000 
     56 DU        -10.6889  -15.8065    6.6379 H         6 CUB7        0.0000 
     57 CZ         -9.7376  -15.8547    5.4792 C.ar      4 PHE5        0.0000 
     58 CZ         -8.7862  -15.9028    4.3204 C.ar      4 PHE5        0.0000 
     59 CA        -13.7188  -16.1007    8.0461 C.3       5 GLY6        0.0000 
     60 CZ        -12.7675  -16.1488    6.8874 C.ar      4 PHE5        0.0000 
     61 CZ        -11.8162  -16.1970    5.7286 C.ar      4 PHE5        0.0000 
     62 CZ        -10.8648  -16.2451    4.5699 C.ar      4 PHE5        0.0000 
     63 OG         -9.9135  -16.2933    3.4112 O.2       1 SER1        0.0000 
     64 DU         -6.2762  -12.3586   12.0592 H         6 CUB7        0.0000 
     65 DU         -5.3249  -12.4067   10.9005 H         6 CUB7        0.0000 
     66 OG         -4.3736  -12.4549    9.7417 O.2       1 SER1        0.0000 
     67 DU         -9.3062  -12.6527   13.4674 H         6 CUB7        0.0000 
     68 DU         -8.3549  -12.7009   12.3087 H         6 CUB7        0.0000 
     69 DU         -7.4035  -12.7490   11.1499 H         6 CUB7        0.0000 
     70 OG         -6.4522  -12.7972    9.9912 O.2       1 SER1        0.0000 
     71 CZ         -5.5009  -12.8453    8.8325 C.ar      4 PHE5        0.0000 
     72 DU        -10.4335  -13.0432   12.5581 H         6 CUB7        0.0000 
     73 DU         -8.5308  -13.1395   10.2406 H         6 CUB7        0.0000 
     74 CZ         -7.5795  -13.1877    9.0819 C.ar      4 PHE5        0.0000 
     75 DU        -11.5607  -13.4337   11.6488 H         6 CUB7        0.0000 
     76 DU         -9.6581  -13.5300    9.3314 H         6 CUB7        0.0000 
     77 CZ         -8.7068  -13.5781    8.1726 C.ar      4 PHE5        0.0000 
     78 DU        -10.7854  -13.9204    8.4221 H         6 CUB7        0.0000 
     79 CZ         -9.8340  -13.9686    7.2634 C.ar      4 PHE5        0.0000 
     80 CZ         -8.8827  -14.0167    6.1046 C.ar      4 PHE5        0.0000 
     81 CZ         -7.9314  -14.0649    4.9459 C.ar      4 PHE5        0.0000 
     82 DU        -12.8640  -14.2627    8.6716 H         6 CUB7        0.0000 
     83 DU        -11.9126  -14.3109    7.5128 H         6 CUB7        0.0000 
     84 DU        -10.9613  -14.3590    6.3541 H         6 CUB7        0.0000 
     85 DU        -10.0100  -14.4072    5.1954 H         6 CUB7        0.0000 
     86 CZ         -9.0587  -14.4553    4.0366 C.ar      4 PHE5        0.0000 
     87 CZ         -8.1073  -14.5035    2.8779 C.ar      4 PHE5        0.0000 
     88 O         -13.9912  -14.6532    7.7623 O.2       2 ALA2        0.0000 
     89 O         -13.0399  -14.7014    6.6035 O.2       2 ALA2        0.0000 
     90 CZ        -12.0886  -14.7495    5.4448 C.ar      4 PHE5        0.0000 
     91 CZ        -11.1373  -14.7977    4.2861 C.ar      4 PHE5        0.0000 
     92 OG        -10.1859  -14.8458    3.1273 O.2       1 SER1        0.0000 
     93 NZ         -8.6273  -11.2534   12.0248 N.2       3 LYS4        0.0000 
     94 NZ         -7.6760  -11.3016   10.8661 N.2       3 LYS4        0.0000 
     95 OG         -6.7246  -11.3497    9.7074 O.2       1 SER1        0.0000 
     96 DU        -10.7059  -11.5957   12.2743 H         6 CUB7        0.0000 
     97 DU         -9.7546  -11.6439   11.1156 H         6 CUB7        0.0000 
     98 NZ         -8.8032  -11.6920    9.9568 N.2       3 LYS4        0.0000 
     99 OG         -7.8519  -11.7402    8.7981 O.2       1 SER1        0.0000 
    100 O         -12.7845  -11.9380   12.5238 O.2       2 ALA2        0.0000 
    101 DU        -11.8332  -11.9862   11.3650 H         6 CUB7        0.0000 
    102 DU         -9.9305  -12.0825    9.0476 H         6 CUB7        0.0000 
    103 OG         -8.9792  -12.1306    7.8888 O.2       1 SER1        0.0000 
    104 OG         -8.0279  -12.1788    6.7301 O.2       1 SER1        0.0000 
    105 DU        -12.9605  -12.3766   10.4557 H         6 CUB7        0.0000 
    106 DU        -12.0091  -12.4248    9.2970 H         6 CUB7        0.0000 
    107 DU        -11.0578  -12.4729    8.1383 H         6 CUB7        0.0000 
    108 NZ        -10.1065  -12.5211    6.9795 N.2       3 LYS4        0.0000 
    109 DU         -9.1552  -12.5692    5.8208 H         6 CUB7        0.0000 
    110 CZ         -8.2038  -12.6174    4.6621 C.ar      4 PHE5        0.0000 
    111 O         -13.1364  -12.8153    8.3877 O.2       2 ALA2        0.0000 
    112 O         -12.1851  -12.8634    7.2290 O.2       2 ALA2        0.0000 
    113 O         -11.2338  -12.9116    6.0703 O.2       2 ALA2        0.0000 
    114 NZ        -10.2824  -12.9597    4.9115 N.2       3 LYS4        0.0000 
    115 NZ         -9.3311  -13.0079    3.7528 N.2       3 LYS4        0.0000 
    116 CZ         -8.3798  -13.0560    2.5941 C.ar      4 PHE5        0.0000 
    117 O         -12.3610  -13.3020    5.1610 O.2       2 ALA2        0.0000 
    118 CA        -10.6469  -19.6622   10.7161 C.3       5 GLY6        0.0000 
    119 OG         -7.7135  -17.4820   11.0921 O.2       1 SER1        0.0000 
    120 CA         -9.7921  -17.8243   11.3416 C.3       5 GLY6        0.0000 
    121 OG         -8.8408  -17.8724   10.1828 O.2       1 SER1        0.0000 
    122 CZ         -9.9680  -18.2629    9.2736 C.ar      4 PHE5        0.0000 
    123 CZ         -9.0167  -18.3110    8.1148 C.ar      4 PHE5        0.0000 
    124 CZ        -12.0466  -18.6052    9.5230 C.ar      4 PHE5        0.0000 
    125 CZ        -11.0953  -18.6534    8.3643 C.ar      4 PHE5        0.0000 
@<TRIPOS>BOND
@<TRIPOS>SUBSTRUCTURE
     1 SER1       27 GROUP   
     2 ALA2       12 GROUP   
     3 LYS4        1 GROUP   
     4 PHE5       11 GROUP   
     5 GLY6        3 GROUP   
     6 CUB7       29 GROUP   
@<TRIPOS>SET

