#    Name: 4da5_0H7_1_INTS_M
#    Modification time : Tue Mar 25 09:30:10 2014

@<TRIPOS>MOLECULE
4da5_0H7_1_INTS_M
   46     0     9     0     0
SMALL
NO_CHARGES


@<TRIPOS>ATOM
      1 CA        -12.1365  -15.1655    3.8015 C.3       3 GLC5        0.0000 
      2 CA        -10.8120  -14.0220    5.0430 C.3       9 GLL5        0.0000 
      3 CA        -13.4610  -16.3090    2.5600 C.3       6 GLP5        0.0000 
      4 CA        -12.9925  -11.5370    4.1805 C.3       3 GLC5        0.0000 
      5 CA        -11.2320  -12.6860    4.4020 C.3       9 GLL5        0.0000 
      6 CA        -14.7530  -10.3880    3.9590 C.3       6 GLP5        0.0000 
      7 OD1       -10.7305  -10.9260    3.6315 O.co2     2 ASC3        0.0000 
      8 OD1       -10.1060  -12.1440    3.6070 O.co2     8 ASL3        0.0000 
      9 OD1       -11.3550   -9.7080    3.6560 O.co2     5 ASP3        0.0000 
     10 OD1       -10.4855  -10.5185    4.6365 O.co2     2 ASC3        0.0000 
     11 OD1       -10.8650   -8.8930    5.6660 O.co2     5 ASP3        0.0000 
     12 O         -10.7305  -10.9260    3.6315 O.2       1 ALC1        0.0000 
     13 O         -10.1060  -12.1440    3.6070 O.2       7 ALL1        0.0000 
     14 O         -11.3550   -9.7080    3.6560 O.2       4 ALP1        0.0000 
     15 CA         -8.1410  -10.3630    5.5605 C.3       3 GLC5        0.0000 
     16 CA         -8.9150  -11.9230    4.4600 C.3       9 GLL5        0.0000 
     17 CA         -7.3670   -8.8030    6.6610 C.3       6 GLP5        0.0000 
     18 CA         -7.3730  -14.4325    5.6630 C.3       3 GLC5        0.0000 
     19 CA         -8.3790  -13.2850    4.9510 C.3       9 GLL5        0.0000 
     20 CA         -6.3670  -15.5800    6.3750 C.3       6 GLP5        0.0000 
     21 CA        -11.4300  -15.3720    2.7765 C.3       3 GLC5        0.0000 
     22 CA         -9.3990  -14.4350    2.9930 C.3       9 GLL5        0.0000 
     23 CA         -9.6075  -16.0915    1.9440 C.3       3 GLC5        0.0000 
     24 CA         -9.8160  -17.7480    0.8950 C.3       6 GLP5        0.0000 
     25 CA         -8.6260  -18.6705   11.4765 C.3       3 GLC5        0.0000 
     26 CA         -8.4790  -18.0310    9.6440 C.3       9 GLL5        0.0000 
     27 CA         -8.7730  -19.3100   13.3090 C.3       6 GLP5        0.0000 
     28 CA         -8.6350  -19.9190    9.2425 C.3       3 GLC5        0.0000 
     29 CA         -8.7910  -21.8070    8.8410 C.3       6 GLP5        0.0000 
     30 CA         -7.0715  -18.9425    9.3415 C.3       3 GLC5        0.0000 
     31 CA         -5.6640  -19.8540    9.0390 C.3       6 GLP5        0.0000 
     32 CA        -17.3320  -12.6405    7.4745 C.3       3 GLC5        0.0000 
     33 CA        -16.5060  -14.3680    7.5850 C.3       9 GLL5        0.0000 
     34 CA        -18.1580  -10.9130    7.3640 C.3       6 GLP5        0.0000 
     35 CA        -14.8080  -16.2015    6.0255 C.3       3 GLC5        0.0000 
     36 CA        -13.7050  -14.5880    6.2740 C.3       9 GLL5        0.0000 
     37 CA        -15.9110  -17.8150    5.7770 C.3       6 GLP5        0.0000 
     38 CA         -7.1930  -11.8990    3.7988 C.3       3 GLC5        0.0000 
     39 CA         -5.7390  -11.1940    2.8920 C.3       6 GLP5        0.0000 
     40 CA         -7.7858  -15.3060    4.4463 C.3       3 GLC5        0.0000 
     41 CA         -9.3740  -14.3930    4.5360 C.3       9 GLL5        0.0000 
     42 CA         -6.1850  -16.1980    5.1280 C.3       6 GLP5        0.0000 
     43 CA         -8.1080  -12.8990    1.7812 C.3       3 GLC5        0.0000 
     44 CA         -6.6290  -12.0650    0.8320 C.3       6 GLP5        0.0000 
     45 CA        -15.7763  -16.0297    6.6805 C.3       3 GLC5        0.0000 
     46 CA        -14.7770  -14.1210    7.5830 C.3       9 GLL5        0.0000 
@<TRIPOS>BOND
@<TRIPOS>SUBSTRUCTURE
     1 ALC1       12 GROUP        1 X    ALC  0     ROOT ALC X 1
     2 ASC3        7 GROUP        1 X    ASC  0     **** ASC X 3
     3 GLC5        1 GROUP        1 X    GLC  0     **** GLC X 6
     4 ALP1       14 GROUP        1 Y    ALP  0     ROOT ALP Y 8
     5 ASP3        9 GROUP        1 Y    ASP  0     **** ASP Y 10
     6 GLP5        3 GROUP        1 Y    GLP  0     **** GLP Y 13
     7 ALL1       13 GROUP        1 Z    ALL  0     ROOT ALL Z 15
     8 ASL3        8 GROUP        1 Z    ASL  0     **** ASL Z 17
     9 GLL5        2 GROUP        1 Z    GLL  0     **** GLL Z 20
@<TRIPOS>SET

