#    Name: 4da5_0H7_1_ligand
#    Modification time : Tue Mar 25 09:30:10 2014

@<TRIPOS>MOLECULE
4da5_0H7_1_ligand
   40    43     1     0     0
SMALL
NO_CHARGES


@<TRIPOS>ATOM
      1 O1        -10.2100  -12.7890    7.1080 O.3       1 0H7502      0.0000 
      2 C2        -10.8920  -13.9480    6.6050 C.3       1 0H7502      0.0000 
      3 C3        -10.8120  -14.0220    5.0430 C.3       1 0H7502      0.0000 
      4 C4        -11.2320  -12.6860    4.4020 C.3       1 0H7502      0.0000 
      5 N5        -10.1060  -12.1440    3.6070 N.4       1 0H7502      0.0000 
      6 C6         -8.9150  -11.9230    4.4600 C.3       1 0H7502      0.0000 
      7 C7         -8.3790  -13.2850    4.9510 C.3       1 0H7502      0.0000 
      8 C8         -9.3740  -14.3930    4.5360 C.3       1 0H7502      0.0000 
      9 C9         -9.3990  -14.4350    2.9930 C.3       1 0H7502      0.0000 
     10 C10        -9.7750  -13.0310    2.4680 C.3       1 0H7502      0.0000 
     11 C11       -10.3080  -15.1820    7.1840 C.2       1 0H7502      0.0000 
     12 C12       -10.5590  -16.4160    6.7440 C.2       1 0H7502      0.0000 
     13 C13        -9.9680  -17.4180    7.4730 C.2       1 0H7502      0.0000 
     14 C14        -9.3000  -17.0010    8.5380 C.2       1 0H7502      0.0000 
     15 CL1        -8.4790  -18.0310    9.6440 Cl        1 0H7502      0.0000 
     16 S16        -9.3540  -15.2490    8.6460 S.3       1 0H7502      0.0000 
     17 C17       -12.3220  -13.9020    7.1000 C.2       1 0H7502      0.0000 
     18 C18       -12.7100  -13.4440    8.2990 C.2       1 0H7502      0.0000 
     19 C19       -14.0670  -13.5230    8.5470 C.2       1 0H7502      0.0000 
     20 C20       -14.7770  -14.1210    7.5830 C.2       1 0H7502      0.0000 
     21 CL2       -16.5060  -14.3680    7.5850 Cl        1 0H7502      0.0000 
     22 S22       -13.7050  -14.5880    6.2740 S.3       1 0H7502      0.0000 
     23 H         -11.4910  -14.7909    4.7000 H         1 0H7502      0.0000 
     24 H         -11.5085  -11.9973    5.1965 H         1 0H7502      0.0000 
     25 H         -12.0974  -12.8671    3.7694 H         1 0H7502      0.0000 
     26 H         -10.4156  -11.1662    3.1984 H         1 0H7502      0.0000 
     27 H          -9.1693  -11.3237    5.3292 H         1 0H7502      0.0000 
     28 H          -8.1265  -11.4284    3.9004 H         1 0H7502      0.0000 
     29 H          -8.2931  -13.2686    6.0242 H         1 0H7502      0.0000 
     30 H          -7.4228  -13.4774    4.4949 H         1 0H7502      0.0000 
     31 H          -9.0829  -15.3123    4.9201 H         1 0H7502      0.0000 
     32 H         -10.1379  -15.1457    2.6676 H         1 0H7502      0.0000 
     33 H          -8.4230  -14.7014    2.6277 H         1 0H7502      0.0000 
     34 H          -8.9288  -12.6401    1.9077 H         1 0H7502      0.0000 
     35 H         -10.6268  -13.1352    1.7998 H         1 0H7502      0.0000 
     36 H         -11.1333  -16.6173    5.9433 H         1 0H7502      0.0000 
     37 H         -10.0501  -18.3823    7.2001 H         1 0H7502      0.0000 
     38 H         -12.0759  -13.0667    8.9820 H         1 0H7502      0.0000 
     39 H         -14.4668  -13.1547    9.3895 H         1 0H7502      0.0000 
     40 H          -9.2681  -13.0886    7.2596 H         1 0H7502      0.0000 
@<TRIPOS>BOND
     1    2    1 1    
     2   40    1 1    
     3    3    2 1    
     4   11    2 1    
     5   17    2 1    
     6    4    3 1    
     7    8    3 1    
     8   23    3 1    
     9    5    4 1    
    10   24    4 1    
    11   25    4 1    
    12    6    5 1    
    13   10    5 1    
    14   26    5 1    
    15    7    6 1    
    16   27    6 1    
    17   28    6 1    
    18    8    7 1    
    19   29    7 1    
    20   30    7 1    
    21    9    8 1    
    22   31    8 1    
    23   10    9 1    
    24   32    9 1    
    25   33    9 1    
    26   34   10 1    
    27   35   10 1    
    28   12   11 2    
    29   16   11 1    
    30   13   12 1    
    31   36   12 1    
    32   14   13 2    
    33   37   13 1    
    34   15   14 1    
    35   16   14 1    
    36   18   17 2    
    37   22   17 1    
    38   19   18 1    
    39   38   18 1    
    40   20   19 2    
    41   39   19 1    
    42   21   20 1    
    43   22   20 1    
@<TRIPOS>SUBSTRUCTURE
     1 0H7502      1 GROUP   
@<TRIPOS>SET

