#    Name: 4eb4_D16_2_INTS_M
#    Modification time : Tue Mar 25 10:52:09 2014

@<TRIPOS>MOLECULE
4eb4_D16_2_INTS_M
   63     0     6     0     0
SMALL
NO_CHARGES


@<TRIPOS>ATOM
      1 CA         38.2735   -7.9635   15.5320 C.3       2 GLC5        0.0000 
      2 CA         37.0830   -7.7080   14.1420 C.3       6 GLL5        0.0000 
      3 CA         39.4640   -8.2190   16.9220 C.3       4 GLP5        0.0000 
      4 CA         37.2925   -7.9945   12.0010 C.3       2 GLC5        0.0000 
      5 CA         37.5020   -8.2810    9.8600 C.3       4 GLP5        0.0000 
      6 CA         37.4885   -9.6275   14.2600 C.3       2 GLC5        0.0000 
      7 CA         37.8940  -11.5470   14.3780 C.3       4 GLP5        0.0000 
      8 CA         36.1320   -6.5000   15.0710 C.3       2 GLC5        0.0000 
      9 CA         35.1810   -5.2920   16.0000 C.3       4 GLP5        0.0000 
     10 N          39.2485   -6.0810   13.7655 N.am      1 SEC2        0.0000 
     11 N          38.0310   -5.7150   13.1750 N.am      5 SEL2        0.0000 
     12 N          40.4660   -6.4470   14.3560 N.am      3 SEP2        0.0000 
     13 CA         33.1245   -4.2320   11.7980 C.3       2 GLC5        0.0000 
     14 CA         34.8220   -4.9770   10.7110 C.3       6 GLL5        0.0000 
     15 CA         31.4270   -3.4870   12.8850 C.3       4 GLP5        0.0000 
     16 CA         35.5140   -6.4005    9.7135 C.3       2 GLC5        0.0000 
     17 CA         36.2060   -7.8240    8.7160 C.3       4 GLP5        0.0000 
     18 CA         36.6830   -6.7700   10.7250 C.3       2 GLC5        0.0000 
     19 CA         35.8640   -5.2590   11.5900 C.3       6 GLL5        0.0000 
     20 CA         36.4070   -2.0355    6.6975 C.3       2 GLC5        0.0000 
     21 CA         35.9030   -1.8650    8.8160 C.3       6 GLL5        0.0000 
     22 CA         36.9110   -2.2060    4.5790 C.3       4 GLP5        0.0000 
     23 CA         34.3030   -0.9705    8.8955 C.3       2 GLC5        0.0000 
     24 CA         32.7030   -0.0760    8.9750 C.3       4 GLP5        0.0000 
     25 CA         35.4655   -1.4405   10.9310 C.3       2 GLC5        0.0000 
     26 CA         35.0280   -1.0160   13.0460 C.3       4 GLP5        0.0000 
     27 CA         41.0170    0.1750    8.2750 C.3       2 GLC5        0.0000 
     28 CA         39.8830   -1.2590    7.6810 C.3       6 GLL5        0.0000 
     29 CA         42.1510    1.6090    8.8690 C.3       4 GLP5        0.0000 
     30 CA         42.8315   -2.3945    3.6270 C.3       2 GLC5        0.0000 
     31 CA         43.5240   -3.7920    4.9380 C.3       6 GLL5        0.0000 
     32 CA         42.1390   -0.9970    2.3160 C.3       4 GLP5        0.0000 
     33 N          45.4115   -8.6095    7.7660 N.am      1 SEC2        0.0000 
     34 N          44.0220   -8.2890    6.7810 N.am      5 SEL2        0.0000 
     35 N          46.8010   -8.9300    8.7510 N.am      3 SEP2        0.0000 
     36 N          46.2520   -7.8870    7.8780 N.am      1 SEC2        0.0000 
     37 N          45.7030   -6.8440    7.0050 N.am      5 SEL2        0.0000 
     38 CA         37.0420    0.1785    6.9710 C.3       2 GLC5        0.0000 
     39 CA         37.4170    0.0860    9.0850 C.3       6 GLL5        0.0000 
     40 CA         36.6670    0.2710    4.8570 C.3       4 GLP5        0.0000 
     41 CA         38.7435    1.2700    8.4015 C.3       2 GLC5        0.0000 
     42 CA         40.0700    2.4540    7.7180 C.3       4 GLP5        0.0000 
     43 CA         37.0183   -5.1093    9.5070 C.3       2 GLC5        0.0000 
     44 CA         36.9780   -3.2470   10.6630 C.3       6 GLL5        0.0000 
     45 CA         37.0600   -6.4340    7.9160 C.3       4 GLP5        0.0000 
     46 CA         36.2212   -4.9437    8.8843 C.3       2 GLC5        0.0000 
     47 CA         35.9050   -3.0120    9.8150 C.3       6 GLL5        0.0000 
     48 CA         35.3394   -2.2641   11.5552 C.3       2 GLC5        0.0000 
     49 CA         34.8600   -3.8950    9.8900 C.3       6 GLL5        0.0000 
     50 CA         35.4099   -3.4664   12.5751 C.3       2 GLC5        0.0000 
     51 CA         36.9750   -4.3220   11.5330 C.3       6 GLL5        0.0000 
     52 CA         35.1990   -2.0490   14.0140 C.3       4 GLP5        0.0000 
     53 CA         41.2645   -4.0738    8.0368 C.3       2 GLC5        0.0000 
     54 CA         40.4250   -2.7580    6.9760 C.3       6 GLL5        0.0000 
     55 CA         42.5800   -4.9100    9.0650 C.3       4 GLP5        0.0000 
     56 CA         37.6058   -2.4200    6.2043 C.3       2 GLC5        0.0000 
     57 CA         38.2720   -3.2900    7.6220 C.3       6 GLL5        0.0000 
     58 CA         37.9663   -4.9688    7.6238 C.3       2 GLC5        0.0000 
     59 CA         39.0572   -2.4409    5.6014 C.3       2 GLC5        0.0000 
     60 CA         39.4730   -3.7170    7.0410 C.3       6 GLL5        0.0000 
     61 CA         38.3010   -2.0190    4.0180 C.3       4 GLP5        0.0000 
     62 CA         43.2442   -5.0646    7.2856 C.3       2 GLC5        0.0000 
     63 CA         43.8340   -6.1670    5.6770 C.3       6 GLL5        0.0000 
@<TRIPOS>BOND
@<TRIPOS>SUBSTRUCTURE
     1 SEC2       10 GROUP        1 X    SEC  0     ROOT SEC X 2
     2 GLC5        1 GROUP        1 X    GLC  0     **** GLC X 6
     3 SEP2       12 GROUP        1 Y    SEP  0     ROOT SEP Y 9
     4 GLP5        3 GROUP        1 Y    GLP  0     **** GLP Y 13
     5 SEL2       11 GROUP        1 Z    SEL  0     ROOT SEL Z 16
     6 GLL5        2 GROUP        1 Z    GLL  0     **** GLL Z 20
@<TRIPOS>SET

