#    Name: 4eb4_D16_2_ligand
#    Modification time : Tue Mar 25 10:52:09 2014

@<TRIPOS>MOLECULE
4eb4_D16_2_ligand
   52    54     1     0     0
SMALL
NO_CHARGES


@<TRIPOS>ATOM
      1 N1         35.9070   -6.2860   12.4620 N.pl3     1 D16402      0.0000 
      2 C2         36.9820   -6.5580   13.1630 C.2       1 D16402      0.0000 
      3 CM2        37.0830   -7.7080   14.1420 C.3       1 D16402      0.0000 
      4 N3         38.0310   -5.7150   13.1750 N.2       1 D16402      0.0000 
      5 C4         38.0900   -4.6140   12.4530 C.2       1 D16402      0.0000 
      6 O4         39.1180   -3.8980   12.5440 O.2       1 D16402      0.0000 
      7 C4A        36.9750   -4.3220   11.5330 C.ar      1 D16402      0.0000 
      8 C5         36.9780   -3.2470   10.6630 C.ar      1 D16402      0.0000 
      9 C6         35.9050   -3.0120    9.8150 C.ar      1 D16402      0.0000 
     10 C7         34.8600   -3.8950    9.8900 C.ar      1 D16402      0.0000 
     11 C8         34.8220   -4.9770   10.7110 C.ar      1 D16402      0.0000 
     12 C8A        35.8640   -5.2590   11.5900 C.ar      1 D16402      0.0000 
     13 C9         35.9030   -1.8650    8.8160 C.3       1 D16402      0.0000 
     14 N10        37.2400   -1.3030    8.6290 N.pl3     1 D16402      0.0000 
     15 C11        40.4250   -2.7580    6.9760 C.2       1 D16402      0.0000 
     16 S13        39.8830   -1.2590    7.6810 S.3       1 D16402      0.0000 
     17 C14        38.3290   -1.9780    8.0370 C.2       1 D16402      0.0000 
     18 C15        38.2720   -3.2900    7.6220 C.2       1 D16402      0.0000 
     19 C16        39.4730   -3.7170    7.0410 C.2       1 D16402      0.0000 
     20 C          41.8300   -2.7520    6.4350 C.2       1 D16402      0.0000 
     21 O          42.5990   -1.7900    6.6740 O.2       1 D16402      0.0000 
     22 N          42.2290   -3.7290    5.6330 N.am      1 D16402      0.0000 
     23 CA         43.5240   -3.7920    4.9380 C.3       1 D16402      0.0000 
     24 CB         44.4420   -4.7510    5.7330 C.3       1 D16402      0.0000 
     25 CG         43.8340   -6.1670    5.6770 C.3       1 D16402      0.0000 
     26 CD         44.5720   -7.1610    6.5560 C.2       1 D16402      0.0000 
     27 OE1        44.0220   -8.2890    6.7810 O.co2     1 D16402      0.0000 
     28 OE2        45.7030   -6.8440    7.0050 O.co2     1 D16402      0.0000 
     29 CT         43.3530   -4.2550    3.5000 C.2       1 D16402      0.0000 
     30 O1         42.2480   -4.7400    3.1560 O.co2     1 D16402      0.0000 
     31 O2         44.3010   -4.1400    2.6660 O.co2     1 D16402      0.0000 
     32 CP1        37.4170    0.0860    9.0850 C.3       1 D16402      0.0000 
     33 H          35.0363   -6.8838   12.5736 H         1 D16402      0.0000 
     34 H          37.7927   -2.6062   10.6425 H         1 D16402      0.0000 
     35 H          34.0179   -3.7162    9.2565 H         1 D16402      0.0000 
     36 H          33.9999   -5.6196   10.6931 H         1 D16402      0.0000 
     37 H          35.2055   -1.0933    9.1781 H         1 D16402      0.0000 
     38 H          35.5033   -2.2403    7.8607 H         1 D16402      0.0000 
     39 H          37.4901   -3.8668    7.7163 H         1 D16402      0.0000 
     40 H          39.5907   -4.6463    6.7135 H         1 D16402      0.0000 
     41 H          41.5972   -4.5675    5.4385 H         1 D16402      0.0000 
     42 H          43.9902   -2.8172    4.9445 H         1 D16402      0.0000 
     43 H          44.4944   -4.4242    6.7559 H         1 D16402      0.0000 
     44 H          45.4177   -4.7624    5.2817 H         1 D16402      0.0000 
     45 H          43.8525   -6.5141    4.6365 H         1 D16402      0.0000 
     46 H          42.7845   -6.1091    5.9912 H         1 D16402      0.0000 
     47 H          37.9814   -7.7454   14.5796 H         1 D16402      0.0000 
     48 H          36.4040   -7.6346   14.8725 H         1 D16402      0.0000 
     49 H          36.9379   -8.5905   13.6946 H         1 D16402      0.0000 
     50 H          38.3502    0.4111    8.9318 H         1 D16402      0.0000 
     51 H          36.8051    0.7151    8.6057 H         1 D16402      0.0000 
     52 H          37.2297    0.1827   10.0625 H         1 D16402      0.0000 
@<TRIPOS>BOND
     1    2    1 1    
     2   12    1 1    
     3   33    1 1    
     4    3    2 1    
     5    4    2 2    
     6   47    3 1    
     7   48    3 1    
     8   49    3 1    
     9    5    4 1    
    10    6    5 2    
    11    7    5 1    
    12    8    7 ar   
    13   12    7 ar   
    14    9    8 ar   
    15   34    8 1    
    16   10    9 ar   
    17   13    9 1    
    18   11   10 ar   
    19   35   10 1    
    20   12   11 ar   
    21   36   11 1    
    22   14   13 1    
    23   37   13 1    
    24   38   13 1    
    25   17   14 1    
    26   32   14 1    
    27   16   15 1    
    28   19   15 2    
    29   20   15 1    
    30   17   16 1    
    31   18   17 2    
    32   19   18 1    
    33   39   18 1    
    34   40   19 1    
    35   21   20 2    
    36   22   20 am   
    37   23   22 1    
    38   41   22 1    
    39   24   23 1    
    40   29   23 1    
    41   42   23 1    
    42   25   24 1    
    43   43   24 1    
    44   44   24 1    
    45   26   25 1    
    46   45   25 1    
    47   46   25 1    
    48   27   26 ar   
    49   28   26 ar   
    50   30   29 ar   
    51   31   29 ar   
    52   50   32 1    
    53   51   32 1    
    54   52   32 1    
@<TRIPOS>SUBSTRUCTURE
     1 D16402      1 GROUP   
@<TRIPOS>SET

