#    Name: 1hos_PHP_1_INTS_M
#    Modification time : Tue Mar 25 05:38:44 2014

@<TRIPOS>MOLECULE
1hos_PHP_1_INTS_M
   96     0     9     0     0
SMALL
NO_CHARGES


@<TRIPOS>ATOM
      1 N         -12.8985   16.7475   33.9265 N.am      2 SEC2        0.0000 
      2 N         -12.5370   15.2660   33.2010 N.am      8 SEL2        0.0000 
      3 N         -13.2600   18.2290   34.6520 N.am      5 SEP2        0.0000 
      4 O         -10.3205   12.9610   32.3390 O.2       1 ALC1        0.0000 
      5 O         -10.6320   14.4110   32.3710 O.2       7 ALL1        0.0000 
      6 O         -10.0090   11.5110   32.3070 O.2       4 ALP1        0.0000 
      7 CA        -11.1770   17.3805   32.2975 C.3       3 GLC5        0.0000 
      8 CA        -10.1320   15.6830   31.9370 C.3       9 GLL5        0.0000 
      9 CA        -12.2220   19.0780   32.6580 C.3       6 GLP5        0.0000 
     10 CA         -7.3700   14.4775   32.4235 C.3       3 GLC5        0.0000 
     11 CA         -8.8190   16.0070   32.6870 C.3       9 GLL5        0.0000 
     12 CA         -5.9210   12.9480   32.1600 C.3       6 GLP5        0.0000 
     13 CA         -6.4395   17.5665   33.2380 C.3       3 GLC5        0.0000 
     14 CA         -8.1430   17.1840   32.0580 C.3       9 GLL5        0.0000 
     15 CA         -4.7360   17.9490   34.4180 C.3       6 GLP5        0.0000 
     16 CA         -6.8425   18.1855   31.5740 C.3       3 GLC5        0.0000 
     17 CA         -5.5420   19.1870   31.0900 C.3       6 GLP5        0.0000 
     18 CA         -9.5335   17.0700   36.1055 C.3       3 GLC5        0.0000 
     19 CA         -9.1020   16.5270   34.1000 C.3       9 GLL5        0.0000 
     20 CA         -9.9650   17.6130   38.1110 C.3       6 GLP5        0.0000 
     21 O         -11.9840   16.8830   30.0560 O.2       1 ALC1        0.0000 
     22 O         -10.6720   16.0660   29.5990 O.2       7 ALL1        0.0000 
     23 O         -13.2960   17.7000   30.5130 O.2       4 ALP1        0.0000 
     24 CA        -15.1695   16.0175   28.2440 C.3       3 GLC5        0.0000 
     25 CA        -13.8110   14.6140   29.0700 C.3       9 GLL5        0.0000 
     26 CA        -16.5280   17.4210   27.4180 C.3       6 GLP5        0.0000 
     27 CA        -11.0015   12.3810   26.5820 C.3       3 GLC5        0.0000 
     28 CA        -12.1110   13.1780   28.1650 C.3       9 GLL5        0.0000 
     29 CA         -9.8920   11.5840   24.9990 C.3       6 GLP5        0.0000 
     30 O          -8.5380   18.8380   25.3500 O.2       1 ALC1        0.0000 
     31 O          -8.3910   17.3450   25.6990 O.2       7 ALL1        0.0000 
     32 O          -8.6850   20.3310   25.0010 O.2       4 ALP1        0.0000 
     33 CA         -5.7335   20.9345   26.7725 C.3       3 GLC5        0.0000 
     34 CA         -5.4620   18.8730   26.2520 C.3       9 GLL5        0.0000 
     35 CA         -6.0050   22.9960   27.2930 C.3       6 GLP5        0.0000 
     36 O          -5.7150   15.5095   23.0930 O.2       1 ALC1        0.0000 
     37 O          -6.6320   16.6110   23.1420 O.2       7 ALL1        0.0000 
     38 O          -4.7980   14.4080   23.0440 O.2       4 ALP1        0.0000 
     39 CA         -9.1970   18.2505   23.1085 C.3       3 GLC5        0.0000 
     40 CA         -8.0490   16.4870   23.4280 C.3       9 GLL5        0.0000 
     41 CA        -10.3450   20.0140   22.7890 C.3       6 GLP5        0.0000 
     42 CA        -10.0445   13.4565   24.0610 C.3       3 GLC5        0.0000 
     43 CA        -10.1970   15.3290   23.1230 C.3       9 GLL5        0.0000 
     44 CA        -10.8995   17.2915   22.8395 C.3       3 GLC5        0.0000 
     45 CA        -11.6020   19.2540   22.5560 C.3       6 GLP5        0.0000 
     46 CA        -11.6250   14.2155   22.1245 C.3       3 GLC5        0.0000 
     47 CA        -13.0530   13.1020   21.1260 C.3       6 GLP5        0.0000 
     48 CA        -12.1210   14.8555   23.6130 C.3       3 GLC5        0.0000 
     49 CA        -14.0450   14.3820   24.1030 C.3       6 GLP5        0.0000 
     50 CA         -8.8085   13.5605   20.4450 C.3       3 GLC5        0.0000 
     51 CA         -8.5050   15.1430   21.3500 C.3       9 GLL5        0.0000 
     52 CA         -9.1120   11.9780   19.5400 C.3       6 GLP5        0.0000 
     53 N          -7.9525   19.5820   21.5335 N.am      2 SEC2        0.0000 
     54 N          -6.8680   18.6750   22.2980 N.am      8 SEL2        0.0000 
     55 N          -9.0370   20.4890   20.7690 N.am      5 SEP2        0.0000 
     56 CA        -10.9712    9.5980   32.6750 C.3       3 GLC5        0.0000 
     57 CA        -12.8830   10.4570   32.3670 C.3       9 GLL5        0.0000 
     58 CA         -8.9890    9.4230   33.0270 C.3       6 GLP5        0.0000 
     59 CA         -7.6178   15.0200   34.4892 C.3       3 GLC5        0.0000 
     60 CA         -6.2750   13.7730   35.5850 C.3       6 GLP5        0.0000 
     61 CA         -9.8362   18.1436   33.0051 C.3       3 GLC5        0.0000 
     62 CA        -10.8810   19.7260   32.7740 C.3       6 GLP5        0.0000 
     63 CA        -13.2153   14.7085   26.0140 C.3       3 GLC5        0.0000 
     64 CA        -12.0690   15.6350   27.5810 C.3       9 GLL5        0.0000 
     65 CA        -14.9458   13.8422   27.7712 C.3       3 GLC5        0.0000 
     66 CA        -12.7020   14.4350   28.2690 C.3       9 GLL5        0.0000 
     67 CA        -16.6350   13.1600   26.8730 C.3       6 GLP5        0.0000 
     68 CA        -10.7572   11.9370   29.1260 C.3       3 GLC5        0.0000 
     69 CA         -9.1460   11.2300   29.7340 C.3       6 GLP5        0.0000 
     70 CA        -15.3263   13.0415   28.2958 C.3       3 GLC5        0.0000 
     71 CA        -13.7230   12.3040   29.6690 C.3       9 GLL5        0.0000 
     72 CA        -13.9192   10.3945   28.6300 C.3       3 GLC5        0.0000 
     73 CA        -14.6640    8.5820   27.9900 C.3       6 GLP5        0.0000 
     74 CA         -6.1645   18.7680   29.2873 C.3       3 GLC5        0.0000 
     75 CA         -7.5110   18.4950   27.6650 C.3       9 GLL5        0.0000 
     76 CA         -5.1517   18.0950   29.4175 C.3       3 GLC5        0.0000 
     77 CA         -4.1320   16.8220   27.5380 C.3       9 GLL5        0.0000 
     78 CA         -4.6557   15.8115   28.9655 C.3       3 GLC5        0.0000 
     79 CA         -4.5500   14.6200   30.1860 C.3       6 GLP5        0.0000 
     80 CA         -2.0568   16.9400   27.1585 C.3       3 GLC5        0.0000 
     81 CA         -0.2770   16.7310   27.3060 C.3       6 GLP5        0.0000 
     82 CA         -2.9705   19.4055   26.6090 C.3       3 GLC5        0.0000 
     83 CA         -3.5410   17.4760   26.4840 C.3       9 GLL5        0.0000 
     84 CA         -1.7550   20.7300   26.9510 C.3       6 GLP5        0.0000 
     85 CA         -4.6376   15.3513   26.3287 C.3       3 GLC5        0.0000 
     86 CA         -5.1240   13.4630   25.5430 C.3       6 GLP5        0.0000 
     87 CA         -8.1890   13.4415   22.5690 C.3       3 GLC5        0.0000 
     88 CA         -8.7050   15.2370   22.8400 C.3       9 GLL5        0.0000 
     89 CA         -7.7730   11.6930   23.0430 C.3       6 GLP5        0.0000 
     90 CA         -3.3855   14.7295   22.0910 C.3       3 GLC5        0.0000 
     91 CA         -3.9600   16.8860   21.6550 C.3       9 GLL5        0.0000 
     92 CA         -3.4990   12.5900   22.1820 C.3       6 GLP5        0.0000 
     93 CA         -0.4041   16.6149   25.2958 C.3       3 GLC5        0.0000 
     94 CA         -0.0770   16.7810   23.5640 C.3       9 GLL5        0.0000 
     95 CA         -2.3798   14.1167   22.4692 C.3       3 GLC5        0.0000 
     96 CA         -0.6390   15.6240   23.0590 C.3       9 GLL5        0.0000 
@<TRIPOS>BOND
@<TRIPOS>SUBSTRUCTURE
     1 ALC1        4 GROUP        1 X    ALC  0     ROOT ALC X 1
     2 SEC2        1 GROUP        1 X    SEC  0     **** SEC X 2
     3 GLC5        7 GROUP        1 X    GLC  0     **** GLC X 6
     4 ALP1        6 GROUP        1 Y    ALP  0     ROOT ALP Y 8
     5 SEP2        3 GROUP        1 Y    SEP  0     **** SEP Y 9
     6 GLP5        9 GROUP        1 Y    GLP  0     **** GLP Y 13
     7 ALL1        5 GROUP        1 Z    ALL  0     ROOT ALL Z 15
     8 SEL2        2 GROUP        1 Z    SEL  0     **** SEL Z 16
     9 GLL5        8 GROUP        1 Z    GLL  0     **** GLL Z 20
@<TRIPOS>SET

