#    Name: 1hos_PHP_1_ligand
#    Modification time : Tue Mar 25 05:38:44 2014

@<TRIPOS>MOLECULE
1hos_PHP_1_ligand
  105   108     1     0     0
SMALL
NO_CHARGES


@<TRIPOS>ATOM
      1 C1        -11.8060   14.2810   32.9730 C.2       1 PHP400      0.0000 
      2 O1        -12.5370   15.2660   33.2010 O.2       1 PHP400      0.0000 
      3 OA1       -12.1400   13.0310   33.3080 O.3       1 PHP400      0.0000 
      4 CB1       -13.5450   12.6790   33.3440 C.3       1 PHP400      0.0000 
      5 CG1       -13.6900   11.1780   33.2350 C.ar      1 PHP400      0.0000 
      6 CDB       -12.8830   10.4570   32.3670 C.ar      1 PHP400      0.0000 
      7 CDL       -14.6320   10.5430   34.0160 C.ar      1 PHP400      0.0000 
      8 CEB       -13.0240    9.0890   32.2790 C.ar      1 PHP400      0.0000 
      9 CEL       -14.7660    9.1800   33.9230 C.ar      1 PHP400      0.0000 
     10 CZ1       -13.9670    8.4550   33.0610 C.ar      1 PHP400      0.0000 
     11 N2        -10.6320   14.4110   32.3710 N.am      1 PHP400      0.0000 
     12 CA2       -10.1320   15.6830   31.9370 C.3       1 PHP400      0.0000 
     13 CB2        -8.8190   16.0070   32.6870 C.3       1 PHP400      0.0000 
     14 CGL        -8.1430   17.1840   32.0580 C.3       1 PHP400      0.0000 
     15 CGM        -9.1020   16.5270   34.1000 C.3       1 PHP400      0.0000 
     16 C2         -9.9450   15.3550   30.4590 C.2       1 PHP400      0.0000 
     17 O2         -9.1700   14.4630   30.1010 O.2       1 PHP400      0.0000 
     18 N3        -10.6720   16.0660   29.5990 N.am      1 PHP400      0.0000 
     19 CA3       -10.6500   15.9040   28.1450 C.3       1 PHP400      0.0000 
     20 CB3       -12.0690   15.6350   27.5810 C.3       1 PHP400      0.0000 
     21 CG3       -12.7020   14.4350   28.2690 C.ar      1 PHP400      0.0000 
     22 CDD       -13.8110   14.6140   29.0700 C.ar      1 PHP400      0.0000 
     23 CDN       -12.1110   13.1780   28.1650 C.ar      1 PHP400      0.0000 
     24 CED       -14.3120   13.5420   29.7680 C.ar      1 PHP400      0.0000 
     25 CEN       -12.6260   12.1100   28.8710 C.ar      1 PHP400      0.0000 
     26 CZ3       -13.7230   12.3040   29.6690 C.ar      1 PHP400      0.0000 
     27 P3        -10.1060   17.5440   27.6070 P.3       1 PHP400      0.0000 
     28 O3        -10.3760   18.5240   28.6760 O.co2     1 PHP400      0.0000 
     29 O3'       -10.8580   18.0890   26.4480 O.co2     1 PHP400      0.0000 
     30 N4         -8.3910   17.3450   25.6990 N.am      1 PHP400      0.0000 
     31 CA4        -8.3750   17.3260   27.1500 C.3       1 PHP400      0.0000 
     32 CB4        -7.5110   18.4950   27.6650 C.3       1 PHP400      0.0000 
     33 CG4        -6.0630   18.2030   27.3040 C.ar      1 PHP400      0.0000 
     34 CDE        -5.4620   18.8730   26.2520 C.ar      1 PHP400      0.0000 
     35 CDO        -5.3910   17.1840   27.9520 C.ar      1 PHP400      0.0000 
     36 CEE        -4.2000   18.4990   25.8480 C.ar      1 PHP400      0.0000 
     37 CEO        -4.1320   16.8220   27.5380 C.ar      1 PHP400      0.0000 
     38 CZ4        -3.5410   17.4760   26.4840 C.ar      1 PHP400      0.0000 
     39 N5         -6.6320   16.6110   23.1420 N.am      1 PHP400      0.0000 
     40 CA5        -8.0490   16.4870   23.4280 C.3       1 PHP400      0.0000 
     41 CB5        -8.7050   15.2370   22.8400 C.3       1 PHP400      0.0000 
     42 CGF       -10.1970   15.3290   23.1230 C.3       1 PHP400      0.0000 
     43 CGG        -8.5050   15.1430   21.3500 C.3       1 PHP400      0.0000 
     44 C5         -7.9900   16.3320   24.9310 C.2       1 PHP400      0.0000 
     45 O5         -7.5580   15.2850   25.4050 O.2       1 PHP400      0.0000 
     46 CB6        -3.9600   16.8860   21.6550 C.3       1 PHP400      0.0000 
     47 CG6        -2.5840   16.8520   22.3450 C.ar      1 PHP400      0.0000 
     48 CDG        -2.0150   18.0070   22.8560 C.ar      1 PHP400      0.0000 
     49 CEG        -0.7700   17.9660   23.4600 C.ar      1 PHP400      0.0000 
     50 CEQ        -0.6390   15.6240   23.0590 C.ar      1 PHP400      0.0000 
     51 CDQ        -1.8820   15.6630   22.4540 C.ar      1 PHP400      0.0000 
     52 CZ6        -0.0770   16.7810   23.5640 C.ar      1 PHP400      0.0000 
     53 OA6        -4.8250   17.8490   22.3380 O.3       1 PHP400      0.0000 
     54 C6         -6.1340   17.7180   22.5890 C.2       1 PHP400      0.0000 
     55 O6         -6.8680   18.6750   22.2980 O.2       1 PHP400      0.0000 
     56 H         -14.0874   13.1414   32.5144 H         1 PHP400      0.0000 
     57 H         -14.0082   13.0056   34.2794 H         1 PHP400      0.0000 
     58 H         -12.1827   10.9459   31.7926 H         1 PHP400      0.0000 
     59 H         -15.2236   11.0842   34.6573 H         1 PHP400      0.0000 
     60 H         -12.4328    8.5460   31.6374 H         1 PHP400      0.0000 
     61 H         -15.4705    8.6883   34.5021 H         1 PHP400      0.0000 
     62 H         -14.0772    7.4271   33.0017 H         1 PHP400      0.0000 
     63 H         -10.0144   13.5844   32.1850 H         1 PHP400      0.0000 
     64 H         -10.8431   16.4295   32.0452 H         1 PHP400      0.0000 
     65 H          -8.1829   15.1923   32.7285 H         1 PHP400      0.0000 
     66 H         -11.3355   16.8221   29.9443 H         1 PHP400      0.0000 
     67 H          -9.9258   15.2901   27.7878 H         1 PHP400      0.0000 
     68 H         -11.9885   15.4472   26.5140 H         1 PHP400      0.0000 
     69 H         -12.6806   16.5179   27.7446 H         1 PHP400      0.0000 
     70 H         -14.2542   15.5375   29.1417 H         1 PHP400      0.0000 
     71 H         -11.2878   13.0512   27.5581 H         1 PHP400      0.0000 
     72 H         -15.1439   13.6679   30.3765 H         1 PHP400      0.0000 
     73 H         -12.1893   11.1828   28.7963 H         1 PHP400      0.0000 
     74 H         -14.1162   11.5056   30.2072 H         1 PHP400      0.0000 
     75 H          -8.7527   18.2424   25.2680 H         1 PHP400      0.0000 
     76 H          -8.1283   16.4157   27.5606 H         1 PHP400      0.0000 
     77 H          -7.6156   18.5650   28.7337 H         1 PHP400      0.0000 
     78 H          -7.8314   19.4052   27.1886 H         1 PHP400      0.0000 
     79 H          -5.9550   19.6402   25.7803 H         1 PHP400      0.0000 
     80 H          -5.8373   16.6980   28.7453 H         1 PHP400      0.0000 
     81 H          -3.7460   18.9939   25.0586 H         1 PHP400      0.0000 
     82 H          -3.6293   16.0576   28.0194 H         1 PHP400      0.0000 
     83 H          -2.5952   17.1960   26.1685 H         1 PHP400      0.0000 
     84 H          -6.0387   15.7975   23.3905 H         1 PHP400      0.0000 
     85 H          -8.5772   17.3533   23.2023 H         1 PHP400      0.0000 
     86 H          -8.3175   14.3720   23.3242 H         1 PHP400      0.0000 
     87 H          -4.3822   15.8825   21.6934 H         1 PHP400      0.0000 
     88 H          -3.8086   17.1643   20.6127 H         1 PHP400      0.0000 
     89 H          -2.5228   18.9036   22.7858 H         1 PHP400      0.0000 
     90 H          -0.3578   18.8393   23.8372 H         1 PHP400      0.0000 
     91 H          -0.1307   14.7291   23.1332 H         1 PHP400      0.0000 
     92 H          -2.2951   14.7900   22.0763 H         1 PHP400      0.0000 
     93 H           0.8469   16.7547   24.0112 H         1 PHP400      0.0000 
     94 H          -7.2873   17.4127   32.5222 H         1 PHP400      0.0000 
     95 H          -7.9196   17.0147   31.0981 H         1 PHP400      0.0000 
     96 H          -8.7187   18.0012   32.0852 H         1 PHP400      0.0000 
     97 H          -8.2585   16.7377   34.5941 H         1 PHP400      0.0000 
     98 H          -9.6497   17.3635   34.0851 H         1 PHP400      0.0000 
     99 H          -9.6036   15.8579   34.6484 H         1 PHP400      0.0000 
    100 H         -10.3867   15.3772   24.1037 H         1 PHP400      0.0000 
    101 H         -10.6049   16.1409   22.7053 H         1 PHP400      0.0000 
    102 H         -10.6920   14.5363   22.7673 H         1 PHP400      0.0000 
    103 H          -7.5358   15.1005   21.1073 H         1 PHP400      0.0000 
    104 H          -8.9389   14.3271   20.9678 H         1 PHP400      0.0000 
    105 H          -8.8923   15.9318   20.8728 H         1 PHP400      0.0000 
@<TRIPOS>BOND
     1    2    1 2    
     2    3    1 1    
     3   11    1 am   
     4    4    3 1    
     5    5    4 1    
     6   56    4 1    
     7   57    4 1    
     8    6    5 ar   
     9    7    5 ar   
    10    8    6 ar   
    11   58    6 1    
    12    9    7 ar   
    13   59    7 1    
    14   10    8 ar   
    15   60    8 1    
    16   10    9 ar   
    17   61    9 1    
    18   62   10 1    
    19   12   11 1    
    20   63   11 1    
    21   13   12 1    
    22   16   12 1    
    23   64   12 1    
    24   14   13 1    
    25   15   13 1    
    26   65   13 1    
    27   94   14 1    
    28   95   14 1    
    29   96   14 1    
    30   97   15 1    
    31   98   15 1    
    32   99   15 1    
    33   17   16 2    
    34   18   16 am   
    35   19   18 1    
    36   66   18 1    
    37   20   19 1    
    38   27   19 1    
    39   67   19 1    
    40   21   20 1    
    41   68   20 1    
    42   69   20 1    
    43   22   21 ar   
    44   23   21 ar   
    45   24   22 ar   
    46   70   22 1    
    47   25   23 ar   
    48   71   23 1    
    49   26   24 ar   
    50   72   24 1    
    51   26   25 ar   
    52   73   25 1    
    53   74   26 1    
    54   28   27 ar   
    55   29   27 ar   
    56   31   27 1    
    57   31   30 1    
    58   44   30 am   
    59   75   30 1    
    60   32   31 1    
    61   76   31 1    
    62   33   32 1    
    63   77   32 1    
    64   78   32 1    
    65   34   33 ar   
    66   35   33 ar   
    67   36   34 ar   
    68   79   34 1    
    69   37   35 ar   
    70   80   35 1    
    71   38   36 ar   
    72   81   36 1    
    73   38   37 ar   
    74   82   37 1    
    75   83   38 1    
    76   40   39 1    
    77   54   39 am   
    78   84   39 1    
    79   41   40 1    
    80   44   40 1    
    81   85   40 1    
    82   42   41 1    
    83   43   41 1    
    84   86   41 1    
    85  100   42 1    
    86  101   42 1    
    87  102   42 1    
    88  103   43 1    
    89  104   43 1    
    90  105   43 1    
    91   45   44 2    
    92   47   46 1    
    93   53   46 1    
    94   87   46 1    
    95   88   46 1    
    96   48   47 ar   
    97   51   47 ar   
    98   49   48 ar   
    99   89   48 1    
   100   52   49 ar   
   101   90   49 1    
   102   51   50 ar   
   103   52   50 ar   
   104   91   50 1    
   105   92   51 1    
   106   93   52 1    
   107   54   53 1    
   108   55   54 2    
@<TRIPOS>SUBSTRUCTURE
     1 PHP400      1 GROUP   
@<TRIPOS>SET

