#    Name: 3bts_NAD_2_INTS_M
#    Modification time : Mon Mar 24 20:04:11 2014

@<TRIPOS>MOLECULE
3bts_NAD_2_INTS_M
   88     0     9     0     0
SMALL
NO_CHARGES


@<TRIPOS>ATOM
      1 N          24.9425   17.9325   34.1450 N.am      2 SEC2        0.0000 
      2 N          26.2820   17.9690   33.2260 N.am      8 SEL2        0.0000 
      3 N          23.6030   17.8960   35.0640 N.am      5 SEP2        0.0000 
      4 CA         24.6120   15.6555   32.8410 C.3       3 GLC5        0.0000 
      5 CA         26.4190   15.3260   31.8960 C.3       9 GLL5        0.0000 
      6 CA         22.8050   15.9850   33.7860 C.3       6 GLP5        0.0000 
      7 CA         27.9150   14.1385   29.1400 C.3       3 GLC5        0.0000 
      8 CA         26.5810   15.4500   30.3900 C.3       9 GLL5        0.0000 
      9 CA         29.2490   12.8270   27.8900 C.3       6 GLP5        0.0000 
     10 CA         29.6450   17.1160   29.7500 C.3       3 GLC5        0.0000 
     11 CA         27.5220   16.5770   29.9620 C.3       9 GLL5        0.0000 
     12 CA         31.7680   17.6550   29.5380 C.3       6 GLP5        0.0000 
     13 N          29.5425   15.4535   28.2905 N.am      2 SEC2        0.0000 
     14 N          28.7670   16.0990   29.5120 N.am      8 SEL2        0.0000 
     15 N          30.3180   14.8080   27.0690 N.am      5 SEP2        0.0000 
     16 CA         24.5530   14.9590   29.3945 C.3       3 GLC5        0.0000 
     17 CA         25.3820   16.8210   28.9160 C.3       9 GLL5        0.0000 
     18 CA         23.7240   13.0970   29.8730 C.3       6 GLP5        0.0000 
     19 CA         23.6555   16.3810   30.1780 C.3       3 GLC5        0.0000 
     20 CA         21.9290   15.9410   31.4400 C.3       6 GLP5        0.0000 
     21 CA         20.7320   18.9395   30.7475 C.3       3 GLC5        0.0000 
     22 CA         21.6600   19.9880   29.3000 C.3       9 GLL5        0.0000 
     23 CA         19.8040   17.8910   32.1950 C.3       6 GLP5        0.0000 
     24 CA         20.3825   16.4800   28.2525 C.3       3 GLC5        0.0000 
     25 CA         21.2090   18.1620   27.8320 C.3       9 GLL5        0.0000 
     26 CA         19.5560   14.7980   28.6730 C.3       6 GLP5        0.0000 
     27 CA         22.4625   18.5825   26.4655 C.3       3 GLC5        0.0000 
     28 CA         23.7160   19.0030   25.0990 C.3       6 GLP5        0.0000 
     29 CA         21.5690   17.0515   29.6360 C.3       3 GLC5        0.0000 
     30 CA         23.5105   18.6395   27.0090 C.3       3 GLC5        0.0000 
     31 CA         23.3050   18.2760   28.9190 C.3       9 GLL5        0.0000 
     32 N          28.5615   12.8495   35.1460 N.am      2 SEC2        0.0000 
     33 N          27.8300   14.0260   35.1420 N.am      8 SEL2        0.0000 
     34 N          29.2930   11.6730   35.1500 N.am      5 SEP2        0.0000 
     35 N          27.1950   13.1490   34.2130 N.am      2 SEC2        0.0000 
     36 N          26.5600   12.2720   33.2840 N.am      5 SEP2        0.0000 
     37 CA         26.4420   12.6030   36.6555 C.3       3 GLC5        0.0000 
     38 CA         25.0090   14.0720   36.2480 C.3       9 GLL5        0.0000 
     39 CA         27.8750   11.1340   37.0630 C.3       6 GLP5        0.0000 
     40 CA         23.7200   16.8885   37.2245 C.3       3 GLC5        0.0000 
     41 CA         23.7720   14.9910   38.2370 C.3       9 GLL5        0.0000 
     42 CA         23.6680   18.7860   36.2120 C.3       6 GLP5        0.0000 
     43 N          21.0810   15.5045   37.8875 N.am      2 SEC2        0.0000 
     44 N          22.4120   15.0340   38.5760 N.am      8 SEL2        0.0000 
     45 N          19.7500   15.9750   37.1990 N.am      5 SEP2        0.0000 
     46 O          22.3240   15.7355   37.3195 O.2       1 ALC1        0.0000 
     47 O          22.4120   15.0340   38.5760 O.2       7 ALL1        0.0000 
     48 O          22.2360   16.4370   36.0630 O.2       4 ALP1        0.0000 
     49 O          23.0100   14.3015   41.4200 O.2       1 ALC1        0.0000 
     50 O          23.9490   15.2520   40.6180 O.2       7 ALL1        0.0000 
     51 O          22.0710   13.3510   42.2220 O.2       4 ALP1        0.0000 
     52 CA         25.2210   11.3750   38.7700 C.3       3 GLC5        0.0000 
     53 CA         24.3810   13.1570   39.5070 C.3       9 GLL5        0.0000 
     54 CA         26.0610    9.5930   38.0330 C.3       6 GLP5        0.0000 
     55 CA         22.7210   12.4200   38.9960 C.3       3 GLC5        0.0000 
     56 CA         21.0610   11.6830   38.4850 C.3       6 GLP5        0.0000 
     57 CA         23.4845   11.0725   39.5970 C.3       3 GLC5        0.0000 
     58 CA         24.9660   11.5430   41.1910 C.3       9 GLL5        0.0000 
     59 CA         22.0030   10.6020   38.0030 C.3       6 GLP5        0.0000 
     60 N          25.8855    7.8795   44.0230 N.am      2 SEC2        0.0000 
     61 N          26.1000    9.4680   44.0830 N.am      8 SEL2        0.0000 
     62 N          25.6710    6.2910   43.9630 N.am      5 SEP2        0.0000 
     63 O          23.2355    9.7620   41.5460 O.2       1 ALC1        0.0000 
     64 O          24.0870    9.3860   42.7820 O.2       7 ALL1        0.0000 
     65 O          22.3840   10.1380   40.3100 O.2       4 ALP1        0.0000 
     66 O          23.7655    7.9750   43.4415 O.2       1 ALC1        0.0000 
     67 O          23.4440    6.5640   44.1010 O.2       4 ALP1        0.0000 
     68 CA         29.6815   12.0380   41.4520 C.3       3 GLC5        0.0000 
     69 CA         27.6190   12.2160   41.1070 C.3       9 GLL5        0.0000 
     70 CA         31.7440   11.8600   41.7970 C.3       6 GLP5        0.0000 
     71 CA         28.1125   14.2965   41.3195 C.3       3 GLC5        0.0000 
     72 CA         28.6060   16.3770   41.5320 C.3       6 GLP5        0.0000 
     73 CA         27.7130   14.5995   40.1485 C.3       3 GLC5        0.0000 
     74 CA         26.7040   12.8580   40.2870 C.3       9 GLL5        0.0000 
     75 CA         28.7220   16.3410   40.0100 C.3       6 GLP5        0.0000 
     76 CA         25.1120   14.2425   30.5080 C.3       3 GLC5        0.0000 
     77 CA         22.8250   20.0565   27.4582 C.3       3 GLC5        0.0000 
     78 CA         22.9240   19.4560   29.5430 C.3       9 GLL5        0.0000 
     79 CA         23.3580   20.3910   25.4950 C.3       6 GLP5        0.0000 
     80 CA         22.5217   17.4035   30.3355 C.3       3 GLC5        0.0000 
     81 CA         23.2758   13.1010   35.4642 C.3       3 GLC5        0.0000 
     82 CA         22.0570   12.2720   34.1380 C.3       6 GLP5        0.0000 
     83 CA         23.6497   14.9575   35.2882 C.3       3 GLC5        0.0000 
     84 CA         23.9800   13.7880   37.3330 C.3       9 GLL5        0.0000 
     85 CA         22.4685   13.0362   38.1350 C.3       3 GLC5        0.0000 
     86 CA         22.9515   16.3335   39.8413 C.3       3 GLC5        0.0000 
     87 CA         21.7450   17.8400   40.8200 C.3       6 GLP5        0.0000 
     88 CA         27.5183   11.8355   38.8800 C.3       3 GLC5        0.0000 
@<TRIPOS>BOND
@<TRIPOS>SUBSTRUCTURE
     1 ALC1       46 GROUP        1 X    ALC  0     ROOT ALC X 1
     2 SEC2        1 GROUP        1 X    SEC  0     **** SEC X 2
     3 GLC5        4 GROUP        1 X    GLC  0     **** GLC X 6
     4 ALP1       48 GROUP        1 Y    ALP  0     ROOT ALP Y 8
     5 SEP2        3 GROUP        1 Y    SEP  0     **** SEP Y 9
     6 GLP5        6 GROUP        1 Y    GLP  0     **** GLP Y 13
     7 ALL1       47 GROUP        1 Z    ALL  0     ROOT ALL Z 15
     8 SEL2        2 GROUP        1 Z    SEL  0     **** SEL Z 16
     9 GLL5        5 GROUP        1 Z    GLL  0     **** GLL Z 20
@<TRIPOS>SET

