#    Name: 3bts_NAD_2_ligand
#    Modification time : Mon Mar 24 20:04:12 2014

@<TRIPOS>MOLECULE
3bts_NAD_2_ligand
   70    74     1     0     0
SMALL
NO_CHARGES


@<TRIPOS>ATOM
      1 PA         27.2560   16.9610   33.6980 P.3       1 NAD436      0.0000 
      2 O1A        26.2820   17.9690   33.2260 O.co2     1 NAD436      0.0000 
      3 O2A        28.5380   17.5650   34.1250 O.co2     1 NAD436      0.0000 
      4 O5B        27.5270   15.8790   32.5500 O.3       1 NAD436      0.0000 
      5 C5B        26.4190   15.3260   31.8960 C.3       1 NAD436      0.0000 
      6 C4B        26.5810   15.4500   30.3900 C.3       1 NAD436      0.0000 
      7 O4B        25.3040   15.7820   29.8780 O.3       1 NAD436      0.0000 
      8 C3B        27.5220   16.5770   29.9620 C.3       1 NAD436      0.0000 
      9 O3B        28.7670   16.0990   29.5120 O.3       1 NAD436      0.0000 
     10 C2B        26.8260   17.2430   28.8080 C.3       1 NAD436      0.0000 
     11 O2B        27.3200   16.6580   27.6350 O.3       1 NAD436      0.0000 
     12 C1B        25.3820   16.8210   28.9160 C.3       1 NAD436      0.0000 
     13 N9A        24.5790   17.9860   29.3310 N.pl3     1 NAD436      0.0000 
     14 C8A        24.9690   18.9750   30.1950 C.2       1 NAD436      0.0000 
     15 N7A        23.9550   19.8620   30.3170 N.2       1 NAD436      0.0000 
     16 C5A        22.9240   19.4560   29.5430 C.ar      1 NAD436      0.0000 
     17 C6A        21.6600   19.9880   29.3000 C.ar      1 NAD436      0.0000 
     18 N6A        21.3290   21.1930   29.7520 N.pl3     1 NAD436      0.0000 
     19 N1A        20.8050   19.3350   28.4390 N.ar      1 NAD436      0.0000 
     20 C2A        21.2090   18.1620   27.8320 C.ar      1 NAD436      0.0000 
     21 N3A        22.4600   17.6370   28.0770 N.ar      1 NAD436      0.0000 
     22 C4A        23.3050   18.2760   28.9190 C.ar      1 NAD436      0.0000 
     23 O3         26.5370   16.1460   34.8880 O.3       1 NAD436      0.0000 
     24 PN         27.3310   15.1820   35.9040 P.3       1 NAD436      0.0000 
     25 O1N        28.2450   15.9800   36.7470 O.co2     1 NAD436      0.0000 
     26 O2N        27.8300   14.0260   35.1420 O.co2     1 NAD436      0.0000 
     27 O5D        26.1310   14.6770   36.8310 O.3       1 NAD436      0.0000 
     28 C5D        25.0090   14.0720   36.2480 C.3       1 NAD436      0.0000 
     29 C4D        23.9800   13.7880   37.3330 C.3       1 NAD436      0.0000 
     30 O4D        24.4410   12.7380   38.1580 O.3       1 NAD436      0.0000 
     31 C3D        23.7720   14.9910   38.2370 C.3       1 NAD436      0.0000 
     32 O3D        22.4120   15.0340   38.5760 O.3       1 NAD436      0.0000 
     33 C2D        24.5440   14.6630   39.4880 C.3       1 NAD436      0.0000 
     34 O2D        23.9490   15.2520   40.6180 O.3       1 NAD436      0.0000 
     35 C1D        24.3810   13.1570   39.5070 C.3       1 NAD436      0.0000 
     36 N1N        25.3920   12.5060   40.3450 N.pl3     1 NAD436      0.0000 
     37 C2N        24.9660   11.5430   41.1910 C.ar      1 NAD436      0.0000 
     38 C3N        25.8490   10.8900   42.0260 C.ar      1 NAD436      0.0000 
     39 C7N        25.3090    9.8760   42.9920 C.2       1 NAD436      0.0000 
     40 O7N        26.1000    9.4680   44.0830 O.2       1 NAD436      0.0000 
     41 N7N        24.0870    9.3860   42.7820 N.am      1 NAD436      0.0000 
     42 C4N        27.1960   11.2270   41.9850 C.ar      1 NAD436      0.0000 
     43 C5N        27.6190   12.2160   41.1070 C.ar      1 NAD436      0.0000 
     44 C6N        26.7040   12.8580   40.2870 C.ar      1 NAD436      0.0000 
     45 H          25.4777   15.8307   32.1698 H         1 NAD436      0.0000 
     46 H          26.2888   14.2558   32.1274 H         1 NAD436      0.0000 
     47 H          26.9269   14.5284   29.9885 H         1 NAD436      0.0000 
     48 H          27.5941   17.2779   30.7578 H         1 NAD436      0.0000 
     49 H          26.9127   18.2630   28.8606 H         1 NAD436      0.0000 
     50 H          25.0622   16.4845   27.9465 H         1 NAD436      0.0000 
     51 H          25.8223   19.0218   30.6356 H         1 NAD436      0.0000 
     52 H          22.0447   21.6913   30.2413 H         1 NAD436      0.0000 
     53 H          20.3941   21.4927   29.5620 H         1 NAD436      0.0000 
     54 H          20.5637   17.6718   27.1853 H         1 NAD436      0.0000 
     55 H          25.2521   13.1175   35.7650 H         1 NAD436      0.0000 
     56 H          24.5301   14.7136   35.4980 H         1 NAD436      0.0000 
     57 H          23.0431   13.5414   36.8739 H         1 NAD436      0.0000 
     58 H          24.1445   15.8405   37.7910 H         1 NAD436      0.0000 
     59 H          25.5530   14.8883   39.3325 H         1 NAD436      0.0000 
     60 H          23.3826   12.9575   39.9119 H         1 NAD436      0.0000 
     61 H          23.9567   11.2799   41.2230 H         1 NAD436      0.0000 
     62 H          23.5834    9.7753   42.0108 H         1 NAD436      0.0000 
     63 H          23.7840    8.6732   43.4146 H         1 NAD436      0.0000 
     64 H          27.8672   10.7526   42.5937 H         1 NAD436      0.0000 
     65 H          28.6163   12.4728   41.0655 H         1 NAD436      0.0000 
     66 H          27.0277   13.5944   39.6429 H         1 NAD436      0.0000 
     67 H          29.4300   16.7877   29.8055 H         1 NAD436      0.0000 
     68 H          28.1915   16.2448   27.8992 H         1 NAD436      0.0000 
     69 H          21.9685   15.4963   37.8082 H         1 NAD436      0.0000 
     70 H          23.3576   14.5413   40.9990 H         1 NAD436      0.0000 
@<TRIPOS>BOND
     1    2    1 ar   
     2    3    1 ar   
     3    4    1 1    
     4   23    1 1    
     5    5    4 1    
     6    6    5 1    
     7   45    5 1    
     8   46    5 1    
     9    7    6 1    
    10    8    6 1    
    11   47    6 1    
    12   12    7 1    
    13    9    8 1    
    14   10    8 1    
    15   48    8 1    
    16   67    9 1    
    17   11   10 1    
    18   12   10 1    
    19   49   10 1    
    20   68   11 1    
    21   13   12 1    
    22   50   12 1    
    23   14   13 1    
    24   22   13 1    
    25   15   14 2    
    26   51   14 1    
    27   16   15 1    
    28   17   16 ar   
    29   22   16 ar   
    30   18   17 1    
    31   19   17 ar   
    32   52   18 1    
    33   53   18 1    
    34   20   19 ar   
    35   21   20 ar   
    36   54   20 1    
    37   22   21 ar   
    38   24   23 1    
    39   25   24 ar   
    40   26   24 ar   
    41   27   24 1    
    42   28   27 1    
    43   29   28 1    
    44   55   28 1    
    45   56   28 1    
    46   30   29 1    
    47   31   29 1    
    48   57   29 1    
    49   35   30 1    
    50   32   31 1    
    51   33   31 1    
    52   58   31 1    
    53   69   32 1    
    54   34   33 1    
    55   35   33 1    
    56   59   33 1    
    57   70   34 1    
    58   36   35 1    
    59   60   35 1    
    60   37   36 ar   
    61   44   36 ar   
    62   38   37 ar   
    63   61   37 1    
    64   39   38 1    
    65   42   38 ar   
    66   40   39 2    
    67   41   39 am   
    68   62   41 1    
    69   63   41 1    
    70   43   42 ar   
    71   64   42 1    
    72   44   43 ar   
    73   65   43 1    
    74   66   44 1    
@<TRIPOS>SUBSTRUCTURE
     1 NAD436      1 GROUP   
@<TRIPOS>SET

