#    Name: 3fln_3FN_1_INTS_M
#    Modification time : Tue Mar 25 06:02:52 2014

@<TRIPOS>MOLECULE
3fln_3FN_1_INTS_M
   72     0     9     0     0
SMALL
NO_CHARGES


@<TRIPOS>ATOM
      1 CA         28.7385   10.3940   28.7660 C.3       3 GLC5        0.0000 
      2 CA         28.2270    9.6770   30.6460 C.3       9 GLL5        0.0000 
      3 CA         29.2500   11.1110   26.8860 C.3       6 GLP5        0.0000 
      4 CA         29.0880    7.4265   30.5820 C.3       3 GLC5        0.0000 
      5 CA         28.4800    8.2160   32.5540 C.3       9 GLL5        0.0000 
      6 CA         29.6960    6.6370   28.6100 C.3       6 GLP5        0.0000 
      7 CA         23.3710    6.8385   32.4865 C.3       3 GLC5        0.0000 
      8 CA         23.8120    8.4280   31.0270 C.3       9 GLL5        0.0000 
      9 CA         22.9300    5.2490   33.9460 C.3       6 GLP5        0.0000 
     10 CA         24.0005    7.1145   29.4785 C.3       3 GLC5        0.0000 
     11 CA         24.1890    5.8010   27.9300 C.3       6 GLP5        0.0000 
     12 CA         18.7295    9.2865   30.1025 C.3       3 GLC5        0.0000 
     13 CA         20.1980   10.4050   30.6500 C.3       9 GLL5        0.0000 
     14 CA         17.2610    8.1680   29.5550 C.3       6 GLP5        0.0000 
     15 CA         19.3895    8.2685   30.0490 C.3       3 GLC5        0.0000 
     16 CA         21.5180    8.3690   30.5430 C.3       9 GLL5        0.0000 
     17 CA         21.3970    6.2810   30.9440 C.3       3 GLC5        0.0000 
     18 CA         21.2760    4.1930   31.3450 C.3       6 GLP5        0.0000 
     19 CA         22.1945    7.1835   28.8565 C.3       3 GLC5        0.0000 
     20 CA         22.8710    5.9980   27.1700 C.3       6 GLP5        0.0000 
     21 CA         20.2290   12.4185   32.8550 C.3       3 GLC5        0.0000 
     22 CA         20.1090   11.7810   30.8810 C.3       9 GLL5        0.0000 
     23 CA         20.3490   13.0560   34.8290 C.3       6 GLP5        0.0000 
     24 CA         21.3190   11.7890   29.2370 C.3       3 GLC5        0.0000 
     25 CA         22.5290   11.7970   27.5930 C.3       6 GLP5        0.0000 
     26 CA         16.8905   13.6915   31.6465 C.3       3 GLC5        0.0000 
     27 CA         17.6850   11.9090   30.7500 C.3       9 GLL5        0.0000 
     28 CA         16.0960   15.4740   32.5430 C.3       6 GLP5        0.0000 
     29 CA         23.1555   12.1780   29.6780 C.3       3 GLC5        0.0000 
     30 CA         23.7820   12.5590   31.7630 C.3       9 GLL5        0.0000 
     31 CA         19.2605   10.7500   34.0620 C.3       3 GLC5        0.0000 
     32 CA         17.9680   10.9190   32.8940 C.3       9 GLL5        0.0000 
     33 CA         20.5530   10.5810   35.2300 C.3       6 GLP5        0.0000 
     34 CA         16.9900    9.7650   34.5485 C.3       3 GLC5        0.0000 
     35 CA         16.0120    8.6110   36.2030 C.3       6 GLP5        0.0000 
     36 CA         12.2990   10.1020   30.0560 C.3       3 GLC5        0.0000 
     37 CA         13.9210   10.2410   30.5360 C.3       9 GLL5        0.0000 
     38 CA         10.6770    9.9630   29.5760 C.3       6 GLP5        0.0000 
     39 CA         14.9280    8.9185   29.7945 C.3       3 GLC5        0.0000 
     40 CA         15.9350    7.5960   29.0530 C.3       6 GLP5        0.0000 
     41 N          22.9070    6.2875   30.2900 N.am      2 SEC2        0.0000 
     42 N          22.6970    7.7370   30.6680 N.am      8 SEL2        0.0000 
     43 N          23.1170    4.8380   29.9120 N.am      5 SEP2        0.0000 
     44 O          25.3485    6.4240   30.9390 O.2       1 ALC1        0.0000 
     45 O          25.0100    7.7950   31.1530 O.2       7 ALL1        0.0000 
     46 O          25.6870    5.0530   30.7250 O.2       4 ALP1        0.0000 
     47 CA         28.6277    7.9955   29.5332 C.3       3 GLC5        0.0000 
     48 CA         26.8920    9.0310   30.2670 C.3       9 GLL5        0.0000 
     49 CA         25.9520    8.8745   33.6522 C.3       3 GLC5        0.0000 
     50 CA         27.1350    7.5490   32.2620 C.3       9 GLL5        0.0000 
     51 CA         25.2320    9.7070   35.4030 C.3       6 GLP5        0.0000 
     52 CA         18.5040    9.3057   32.7365 C.3       3 GLC5        0.0000 
     53 CA         17.2100   11.1340   31.8080 C.3       9 GLL5        0.0000 
     54 CA         19.4190    7.5850   33.1220 C.3       6 GLP5        0.0000 
     55 CA         16.3212    9.6702   29.8215 C.3       3 GLC5        0.0000 
     56 CA         15.6180   11.5580   29.5600 C.3       9 GLL5        0.0000 
     57 CA         16.5547   10.9930   27.8543 C.3       3 GLC5        0.0000 
     58 CA         16.8570   10.1440   26.1120 C.3       6 GLP5        0.0000 
     59 CA         17.2735   10.0927   29.8732 C.3       3 GLC5        0.0000 
     60 CA         16.8870   12.1260   29.6330 C.3       9 GLL5        0.0000 
     61 CA         22.1122   11.0275   29.2612 C.3       3 GLC5        0.0000 
     62 CA         21.4240    9.7430   30.7800 C.3       9 GLL5        0.0000 
     63 CA         20.2918    8.4032   31.8755 C.3       3 GLC5        0.0000 
     64 CA         16.7229   12.0105   33.5085 C.3       3 GLC5        0.0000 
     65 CA         16.1750   13.1350   34.6820 C.3       6 GLP5        0.0000 
     66 CA         17.2659    9.5270   30.9450 C.3       3 GLC5        0.0000 
     67 CA         13.6121   12.0764   29.3410 C.3       3 GLC5        0.0000 
     68 CA         12.5730   13.4460   28.3700 C.3       6 GLP5        0.0000 
     69 CA         13.4505   11.2861   31.7290 C.3       3 GLC5        0.0000 
     70 CA         12.1700   12.1120   32.6000 C.3       6 GLP5        0.0000 
     71 CA         13.9575    9.0141   31.8660 C.3       3 GLC5        0.0000 
     72 CA         13.1840    7.5680   32.8740 C.3       6 GLP5        0.0000 
@<TRIPOS>BOND
@<TRIPOS>SUBSTRUCTURE
     1 ALC1       44 GROUP        1 X    ALC  0     ROOT ALC X 1
     2 SEC2       41 GROUP        1 X    SEC  0     **** SEC X 2
     3 GLC5        1 GROUP        1 X    GLC  0     **** GLC X 6
     4 ALP1       46 GROUP        1 Y    ALP  0     ROOT ALP Y 8
     5 SEP2       43 GROUP        1 Y    SEP  0     **** SEP Y 9
     6 GLP5        3 GROUP        1 Y    GLP  0     **** GLP Y 13
     7 ALL1       45 GROUP        1 Z    ALL  0     ROOT ALL Z 15
     8 SEL2       42 GROUP        1 Z    SEL  0     **** SEL Z 16
     9 GLL5        2 GROUP        1 Z    GLL  0     **** GLL Z 20
@<TRIPOS>SET

