#    Name: 3fln_3FN_1_ligand
#    Modification time : Tue Mar 25 06:02:52 2014

@<TRIPOS>MOLECULE
3fln_3FN_1_ligand
   46    49     1     0     0
SMALL
NO_CHARGES


@<TRIPOS>ATOM
      1 C1         26.8920    9.0310   30.2670 C.3       1 3FN361      0.0000 
      2 C2         28.2270    9.6770   30.6460 C.3       1 3FN361      0.0000 
      3 C4         28.4800    8.2160   32.5540 C.3       1 3FN361      0.0000 
      4 C5         27.1350    7.5490   32.2620 C.3       1 3FN361      0.0000 
      5 C24        15.9370   10.5720   31.7440 C.ar      1 3FN361      0.0000 
      6 O3         29.0540    8.7310   31.3420 O.3       1 3FN361      0.0000 
      7 C15        21.3310   12.5340   31.2600 C.2       1 3FN361      0.0000 
      8 C25        17.2100   11.1340   31.8080 C.ar      1 3FN361      0.0000 
      9 C8         23.8120    8.4280   31.0270 C.ar      1 3FN361      0.0000 
     10 C6         26.2090    8.5350   31.5410 C.3       1 3FN361      0.0000 
     11 C10        21.4240    9.7430   30.7800 C.ar      1 3FN361      0.0000 
     12 C17        20.1980   10.4050   30.6500 C.2       1 3FN361      0.0000 
     13 C23        15.1450   10.7870   30.6160 C.ar      1 3FN361      0.0000 
     14 C22        15.6180   11.5580   29.5600 C.ar      1 3FN361      0.0000 
     15 C21        16.8870   12.1260   29.6330 C.ar      1 3FN361      0.0000 
     16 C9         22.5800   10.4420   31.1440 C.ar      1 3FN361      0.0000 
     17 C11        21.5180    8.3690   30.5430 C.ar      1 3FN361      0.0000 
     18 C16        20.1090   11.7810   30.8810 C.2       1 3FN361      0.0000 
     19 C20        17.6850   11.9090   30.7500 C.ar      1 3FN361      0.0000 
     20 C18        23.7820   12.5590   31.7630 C.3       1 3FN361      0.0000 
     21 F2         17.9680   10.9190   32.8940 F         1 3FN361      0.0000 
     22 F1         13.9210   10.2410   30.5360 F         1 3FN361      0.0000 
     23 O26        18.9320   12.4880   30.7790 O.3       1 3FN361      0.0000 
     24 N7         22.6970    7.7370   30.6680 N.ar      1 3FN361      0.0000 
     25 O19        21.2550   13.7650   31.4680 O.2       1 3FN361      0.0000 
     26 N14        22.5540   11.8380   31.3860 N.am      1 3FN361      0.0000 
     27 N12        23.7440    9.7630   31.2590 N.ar      1 3FN361      0.0000 
     28 N13        25.0100    7.7950   31.1530 N.pl3     1 3FN361      0.0000 
     29 H          27.0722    8.1965   29.6066 H         1 3FN361      0.0000 
     30 H          26.2638    9.7634   29.7832 H         1 3FN361      0.0000 
     31 H          28.0101   10.5553   31.2653 H         1 3FN361      0.0000 
     32 H          28.7038   10.0268   29.7228 H         1 3FN361      0.0000 
     33 H          29.1313    7.4671   33.0216 H         1 3FN361      0.0000 
     34 H          28.3069    9.0129   33.2880 H         1 3FN361      0.0000 
     35 H          26.6749    7.2431   33.1948 H         1 3FN361      0.0000 
     36 H          27.2929    6.6809   31.6321 H         1 3FN361      0.0000 
     37 H          15.5839   10.0043   32.5200 H         1 3FN361      0.0000 
     38 H          25.9857    9.3400   32.1707 H         1 3FN361      0.0000 
     39 H          19.3577    9.8757   30.3829 H         1 3FN361      0.0000 
     40 H          15.0343   11.7084   28.7292 H         1 3FN361      0.0000 
     41 H          17.2337   12.7073   28.8580 H         1 3FN361      0.0000 
     42 H          20.6585    7.8553   30.2700 H         1 3FN361      0.0000 
     43 H          25.1184    6.7872   30.9832 H         1 3FN361      0.0000 
     44 H          24.5714   11.9472   31.8130 H         1 3FN361      0.0000 
     45 H          24.0085   13.2765   31.1043 H         1 3FN361      0.0000 
     46 H          23.6949   12.9987   32.6569 H         1 3FN361      0.0000 
@<TRIPOS>BOND
     1    2    1 1    
     2   10    1 1    
     3   29    1 1    
     4   30    1 1    
     5    6    2 1    
     6   31    2 1    
     7   32    2 1    
     8    4    3 1    
     9    6    3 1    
    10   33    3 1    
    11   34    3 1    
    12   10    4 1    
    13   35    4 1    
    14   36    4 1    
    15    8    5 ar   
    16   13    5 ar   
    17   37    5 1    
    18   18    7 1    
    19   25    7 2    
    20   26    7 am   
    21   19    8 ar   
    22   21    8 1    
    23   24    9 ar   
    24   27    9 ar   
    25   28    9 1    
    26   28   10 1    
    27   38   10 1    
    28   12   11 1    
    29   16   11 ar   
    30   17   11 ar   
    31   18   12 2    
    32   39   12 1    
    33   14   13 ar   
    34   22   13 1    
    35   15   14 ar   
    36   40   14 1    
    37   19   15 ar   
    38   41   15 1    
    39   26   16 1    
    40   27   16 ar   
    41   24   17 ar   
    42   42   17 1    
    43   23   18 1    
    44   23   19 1    
    45   26   20 1    
    46   44   20 1    
    47   45   20 1    
    48   46   20 1    
    49   43   28 1    
@<TRIPOS>SUBSTRUCTURE
     1 3FN361      1 GROUP   
@<TRIPOS>SET

