#    Name: 3elj_GS7_1_INTS_M
#    Modification time : Tue Mar 25 02:06:16 2014

@<TRIPOS>MOLECULE
3elj_GS7_1_INTS_M
   86     0     9     0     0
SMALL
NO_CHARGES


@<TRIPOS>ATOM
      1 CA         22.1365    7.5810   33.5360 C.3       3 GLC5        0.0000 
      2 CA         20.7730    8.5190   32.3400 C.3       9 GLL5        0.0000 
      3 CA         23.5000    6.6430   34.7320 C.3       6 GLP5        0.0000 
      4 CA         21.6645    9.4135   34.1165 C.3       3 GLC5        0.0000 
      5 CA         22.5560   10.3080   35.8930 C.3       6 GLP5        0.0000 
      6 CA         18.4370    5.3620   34.3035 C.3       3 GLC5        0.0000 
      7 CA         19.0130    7.1340   33.0720 C.3       9 GLL5        0.0000 
      8 CA         17.8610    3.5900   35.5350 C.3       6 GLP5        0.0000 
      9 CA         18.3655    5.4565   31.9070 C.3       3 GLC5        0.0000 
     10 CA         17.7180    3.7790   30.7420 C.3       6 GLP5        0.0000 
     11 O          16.8700    6.4085   34.3570 O.2       1 ALC1        0.0000 
     12 O          17.7770    7.2490   33.6400 O.2       7 ALL1        0.0000 
     13 O          15.9630    5.5680   35.0740 O.2       4 ALP1        0.0000 
     14 CA         15.6195    8.3365   33.3855 C.3       3 GLC5        0.0000 
     15 CA         17.4810    8.5660   33.8470 C.3       9 GLL5        0.0000 
     16 CA         13.7580    8.1070   32.9240 C.3       6 GLP5        0.0000 
     17 CA         16.2845    8.8515   35.2395 C.3       3 GLC5        0.0000 
     18 CA         15.0880    9.1370   36.6320 C.3       6 GLP5        0.0000 
     19 CA         18.0260   10.4145   34.8460 C.3       3 GLC5        0.0000 
     20 CA         18.5510    9.3090   33.3980 C.3       9 GLL5        0.0000 
     21 CA         17.5010   11.5200   36.2940 C.3       6 GLP5        0.0000 
     22 N          18.8780    4.7190   32.9385 N.am      2 SEC2        0.0000 
     23 N          19.6100    5.9950   32.7410 N.am      8 SEL2        0.0000 
     24 N          18.1460    3.4430   33.1360 N.am      5 SEP2        0.0000 
     25 CA         22.1580    6.4140   33.4665 C.3       3 GLC5        0.0000 
     26 CA         20.8160    6.1850   32.2010 C.3       9 GLL5        0.0000 
     27 CA         20.9200    5.0990   33.9265 C.3       3 GLC5        0.0000 
     28 CA         21.0240    4.0130   35.6520 C.3       6 GLP5        0.0000 
     29 CA         19.2670    4.9820   31.4715 C.3       3 GLC5        0.0000 
     30 CA         20.1515    6.8250   30.4390 C.3       3 GLC5        0.0000 
     31 CA         19.4870    7.4650   28.6770 C.3       6 GLP5        0.0000 
     32 O          20.9510    3.6610   32.1265 O.2       1 ALC1        0.0000 
     33 O          21.4930    5.0070   31.8270 O.2       7 ALL1        0.0000 
     34 O          20.4090    2.3150   32.4260 O.2       4 ALP1        0.0000 
     35 CA         25.0470    3.5280   34.0630 C.3       3 GLC5        0.0000 
     36 CA         24.1830    2.1400   32.8230 C.3       9 GLL5        0.0000 
     37 CA         25.9110    4.9160   35.3030 C.3       6 GLP5        0.0000 
     38 CA         22.5450    1.4180   31.5315 C.3       3 GLC5        0.0000 
     39 CA         20.9070    0.6960   30.2400 C.3       6 GLP5        0.0000 
     40 CA         21.2905    6.6420   29.4280 C.3       3 GLC5        0.0000 
     41 CA         23.0940    5.8190   30.1790 C.3       9 GLL5        0.0000 
     42 CA         25.4805    5.0725   32.7370 C.3       3 GLC5        0.0000 
     43 CA         24.9550    3.9930   31.0800 C.3       9 GLL5        0.0000 
     44 CA         26.0060    6.1520   34.3940 C.3       6 GLP5        0.0000 
     45 N          24.1155    4.8155   26.7945 N.am      2 SEC2        0.0000 
     46 N          25.6290    4.4050   26.9980 N.am      8 SEL2        0.0000 
     47 N          22.6020    5.2260   26.5910 N.am      5 SEP2        0.0000 
     48 CA         26.9610    3.6505   25.5250 C.3       3 GLC5        0.0000 
     49 CA         28.1780    3.9200   27.2980 C.3       9 GLL5        0.0000 
     50 CA         25.7440    3.3810   23.7520 C.3       6 GLP5        0.0000 
     51 CA         25.0865   14.8685   31.0935 C.3       3 GLC5        0.0000 
     52 CA         24.3470   13.3170   31.2440 C.3       9 GLL5        0.0000 
     53 CA         25.8260   16.4200   30.9430 C.3       6 GLP5        0.0000 
     54 CA         23.6640   10.2825   33.6265 C.3       3 GLC5        0.0000 
     55 CA         23.6040    9.3200   31.6970 C.3       9 GLL5        0.0000 
     56 CA         23.7240   11.2450   35.5560 C.3       6 GLP5        0.0000 
     57 CA         22.8860   11.3960   33.4460 C.3       3 GLC5        0.0000 
     58 CA         22.5690   10.2150   31.8610 C.3       9 GLL5        0.0000 
     59 CA         23.2030   12.5770   35.0310 C.3       6 GLP5        0.0000 
     60 CA         20.6100   10.5645   30.8745 C.3       3 GLC5        0.0000 
     61 CA         18.6510   10.9140   29.8880 C.3       6 GLP5        0.0000 
     62 CA         19.3990    9.6860   31.2555 C.3       3 GLC5        0.0000 
     63 CA         19.5335    7.6305   30.7623 C.3       3 GLC5        0.0000 
     64 CA         17.1970    9.5877   32.1538 C.3       3 GLC5        0.0000 
     65 CA         16.3780   10.2380   30.6850 C.3       6 GLP5        0.0000 
     66 CA         23.3655    5.5808   33.0847 C.3       3 GLC5        0.0000 
     67 CA         22.7630    4.9740   31.2170 C.3       9 GLL5        0.0000 
     68 CA         22.8700    3.8112   29.5953 C.3       3 GLC5        0.0000 
     69 CA         22.5090    3.1040   27.7530 C.3       6 GLP5        0.0000 
     70 CA         23.1140    4.4465   28.8225 C.3       3 GLC5        0.0000 
     71 CA         23.1655    6.7340   28.0270 C.3       3 GLC5        0.0000 
     72 CA         22.6120    7.6790   26.1620 C.3       6 GLP5        0.0000 
     73 CA         23.8130    3.7615   29.1575 C.3       3 GLC5        0.0000 
     74 CA         25.2790    4.8450   30.0440 C.3       9 GLL5        0.0000 
     75 CA         23.5534   12.5642   33.2140 C.3       3 GLC5        0.0000 
     76 CA         26.6240   10.2348   32.0210 C.3       3 GLC5        0.0000 
     77 CA         25.1190   11.1050   31.2310 C.3       9 GLL5        0.0000 
     78 CA         28.2530   10.0370   32.7350 C.3       6 GLP5        0.0000 
     79 CA         26.2779   12.8389   32.0105 C.3       3 GLC5        0.0000 
     80 CA         27.8860   13.7940   32.7460 C.3       6 GLP5        0.0000 
     81 CA         24.5817    8.3670   33.1295 C.3       3 GLC5        0.0000 
     82 CA         24.8710    9.7600   31.3830 C.3       9 GLL5        0.0000 
     83 CA         24.9260    7.1940   34.7190 C.3       6 GLP5        0.0000 
     84 CA         19.0303    7.9607   35.0209 C.3       3 GLC5        0.0000 
     85 CA         19.5210    8.3970   32.9060 C.3       9 GLL5        0.0000 
     86 CA         19.4190    7.5700   36.7360 C.3       6 GLP5        0.0000 
@<TRIPOS>BOND
@<TRIPOS>SUBSTRUCTURE
     1 ALC1       11 GROUP        1 X    ALC  0     ROOT ALC X 1
     2 SEC2       22 GROUP        1 X    SEC  0     **** SEC X 2
     3 GLC5        1 GROUP        1 X    GLC  0     **** GLC X 6
     4 ALP1       13 GROUP        1 Y    ALP  0     ROOT ALP Y 8
     5 SEP2       24 GROUP        1 Y    SEP  0     **** SEP Y 9
     6 GLP5        3 GROUP        1 Y    GLP  0     **** GLP Y 13
     7 ALL1       12 GROUP        1 Z    ALL  0     ROOT ALL Z 15
     8 SEL2       23 GROUP        1 Z    SEL  0     **** SEL Z 16
     9 GLL5        2 GROUP        1 Z    GLL  0     **** GLL Z 20
@<TRIPOS>SET

