#    Name: 3elj_GS7_1_ligand
#    Modification time : Tue Mar 25 02:06:16 2014

@<TRIPOS>MOLECULE
3elj_GS7_1_ligand
   55    58     1     0     0
SMALL
NO_CHARGES


@<TRIPOS>ATOM
      1 C11        20.7730    8.5190   32.3400 C.ar      1 GS7365      0.0000 
      2 N2         21.3920    7.3760   31.9960 N.ar      1 GS7365      0.0000 
      3 C19        19.5210    8.3970   32.9060 C.ar      1 GS7365      0.0000 
      4 C22        19.0130    7.1340   33.0720 C.ar      1 GS7365      0.0000 
      5 N5         17.7770    7.2490   33.6400 N.pl3     1 GS7365      0.0000 
      6 C21        17.4810    8.5660   33.8470 C.2       1 GS7365      0.0000 
      7 C20        18.5510    9.3090   33.3980 C.2       1 GS7365      0.0000 
      8 N6         19.6100    5.9950   32.7410 N.ar      1 GS7365      0.0000 
      9 C10        20.8160    6.1850   32.2010 C.ar      1 GS7365      0.0000 
     10 N1         21.4930    5.0070   31.8270 N.pl3     1 GS7365      0.0000 
     11 C9         22.7630    4.9740   31.2170 C.ar      1 GS7365      0.0000 
     12 C2         23.6990    4.0630   31.6580 C.ar      1 GS7365      0.0000 
     13 O1         23.2950    3.2430   32.7030 O.3       1 GS7365      0.0000 
     14 C1         24.1830    2.1400   32.8230 C.3       1 GS7365      0.0000 
     15 C8         23.0940    5.8190   30.1790 C.ar      1 GS7365      0.0000 
     16 C7         24.3440    5.7590   29.6050 C.ar      1 GS7365      0.0000 
     17 C4         25.2790    4.8450   30.0440 C.ar      1 GS7365      0.0000 
     18 C3         24.9550    3.9930   31.0800 C.ar      1 GS7365      0.0000 
     19 C5         26.6290    4.8080   29.4040 C.3       1 GS7365      0.0000 
     20 S          26.5390    3.7910   27.9470 S.o2      1 GS7365      0.0000 
     21 O2         25.6290    4.4050   26.9980 O.2       1 GS7365      0.0000 
     22 O3         26.3330    2.4240   28.3880 O.2       1 GS7365      0.0000 
     23 C6         28.1780    3.9200   27.2980 C.3       1 GS7365      0.0000 
     24 O4         20.8260   12.3130   32.6810 O.2       1 GS7365      0.0000 
     25 C18        21.7270   12.5310   31.8800 C.2       1 GS7365      0.0000 
     26 N4         21.8210   13.6440   31.0860 N.am      1 GS7365      0.0000 
     27 C17        22.8270   11.5640   31.7060 C.ar      1 GS7365      0.0000 
     28 C16        24.0940   12.0080   31.3940 C.ar      1 GS7365      0.0000 
     29 F          24.3470   13.3170   31.2440 F         1 GS7365      0.0000 
     30 C15        25.1190   11.1050   31.2310 C.ar      1 GS7365      0.0000 
     31 C14        24.8710    9.7600   31.3830 C.ar      1 GS7365      0.0000 
     32 C13        23.6040    9.3200   31.6970 C.ar      1 GS7365      0.0000 
     33 C12        22.5690   10.2150   31.8610 C.ar      1 GS7365      0.0000 
     34 N3         21.2650    9.8190   32.1790 N.pl3     1 GS7365      0.0000 
     35 H          17.1957    6.5065   33.8633 H         1 GS7365      0.0000 
     36 H          16.6830    8.9145   34.2309 H         1 GS7365      0.0000 
     37 H          18.6444   10.2436   33.4054 H         1 GS7365      0.0000 
     38 H          21.0159    4.0856   32.0169 H         1 GS7365      0.0000 
     39 H          22.3987    6.5015   29.8302 H         1 GS7365      0.0000 
     40 H          24.5866    6.4087   28.8329 H         1 GS7365      0.0000 
     41 H          25.6423    3.3082   31.4227 H         1 GS7365      0.0000 
     42 H          27.3718    4.3200   29.9861 H         1 GS7365      0.0000 
     43 H          26.9520    5.7437   29.0182 H         1 GS7365      0.0000 
     44 H          21.0817   14.3115   31.1747 H         1 GS7365      0.0000 
     45 H          22.6207   13.6912   30.4874 H         1 GS7365      0.0000 
     46 H          26.0671   11.4337   30.9964 H         1 GS7365      0.0000 
     47 H          25.6379    9.0768   31.2612 H         1 GS7365      0.0000 
     48 H          23.4268    8.3043   31.8113 H         1 GS7365      0.0000 
     49 H          20.5471   10.6185   32.3178 H         1 GS7365      0.0000 
     50 H          25.1210    2.4362   33.0030 H         1 GS7365      0.0000 
     51 H          23.9195    1.5307   33.5709 H         1 GS7365      0.0000 
     52 H          24.2047    1.5883   31.9892 H         1 GS7365      0.0000 
     53 H          28.8453    3.4541   27.8791 H         1 GS7365      0.0000 
     54 H          28.2495    3.5148   26.3866 H         1 GS7365      0.0000 
     55 H          28.4724    4.8724   27.2192 H         1 GS7365      0.0000 
@<TRIPOS>BOND
     1    2    1 ar   
     2    3    1 ar   
     3   34    1 1    
     4    9    2 ar   
     5    4    3 ar   
     6    7    3 1    
     7    5    4 1    
     8    8    4 ar   
     9    6    5 1    
    10   35    5 1    
    11    7    6 2    
    12   36    6 1    
    13   37    7 1    
    14    9    8 ar   
    15   10    9 1    
    16   11   10 1    
    17   38   10 1    
    18   12   11 ar   
    19   15   11 ar   
    20   13   12 1    
    21   18   12 ar   
    22   14   13 1    
    23   50   14 1    
    24   51   14 1    
    25   52   14 1    
    26   16   15 ar   
    27   39   15 1    
    28   17   16 ar   
    29   40   16 1    
    30   18   17 ar   
    31   19   17 1    
    32   41   18 1    
    33   20   19 1    
    34   42   19 1    
    35   43   19 1    
    36   21   20 2    
    37   22   20 2    
    38   23   20 1    
    39   53   23 1    
    40   54   23 1    
    41   55   23 1    
    42   25   24 2    
    43   26   25 am   
    44   27   25 1    
    45   44   26 1    
    46   45   26 1    
    47   28   27 ar   
    48   33   27 ar   
    49   29   28 1    
    50   30   28 ar   
    51   31   30 ar   
    52   46   30 1    
    53   32   31 ar   
    54   47   31 1    
    55   33   32 ar   
    56   48   32 1    
    57   34   33 1    
    58   49   34 1    
@<TRIPOS>SUBSTRUCTURE
     1 GS7365      1 GROUP   
@<TRIPOS>SET

