#    Name: 2vdy_HCY_2_INTS_M
#    Modification time : Tue Mar 25 01:33:53 2014

@<TRIPOS>MOLECULE
2vdy_HCY_2_INTS_M
   60     0     9     0     0
SMALL
NO_CHARGES


@<TRIPOS>ATOM
      1 CA        -22.7915   -2.8955   13.9525 C.3       3 GLC5        0.0000 
      2 CA        -24.5260   -1.7060   14.4530 C.3       9 GLL5        0.0000 
      3 CA        -21.0570   -4.0850   13.4520 C.3       6 GLP5        0.0000 
      4 CA        -21.7540   -2.1330   13.9565 C.3       3 GLC5        0.0000 
      5 CA        -22.4510   -0.1810   14.4610 C.3       9 GLL5        0.0000 
      6 CA        -19.8245    1.5125   17.3975 C.3       3 GLC5        0.0000 
      7 CA        -21.4670    0.7220   16.5190 C.3       9 GLL5        0.0000 
      8 CA        -18.1820    2.3030   18.2760 C.3       6 GLP5        0.0000 
      9 CA        -20.3535    2.7710   17.7770 C.3       3 GLC5        0.0000 
     10 CA        -21.9930    1.9510   17.2530 C.3       9 GLL5        0.0000 
     11 CA        -18.7140    3.5910   18.3010 C.3       6 GLP5        0.0000 
     12 CA        -22.6325    0.3760   19.4940 C.3       3 GLC5        0.0000 
     13 CA        -23.2420    1.6670   18.0890 C.3       9 GLL5        0.0000 
     14 CA        -22.0230   -0.9150   20.8990 C.3       6 GLP5        0.0000 
     15 CA        -24.8710    2.0930   15.7955 C.3       3 GLC5        0.0000 
     16 CA        -24.3440    0.9090   17.3120 C.3       9 GLL5        0.0000 
     17 CA        -25.3980    3.2770   14.2790 C.3       6 GLP5        0.0000 
     18 CA        -21.2845    4.8495   19.3495 C.3       3 GLC5        0.0000 
     19 CA        -23.0040    4.0830   19.1650 C.3       9 GLL5        0.0000 
     20 CA        -19.5650    5.6160   19.5340 C.3       6 GLP5        0.0000 
     21 CA        -23.4990    2.1915   22.4720 C.3       3 GLC5        0.0000 
     22 CA        -24.6050    2.0360   20.8240 C.3       9 GLL5        0.0000 
     23 CA        -22.3930    2.3470   24.1200 C.3       6 GLP5        0.0000 
     24 CA        -23.3140    0.5605   20.8615 C.3       3 GLC5        0.0000 
     25 CA        -25.8025    0.7865   22.0755 C.3       3 GLC5        0.0000 
     26 CA        -27.0000   -0.4630   23.3270 C.3       6 GLP5        0.0000 
     27 CA        -22.2445   -3.3165   17.3380 C.3       3 GLC5        0.0000 
     28 CA        -23.5040   -1.5340   17.4480 C.3       9 GLL5        0.0000 
     29 CA        -20.9850   -5.0990   17.2280 C.3       6 GLP5        0.0000 
     30 CA        -22.7635   -1.2245   19.1735 C.3       3 GLC5        0.0000 
     31 CA        -26.9490    6.1490   20.5500 C.3       3 GLC5        0.0000 
     32 CA        -27.6260    4.2940   21.2350 C.3       9 GLL5        0.0000 
     33 CA        -26.2720    8.0040   19.8650 C.3       6 GLP5        0.0000 
     34 O         -26.2290   -1.4070   18.8870 O.2       1 ALC1        0.0000 
     35 O         -25.5190   -0.3030   19.1280 O.2       7 ALL1        0.0000 
     36 O         -26.9390   -2.5110   18.6460 O.2       4 ALP1        0.0000 
     37 N         -26.0795    4.7400   17.3735 N.am      2 SEC2        0.0000 
     38 N         -26.1410    4.8310   18.8050 N.am      8 SEL2        0.0000 
     39 N         -26.0180    4.6490   15.9420 N.am      5 SEP2        0.0000 
     40 N         -24.8205    4.9825   23.3375 N.am      2 SEC2        0.0000 
     41 N         -25.5300    4.7570   22.2080 N.am      8 SEL2        0.0000 
     42 N         -24.1110    5.2080   24.4670 N.am      5 SEP2        0.0000 
     43 CA        -25.1820    0.5255   14.1600 C.3       3 GLC5        0.0000 
     44 CA        -24.9760   -0.7780   15.5810 C.3       9 GLL5        0.0000 
     45 CA        -25.6130    2.2930   13.3030 C.3       6 GLP5        0.0000 
     46 CA        -22.6913    1.9278   14.6342 C.3       3 GLC5        0.0000 
     47 CA        -22.8560    3.9230   14.1480 C.3       6 GLP5        0.0000 
     48 CA        -20.3259    0.2561   14.9739 C.3       3 GLC5        0.0000 
     49 CA        -18.6550    0.1850   14.1280 C.3       6 GLP5        0.0000 
     50 CA        -22.2930    2.6298   15.5170 C.3       3 GLC5        0.0000 
     51 CA        -24.1180    3.5808   17.0217 C.3       3 GLC5        0.0000 
     52 CA        -24.6770    4.8400   15.7130 C.3       6 GLP5        0.0000 
     53 CA        -26.1875    2.5362   16.7845 C.3       3 GLC5        0.0000 
     54 CA        -26.1320    2.0230   18.8360 C.3       9 GLL5        0.0000 
     55 CA        -26.4860    3.6940   15.0790 C.3       6 GLP5        0.0000 
     56 CA        -22.7122    5.8810   20.7865 C.3       3 GLC5        0.0000 
     57 CA        -21.9150    7.2280   22.0510 C.3       6 GLP5        0.0000 
     58 CA        -25.4823    6.3133   19.8708 C.3       3 GLC5        0.0000 
     59 CA        -24.0150    4.9850   19.8790 C.3       9 GLL5        0.0000 
     60 CA        -24.5149    4.4360   17.6664 C.3       3 GLC5        0.0000 
@<TRIPOS>BOND
@<TRIPOS>SUBSTRUCTURE
     1 ALC1       34 GROUP        1 X    ALC  0     ROOT ALC X 1
     2 SEC2       37 GROUP        1 X    SEC  0     **** SEC X 2
     3 GLC5        1 GROUP        1 X    GLC  0     **** GLC X 6
     4 ALP1       36 GROUP        1 Y    ALP  0     ROOT ALP Y 8
     5 SEP2       39 GROUP        1 Y    SEP  0     **** SEP Y 9
     6 GLP5        3 GROUP        1 Y    GLP  0     **** GLP Y 13
     7 ALL1       35 GROUP        1 Z    ALL  0     ROOT ALL Z 15
     8 SEL2       38 GROUP        1 Z    SEL  0     **** SEL Z 16
     9 GLL5        2 GROUP        1 Z    GLL  0     **** GLL Z 20
@<TRIPOS>SET

