#    Name: 2vdy_HCY_2_ligand
#    Modification time : Tue Mar 25 01:33:53 2014

@<TRIPOS>MOLECULE
2vdy_HCY_2_ligand
   56    59     1     0     0
SMALL
NO_CHARGES


@<TRIPOS>ATOM
      1 C1        -24.9760   -0.7780   15.5810 C.3       1 HCY1384     0.0000 
      2 C2        -24.5260   -1.7060   14.4530 C.3       1 HCY1384     0.0000 
      3 C3        -23.3760   -1.0600   13.7200 C.2       1 HCY1384     0.0000 
      4 C4        -22.4510   -0.1810   14.4610 C.2       1 HCY1384     0.0000 
      5 C5        -22.6020    0.0460   15.7800 C.2       1 HCY1384     0.0000 
      6 C6        -21.4670    0.7220   16.5190 C.3       1 HCY1384     0.0000 
      7 C7        -21.9930    1.9510   17.2530 C.3       1 HCY1384     0.0000 
      8 C8        -23.2420    1.6670   18.0890 C.3       1 HCY1384     0.0000 
      9 C9        -24.3440    0.9090   17.3120 C.3       1 HCY1384     0.0000 
     10 C10       -23.8590   -0.3470   16.5460 C.3       1 HCY1384     0.0000 
     11 C12       -26.1320    2.0230   18.8360 C.3       1 HCY1384     0.0000 
     12 C11       -25.6460    0.7340   18.1440 C.3       1 HCY1384     0.0000 
     13 C13       -25.0220    2.8000   19.5610 C.3       1 HCY1384     0.0000 
     14 C14       -23.8760    2.9760   18.5720 C.3       1 HCY1384     0.0000 
     15 C15       -23.0040    4.0830   19.1650 C.3       1 HCY1384     0.0000 
     16 C16       -24.0150    4.9850   19.8790 C.3       1 HCY1384     0.0000 
     17 C17       -25.3700    4.2600   19.8740 C.3       1 HCY1384     0.0000 
     18 C18       -24.6050    2.0360   20.8240 C.3       1 HCY1384     0.0000 
     19 C19       -23.5040   -1.5340   17.4480 C.3       1 HCY1384     0.0000 
     20 C20       -26.1210    4.4560   21.1810 C.2       1 HCY1384     0.0000 
     21 C21       -27.6260    4.2940   21.2350 C.3       1 HCY1384     0.0000 
     22 O1        -23.2160   -1.2610   12.5280 O.2       1 HCY1384     0.0000 
     23 O2        -25.5190   -0.3030   19.1280 O.3       1 HCY1384     0.0000 
     24 O3        -26.1410    4.8310   18.8050 O.3       1 HCY1384     0.0000 
     25 O4        -25.5300    4.7570   22.2080 O.2       1 HCY1384     0.0000 
     26 O5        -27.9970    3.5310   22.3900 O.3       1 HCY1384     0.0000 
     27 H         -25.7705   -1.2792   16.1629 H         1 HCY1384     0.0000 
     28 H         -25.4305    0.1279   15.1409 H         1 HCY1384     0.0000 
     29 H         -25.3533   -1.8656   13.7735 H         1 HCY1384     0.0000 
     30 H         -24.2096   -2.6509   14.8758 H         1 HCY1384     0.0000 
     31 H         -21.6891    0.2434   13.9067 H         1 HCY1384     0.0000 
     32 H         -20.7018    1.0281   15.8124 H         1 HCY1384     0.0000 
     33 H         -21.0376    0.0323   17.2391 H         1 HCY1384     0.0000 
     34 H         -22.2262    2.7357   16.5192 H         1 HCY1384     0.0000 
     35 H         -21.2042    2.3413   17.9120 H         1 HCY1384     0.0000 
     36 H         -22.9807    1.0862   18.9563 H         1 HCY1384     0.0000 
     37 H         -24.6535    1.6593   16.4723 H         1 HCY1384     0.0000 
     38 H         -26.9162    1.7605   19.5615 H         1 HCY1384     0.0000 
     39 H         -26.5912    2.6779   18.0808 H         1 HCY1384     0.0000 
     40 H         -26.4459    0.4473   17.4251 H         1 HCY1384     0.0000 
     41 H         -24.3814    3.4607   17.6627 H         1 HCY1384     0.0000 
     42 H         -22.5298    4.6223   18.3880 H         1 HCY1384     0.0000 
     43 H         -22.3311    3.6717   19.8702 H         1 HCY1384     0.0000 
     44 H         -24.1060    5.9145   19.3487 H         1 HCY1384     0.0000 
     45 H         -23.7007    5.1463   20.8932 H         1 HCY1384     0.0000 
     46 H         -27.9501    3.8019   20.3085 H         1 HCY1384     0.0000 
     47 H         -28.0769    5.2950   21.2541 H         1 HCY1384     0.0000 
     48 H         -24.2571    1.1236   20.6083 H         1 HCY1384     0.0000 
     49 H         -23.8838    2.5136   21.3258 H         1 HCY1384     0.0000 
     50 H         -25.3712    1.9158   21.4553 H         1 HCY1384     0.0000 
     51 H         -23.1858   -2.3205   16.9187 H         1 HCY1384     0.0000 
     52 H         -22.7781   -1.3038   18.0962 H         1 HCY1384     0.0000 
     53 H         -24.2900   -1.8406   17.9848 H         1 HCY1384     0.0000 
     54 H         -26.3952   -0.7846   19.1109 H         1 HCY1384     0.0000 
     55 H         -27.0651    4.4705   18.9315 H         1 HCY1384     0.0000 
     56 H         -27.1649    3.0449   22.6571 H         1 HCY1384     0.0000 
@<TRIPOS>BOND
     1    2    1 1    
     2   10    1 1    
     3   27    1 1    
     4   28    1 1    
     5    3    2 1    
     6   29    2 1    
     7   30    2 1    
     8    4    3 1    
     9   22    3 2    
    10    5    4 2    
    11   31    4 1    
    12    6    5 1    
    13   10    5 1    
    14    7    6 1    
    15   32    6 1    
    16   33    6 1    
    17    8    7 1    
    18   34    7 1    
    19   35    7 1    
    20    9    8 1    
    21   14    8 1    
    22   36    8 1    
    23   10    9 1    
    24   12    9 1    
    25   37    9 1    
    26   19   10 1    
    27   12   11 1    
    28   13   11 1    
    29   38   11 1    
    30   39   11 1    
    31   23   12 1    
    32   40   12 1    
    33   14   13 1    
    34   17   13 1    
    35   18   13 1    
    36   15   14 1    
    37   41   14 1    
    38   16   15 1    
    39   42   15 1    
    40   43   15 1    
    41   17   16 1    
    42   44   16 1    
    43   45   16 1    
    44   20   17 1    
    45   24   17 1    
    46   48   18 1    
    47   49   18 1    
    48   50   18 1    
    49   51   19 1    
    50   52   19 1    
    51   53   19 1    
    52   21   20 1    
    53   25   20 2    
    54   26   21 1    
    55   46   21 1    
    56   47   21 1    
    57   54   23 1    
    58   55   24 1    
    59   56   26 1    
@<TRIPOS>SUBSTRUCTURE
     1 HCY1384     1 GROUP   
@<TRIPOS>SET

