#    Name: 3uli_1N3_1_INTS_M
#    Modification time : Mon Mar 24 22:54:19 2014

@<TRIPOS>MOLECULE
3uli_1N3_1_INTS_M
   77     0     9     0     0
SMALL
NO_CHARGES


@<TRIPOS>ATOM
      1 CA          8.6240   23.4125    7.9220 C.3       3 GLC5        0.0000 
      2 CA          6.9650   23.3700    8.1180 C.3       9 GLL5        0.0000 
      3 CA         10.2830   23.4550    7.7260 C.3       6 GLP5        0.0000 
      4 CA          4.0330   28.1070    9.5005 C.3       3 GLC5        0.0000 
      5 CA          4.1820   26.3340    8.1570 C.3       9 GLL5        0.0000 
      6 CA          3.8840   29.8800   10.8440 C.3       6 GLP5        0.0000 
      7 CA          2.6240   26.4200    5.9750 C.3       3 GLC5        0.0000 
      8 CA          4.1530   27.2980    7.1590 C.3       9 GLL5        0.0000 
      9 CA          1.0950   25.5420    4.7910 C.3       6 GLP5        0.0000 
     10 O           4.1605   30.2735    6.2030 O.2       1 ALC1        0.0000 
     11 O           3.2070   29.6280    6.7870 O.2       7 ALL1        0.0000 
     12 O           5.1140   30.9190    5.6190 O.2       4 ALP1        0.0000 
     13 CA          0.2530   30.8455    6.1205 C.3       3 GLC5        0.0000 
     14 CA          2.0920   30.2330    7.1780 C.3       9 GLL5        0.0000 
     15 CA         -1.5860   31.4580    5.0630 C.3       6 GLP5        0.0000 
     16 CA          0.0010   33.7210    8.5175 C.3       3 GLC5        0.0000 
     17 CA          0.4780   31.7790    7.5620 C.3       9 GLL5        0.0000 
     18 CA         -0.4760   35.6630    9.4730 C.3       6 GLP5        0.0000 
     19 CA          1.1635   32.8410    5.8920 C.3       3 GLC5        0.0000 
     20 CA          1.8490   33.9030    4.2220 C.3       6 GLP5        0.0000 
     21 CA         -2.6075   29.7860    7.5865 C.3       3 GLC5        0.0000 
     22 CA         -1.9660   31.5260    8.8450 C.3       9 GLL5        0.0000 
     23 CA         -3.2490   28.0460    6.3280 C.3       6 GLP5        0.0000 
     24 CA         -1.7760   31.4920    6.9540 C.3       3 GLC5        0.0000 
     25 CA         -1.2210   33.5945    9.1590 C.3       3 GLC5        0.0000 
     26 CA         -3.5550   32.4410    8.5950 C.3       3 GLC5        0.0000 
     27 CA         -5.1440   33.3560    8.3450 C.3       6 GLP5        0.0000 
     28 CA         -0.9055   25.4225    8.8920 C.3       3 GLC5        0.0000 
     29 CA         -0.4680   27.3420    9.4370 C.3       9 GLL5        0.0000 
     30 CA         -1.3430   23.5030    8.3470 C.3       6 GLP5        0.0000 
     31 CA         -2.1565   27.0720    8.2065 C.3       3 GLC5        0.0000 
     32 CA         -3.8450   26.8020    6.9760 C.3       6 GLP5        0.0000 
     33 CA          2.1385   28.6305   10.7675 C.3       3 GLC5        0.0000 
     34 CA          0.3930   27.3810   10.6910 C.3       9 GLL5        0.0000 
     35 CA          0.7470   28.4315   13.7865 C.3       3 GLC5        0.0000 
     36 CA         -0.2860   28.0970   11.8380 C.3       9 GLL5        0.0000 
     37 CA          1.7800   28.7660   15.7350 C.3       6 GLP5        0.0000 
     38 CA         -0.1350   30.0375   12.5480 C.3       3 GLC5        0.0000 
     39 CA          0.0160   31.9780   13.2580 C.3       6 GLP5        0.0000 
     40 CA         -4.5940   24.2730   10.8225 C.3       3 GLC5        0.0000 
     41 CA         -4.8350   26.3890   11.3950 C.3       9 GLL5        0.0000 
     42 CA         -4.3530   22.1570   10.2500 C.3       6 GLP5        0.0000 
     43 CA         -5.5575   24.5910   12.4415 C.3       3 GLC5        0.0000 
     44 CA         -6.2800   22.7930   13.4880 C.3       6 GLP5        0.0000 
     45 CA         -4.8910   24.2030   13.4445 C.3       3 GLC5        0.0000 
     46 CA         -3.5020   25.6130   13.4010 C.3       9 GLL5        0.0000 
     47 OD1        -4.0570   26.9835   15.2100 O.co2     2 ASC3        0.0000 
     48 OD1        -3.2490   26.0590   14.7910 O.co2     8 ASL3        0.0000 
     49 OD1        -4.8650   27.9080   15.6290 O.co2     5 ASP3        0.0000 
     50 O          -2.0565   26.9095   15.1625 O.2       1 ALC1        0.0000 
     51 O          -3.2490   26.0590   14.7910 O.2       7 ALL1        0.0000 
     52 O          -0.8640   27.7600   15.5340 O.2       4 ALP1        0.0000 
     53 O          -4.0570   26.9835   15.2100 O.2       1 ALC1        0.0000 
     54 O          -4.8650   27.9080   15.6290 O.2       4 ALP1        0.0000 
     55 CA          5.4355   26.4827    9.9032 C.3       3 GLC5        0.0000 
     56 CA          5.1780   25.3830    8.1940 C.3       9 GLL5        0.0000 
     57 CA          6.1910   27.1070   11.6310 C.3       6 GLP5        0.0000 
     58 CA          7.0862   27.7375    7.1285 C.3       3 GLC5        0.0000 
     59 CA          6.1640   25.4070    7.2250 C.3       9 GLL5        0.0000 
     60 CA          8.5310   28.8690    7.8010 C.3       6 GLP5        0.0000 
     61 CA          1.9797   30.7737    8.9973 C.3       3 GLC5        0.0000 
     62 CA          1.2730   29.1820    7.8690 C.3       9 GLL5        0.0000 
     63 CA          2.2770   31.8400   10.4710 C.3       6 GLP5        0.0000 
     64 CA          0.6051   28.8119    6.3531 C.3       3 GLC5        0.0000 
     65 CA          0.3490   28.0080    4.7420 C.3       6 GLP5        0.0000 
     66 CA         -1.6938   29.1185    7.3175 C.3       3 GLC5        0.0000 
     67 CA          0.0400   29.5240    8.4050 C.3       9 GLL5        0.0000 
     68 CA         -0.7081   31.2215    6.4987 C.3       3 GLC5        0.0000 
     69 CA          1.2234   31.4125    9.2027 C.3       3 GLC5        0.0000 
     70 CA         -4.1180   28.4533   13.7432 C.3       3 GLC5        0.0000 
     71 CA         -3.7700   26.7090   12.4100 C.3       9 GLL5        0.0000 
     72 CA         -3.7700   29.9140   15.0130 C.3       6 GLP5        0.0000 
     73 CA         -6.6947   27.4488   11.6645 C.3       3 GLC5        0.0000 
     74 CA         -5.1620   27.2760   12.5370 C.3       9 GLL5        0.0000 
     75 CA         -8.3910   28.0650   11.3630 C.3       6 GLP5        0.0000 
     76 CA         -4.6646   27.0523   10.2249 C.3       3 GLC5        0.0000 
     77 CA         -4.5970   27.1920    8.2300 C.3       6 GLP5        0.0000 
@<TRIPOS>BOND
@<TRIPOS>SUBSTRUCTURE
     1 ALC1       10 GROUP        1 X    ALC  0     ROOT ALC X 1
     2 ASC3       47 GROUP        1 X    ASC  0     **** ASC X 3
     3 GLC5        1 GROUP        1 X    GLC  0     **** GLC X 6
     4 ALP1       12 GROUP        1 Y    ALP  0     ROOT ALP Y 8
     5 ASP3       49 GROUP        1 Y    ASP  0     **** ASP Y 10
     6 GLP5        3 GROUP        1 Y    GLP  0     **** GLP Y 13
     7 ALL1       11 GROUP        1 Z    ALL  0     ROOT ALL Z 15
     8 ASL3       48 GROUP        1 Z    ASL  0     **** ASL Z 17
     9 GLL5        2 GROUP        1 Z    GLL  0     **** GLL Z 20
@<TRIPOS>SET

