#    Name: 3uli_1N3_1_ligand
#    Modification time : Mon Mar 24 22:54:19 2014

@<TRIPOS>MOLECULE
3uli_1N3_1_ligand
   56    59     1     0     0
SMALL
NO_CHARGES


@<TRIPOS>ATOM
      1 C1          6.9650   23.3700    8.1180 C.3       1 1N3299      0.0000 
      2 O2          7.2100   24.4700    7.2180 O.3       1 1N3299      0.0000 
      3 C3          6.1640   25.4070    7.2250 C.ar      1 1N3299      0.0000 
      4 C4          5.1780   25.3830    8.1940 C.ar      1 1N3299      0.0000 
      5 C5          4.1820   26.3340    8.1570 C.ar      1 1N3299      0.0000 
      6 C6          4.1530   27.2980    7.1590 C.ar      1 1N3299      0.0000 
      7 C7          5.1350   27.3240    6.1870 C.ar      1 1N3299      0.0000 
      8 C8          6.1320   26.3690    6.2250 C.ar      1 1N3299      0.0000 
      9 C9          3.0720   28.3190    7.2490 C.2       1 1N3299      0.0000 
     10 N10         3.2070   29.6280    6.7870 N.pl3     1 1N3299      0.0000 
     11 C11         2.0920   30.2330    7.1780 C.ar      1 1N3299      0.0000 
     12 C12         1.2730   29.1820    7.8690 C.ar      1 1N3299      0.0000 
     13 N13         1.9460   28.0750    7.8650 N.2       1 1N3299      0.0000 
     14 C14         0.0400   29.5240    8.4050 C.ar      1 1N3299      0.0000 
     15 C15        -0.3170   30.8580    8.2090 C.ar      1 1N3299      0.0000 
     16 C16         0.4780   31.7790    7.5620 C.ar      1 1N3299      0.0000 
     17 N17         1.6600   31.4580    7.0610 N.pl3     1 1N3299      0.0000 
     18 BR1        -1.9660   31.5260    8.8450 Br        1 1N3299      0.0000 
     19 N19        -0.8850   28.7000    9.0950 N.3       1 1N3299      0.0000 
     20 C20        -0.4680   27.3420    9.4370 C.3       1 1N3299      0.0000 
     21 C21         0.3930   27.3810   10.6910 C.3       1 1N3299      0.0000 
     22 C22        -0.2860   28.0970   11.8380 C.3       1 1N3299      0.0000 
     23 N23        -1.4080   27.3320   12.3190 N.am      1 1N3299      0.0000 
     24 C24        -2.7010   27.6520   11.9640 C.2       1 1N3299      0.0000 
     25 O25        -3.0000   28.6480   11.3080 O.2       1 1N3299      0.0000 
     26 C26        -3.7700   26.7090   12.4100 C.3       1 1N3299      0.0000 
     27 C27        -4.8350   26.3890   11.3950 C.3       1 1N3299      0.0000 
     28 C28        -5.1620   27.2760   12.5370 C.3       1 1N3299      0.0000 
     29 C29        -3.5020   25.6130   13.4010 C.3       1 1N3299      0.0000 
     30 N30        -3.2490   26.0590   14.7910 N.4       1 1N3299      0.0000 
     31 H           5.1900   24.6676    8.9277 H         1 1N3299      0.0000 
     32 H           3.4412   26.3334    8.8832 H         1 1N3299      0.0000 
     33 H           5.1234   28.0367    5.4540 H         1 1N3299      0.0000 
     34 H           6.8702   26.3682    5.4958 H         1 1N3299      0.0000 
     35 H           3.9392   29.9645    6.3101 H         1 1N3299      0.0000 
     36 H           0.1116   32.7656    7.4754 H         1 1N3299      0.0000 
     37 H           2.2371   32.1881    6.5761 H         1 1N3299      0.0000 
     38 H           0.1166   26.8990    8.6297 H         1 1N3299      0.0000 
     39 H          -1.3327   26.7061    9.6308 H         1 1N3299      0.0000 
     40 H           1.3409   27.8845   10.4582 H         1 1N3299      0.0000 
     41 H           0.6301   26.3523   10.9939 H         1 1N3299      0.0000 
     42 H          -0.6042   29.0882   11.4846 H         1 1N3299      0.0000 
     43 H           0.4567   28.2544   12.6332 H         1 1N3299      0.0000 
     44 H          -1.2116   26.5321   12.9415 H         1 1N3299      0.0000 
     45 H          -5.1647   25.5137   11.5779 H         1 1N3299      0.0000 
     46 H          -4.6775   26.9239   10.6221 H         1 1N3299      0.0000 
     47 H          -5.1386   28.1816   12.2425 H         1 1N3299      0.0000 
     48 H          -5.6258   26.7713   13.1984 H         1 1N3299      0.0000 
     49 H          -2.6320   25.0124   13.0406 H         1 1N3299      0.0000 
     50 H          -4.3658   24.9050   13.3907 H         1 1N3299      0.0000 
     51 H           7.7132   22.7066    8.1060 H         1 1N3299      0.0000 
     52 H           6.8628   23.6794    9.0634 H         1 1N3299      0.0000 
     53 H           6.1298   22.8743    7.8799 H         1 1N3299      0.0000 
     54 H          -2.4538   26.6625   14.8485 H         1 1N3299      0.0000 
     55 H          -4.0269   26.5625   15.1669 H         1 1N3299      0.0000 
     56 H          -3.0761   25.2873   15.4030 H         1 1N3299      0.0000 
@<TRIPOS>BOND
     1    2    1 1    
     2   51    1 1    
     3   52    1 1    
     4   53    1 1    
     5    3    2 1    
     6    4    3 ar   
     7    8    3 ar   
     8    5    4 ar   
     9   31    4 1    
    10    6    5 ar   
    11   32    5 1    
    12    7    6 ar   
    13    9    6 1    
    14    8    7 ar   
    15   33    7 1    
    16   34    8 1    
    17   10    9 1    
    18   13    9 2    
    19   11   10 1    
    20   35   10 1    
    21   12   11 ar   
    22   17   11 ar   
    23   13   12 1    
    24   14   12 ar   
    25   15   14 ar   
    26   19   14 1    
    27   16   15 ar   
    28   18   15 1    
    29   17   16 ar   
    30   36   16 1    
    31   37   17 1    
    32   20   19 1    
    33   21   20 1    
    34   38   20 1    
    35   39   20 1    
    36   22   21 1    
    37   40   21 1    
    38   41   21 1    
    39   23   22 1    
    40   42   22 1    
    41   43   22 1    
    42   24   23 am   
    43   44   23 1    
    44   25   24 2    
    45   26   24 1    
    46   27   26 1    
    47   28   26 1    
    48   29   26 1    
    49   28   27 1    
    50   45   27 1    
    51   46   27 1    
    52   47   28 1    
    53   48   28 1    
    54   30   29 1    
    55   49   29 1    
    56   50   29 1    
    57   54   30 1    
    58   55   30 1    
    59   56   30 1    
@<TRIPOS>SUBSTRUCTURE
     1 1N3299      1 GROUP   
@<TRIPOS>SET

