#    Name: 1df7_MTX_1_INTS_M
#    Modification time : Mon Mar 24 21:45:07 2014

@<TRIPOS>MOLECULE
1df7_MTX_1_INTS_M
   74     0    12     0     0
SMALL
NO_CHARGES


@<TRIPOS>ATOM
      1 N           6.9935   27.5575    7.9910 N.am      2 SEC2        0.0000 
      2 N           6.7120   26.3510    8.4440 N.am     10 SEL2        0.0000 
      3 N           7.2750   28.7640    7.5380 N.am      6 SEP2        0.0000 
      4 CA          6.1125   23.8290    6.2685 C.3       4 GLC5        0.0000 
      5 CA          6.8250   25.2990    7.5330 C.3      12 GLL5        0.0000 
      6 CA          5.4000   22.3590    5.0040 C.3       8 GLP5        0.0000 
      7 CA          8.1775   23.9730    7.1105 C.3       4 GLC5        0.0000 
      8 CA          9.5300   22.6470    6.6880 C.3       8 GLP5        0.0000 
      9 CA          8.5855   26.3170    7.3285 C.3       4 GLC5        0.0000 
     10 CA         10.3460   27.3350    7.1240 C.3       8 GLP5        0.0000 
     11 CA          4.7835   25.7220    7.5770 C.3       4 GLC5        0.0000 
     12 CA          2.7420   26.1450    7.6210 C.3       8 GLP5        0.0000 
     13 O           6.9500   27.0340    5.8080 O.2       1 ALC1        0.0000 
     14 O           6.9500   25.6560    6.2270 O.2       9 ALL1        0.0000 
     15 O           6.9500   28.4120    5.3890 O.2       5 ALP1        0.0000 
     16 O           7.1125   27.2100    6.8825 O.2       1 ALC1        0.0000 
     17 O           7.2750   28.7640    7.5380 O.2       5 ALP1        0.0000 
     18 O           6.9780   25.3325    4.7525 O.2       1 ALC1        0.0000 
     19 O           7.0060   25.0090    3.2780 O.2       5 ALP1        0.0000 
     20 CA          5.7215   22.0290    7.8715 C.3       4 GLC5        0.0000 
     21 CA          6.6750   23.5710    9.2040 C.3      12 GLL5        0.0000 
     22 CA          4.7680   20.4870    6.5390 C.3       8 GLP5        0.0000 
     23 CA          8.1025   23.1090    7.9460 C.3       4 GLC5        0.0000 
     24 O           7.1645   21.5375    8.4900 O.2       1 ALC1        0.0000 
     25 O           6.6440   22.3190    9.5450 O.2       9 ALL1        0.0000 
     26 O           7.6850   20.7560    7.4350 O.2       5 ALP1        0.0000 
     27 O           6.8885   21.3815   10.6360 O.2       1 ALC1        0.0000 
     28 O           7.1330   20.4440   11.7270 O.2       5 ALP1        0.0000 
     29 CA          4.6700   26.0785    8.6865 C.3       4 GLC5        0.0000 
     30 CA          6.5980   26.0120    9.7520 C.3      12 GLL5        0.0000 
     31 CA          7.7930   26.0430   13.4580 C.3       4 GLC5        0.0000 
     32 CA          6.0570   25.0280   13.7990 C.3      12 GLL5        0.0000 
     33 CA          9.5290   27.0580   13.1170 C.3       8 GLP5        0.0000 
     34 CA          4.6210   24.4680   15.1985 C.3       4 GLC5        0.0000 
     35 CA          3.1850   23.9080   16.5980 C.3       8 GLP5        0.0000 
     36 CA          7.6955   23.9395   12.8490 C.3       4 GLC5        0.0000 
     37 CA          9.3340   22.8510   11.8990 C.3       8 GLP5        0.0000 
     38 CA          7.9290   26.8025   14.4030 C.3       4 GLC5        0.0000 
     39 CA          6.3290   26.5470   15.6890 C.3      12 GLL5        0.0000 
     40 CA          4.7570   25.2275   16.1435 C.3       4 GLC5        0.0000 
     41 CA         -1.1840   26.7480   13.3055 C.3       4 GLC5        0.0000 
     42 CA         -1.4060   28.6610   12.1940 C.3      12 GLL5        0.0000 
     43 CA         -0.9620   24.8350   14.4170 C.3       8 GLP5        0.0000 
     44 NZ         -1.8870   25.2535   10.5860 N.4       3 LYC4        0.0000 
     45 NZ         -1.3990   26.5370   10.8400 N.4      11 LYL4        0.0000 
     46 NZ         -3.4720   23.6690   11.0090 N.4       7 LYP4        0.0000 
     47 N          -1.8870   25.2535   10.5860 N.am      2 SEC2        0.0000 
     48 N          -1.3990   26.5370   10.8400 N.am     10 SEL2        0.0000 
     49 N          -2.3750   23.9700   10.3320 N.am      6 SEP2        0.0000 
     50 N          -2.7375   25.5695   11.2950 N.am      2 SEC2        0.0000 
     51 N          -4.0760   24.6020   11.7500 N.am      6 SEP2        0.0000 
     52 NZ         -2.7375   25.5695   11.2950 N.4       3 LYC4        0.0000 
     53 NZ         -3.2960   27.3520   11.6440 N.4      11 LYL4        0.0000 
     54 N          -4.6810   27.7020   11.1850 N.am      2 SEC2        0.0000 
     55 N          -3.2960   27.3520   11.6440 N.am     10 SEL2        0.0000 
     56 N          -6.0660   28.0520   10.7260 N.am      6 SEP2        0.0000 
     57 N          -3.6860   25.9770   11.6970 N.am      2 SEC2        0.0000 
     58 CA         -3.0840   29.2095    9.7290 C.3       4 GLC5        0.0000 
     59 CA         -1.7240   29.7290   11.0740 C.3      12 GLL5        0.0000 
     60 CA         -4.4440   28.6900    8.3840 C.3       8 GLP5        0.0000 
     61 CA          0.7685   31.0070   10.5265 C.3       4 GLC5        0.0000 
     62 CA         -1.1970   31.1180   11.1710 C.3      12 GLL5        0.0000 
     63 CA          2.7340   30.8960    9.8820 C.3       8 GLP5        0.0000 
     64 CA          7.9038   26.5590   12.5875 C.3       4 GLC5        0.0000 
     65 CA          6.3700   26.6980   11.7940 C.3      12 GLL5        0.0000 
     66 CA          0.9415   27.7880   15.8388 C.3       4 GLC5        0.0000 
     67 CA          2.6870   28.4490   14.7550 C.3      12 GLL5        0.0000 
     68 CA         -0.3570   27.3940   17.4000 C.3       8 GLP5        0.0000 
     69 CA          0.5200   26.0890   13.9245 C.3       4 GLC5        0.0000 
     70 CA          1.7930   27.9150   13.8000 C.3      12 GLL5        0.0000 
     71 CA          3.1682   28.0993   16.7995 C.3       4 GLC5        0.0000 
     72 CA          3.0490   27.9680   18.6280 C.3       8 GLP5        0.0000 
     73 CA          3.4418   25.3445   15.3565 C.3       4 GLC5        0.0000 
     74 CA          3.3170   26.1960   13.4180 C.3      12 GLL5        0.0000 
@<TRIPOS>BOND
@<TRIPOS>SUBSTRUCTURE
     1 ALC1       13 GROUP        1 X    ALC  0     ROOT ALC X 1
     2 SEC2        1 GROUP        1 X    SEC  0     **** SEC X 2
     3 LYC4       44 GROUP        1 X    LYC  0     **** LYC X 4
     4 GLC5        4 GROUP        1 X    GLC  0     **** GLC X 6
     5 ALP1       15 GROUP        1 Y    ALP  0     ROOT ALP Y 8
     6 SEP2        3 GROUP        1 Y    SEP  0     **** SEP Y 9
     7 LYP4       46 GROUP        1 Y    LYP  0     **** LYP Y 11
     8 GLP5        6 GROUP        1 Y    GLP  0     **** GLP Y 13
     9 ALL1       14 GROUP        1 Z    ALL  0     ROOT ALL Z 15
    10 SEL2        2 GROUP        1 Z    SEL  0     **** SEL Z 16
    11 LYL4       45 GROUP        1 Z    LYL  0     **** LYL Z 18
    12 GLL5        5 GROUP        1 Z    GLL  0     **** GLL Z 20
@<TRIPOS>SET

