#    Name: 1df7_MTX_1_ligand
#    Modification time : Mon Mar 24 21:45:07 2014

@<TRIPOS>MOLECULE
1df7_MTX_1_ligand
   53    55     1     0     0
SMALL
NO_CHARGES


@<TRIPOS>ATOM
      1 N1          6.7120   26.3510    8.4440 N.ar      1 MTX501      0.0000 
      2 C2          6.8250   25.2990    7.5330 C.ar      1 MTX501      0.0000 
      3 NA2         6.9500   25.6560    6.2270 N.pl3     1 MTX501      0.0000 
      4 N3          6.8130   24.0250    7.9440 N.ar      1 MTX501      0.0000 
      5 C4          6.6750   23.5710    9.2040 C.ar      1 MTX501      0.0000 
      6 NA4         6.6440   22.3190    9.5450 N.pl3     1 MTX501      0.0000 
      7 C4A         6.5200   24.6630   10.1800 C.ar      1 MTX501      0.0000 
      8 N5          6.2860   24.3910   11.4880 N.ar      1 MTX501      0.0000 
      9 C6          6.1870   25.4220   12.3220 C.ar      1 MTX501      0.0000 
     10 C7          6.3700   26.6980   11.7940 C.ar      1 MTX501      0.0000 
     11 N8          6.4820   27.0630   10.6270 N.ar      1 MTX501      0.0000 
     12 C8A         6.5980   26.0120    9.7520 C.ar      1 MTX501      0.0000 
     13 C9          6.0570   25.0280   13.7990 C.3       1 MTX501      0.0000 
     14 N10         5.4740   26.0960   14.5250 N.pl3     1 MTX501      0.0000 
     15 CM          6.3290   26.5470   15.6890 C.3       1 MTX501      0.0000 
     16 C11         1.7930   27.9150   13.8000 C.ar      1 MTX501      0.0000 
     17 C12         2.6870   28.4490   14.7550 C.ar      1 MTX501      0.0000 
     18 C13         3.8880   28.0120   15.1870 C.ar      1 MTX501      0.0000 
     19 C14         4.2720   26.7200   14.4370 C.ar      1 MTX501      0.0000 
     20 C15         3.3170   26.1960   13.4180 C.ar      1 MTX501      0.0000 
     21 C16         2.2110   26.7710   13.0640 C.ar      1 MTX501      0.0000 
     22 C           0.6730   28.6080   13.5920 C.2       1 MTX501      0.0000 
     23 O           0.0900   29.5830   14.1060 O.2       1 MTX501      0.0000 
     24 N          -0.1670   28.4160   12.6270 N.am      1 MTX501      0.0000 
     25 CA         -1.4060   28.6610   12.1940 C.3       1 MTX501      0.0000 
     26 CT         -1.9290   27.4210   11.4820 C.2       1 MTX501      0.0000 
     27 O1         -1.3990   26.5370   10.8400 O.co2     1 MTX501      0.0000 
     28 O2         -3.2960   27.3520   11.6440 O.co2     1 MTX501      0.0000 
     29 CB         -1.7240   29.7290   11.0740 C.3       1 MTX501      0.0000 
     30 CG         -1.1970   31.1180   11.1710 C.3       1 MTX501      0.0000 
     31 CD         -0.8190   32.3040   10.0600 C.2       1 MTX501      0.0000 
     32 OE1         0.1360   33.2680   10.2230 O.co2     1 MTX501      0.0000 
     33 OE2        -1.7500   31.7850    9.2870 O.co2     1 MTX501      0.0000 
     34 H           6.9608   26.6380    6.0384 H         1 MTX501      0.0000 
     35 H           7.0201   24.9051    5.5703 H         1 MTX501      0.0000 
     36 H           6.7306   21.6577    8.7999 H         1 MTX501      0.0000 
     37 H           6.5364   22.1314   10.5213 H         1 MTX501      0.0000 
     38 H           6.4145   27.4732   12.6090 H         1 MTX501      0.0000 
     39 H           7.0610   24.7802   14.1625 H         1 MTX501      0.0000 
     40 H           5.4490   24.1170   13.8437 H         1 MTX501      0.0000 
     41 H           2.3184   29.3897   15.2170 H         1 MTX501      0.0000 
     42 H           4.4776   28.3604   15.8329 H         1 MTX501      0.0000 
     43 H           3.6386   25.2713   12.9914 H         1 MTX501      0.0000 
     44 H           1.6151   26.4595   12.2901 H         1 MTX501      0.0000 
     45 H           0.3853   27.7428   11.7625 H         1 MTX501      0.0000 
     46 H          -2.1623   28.8415   12.9750 H         1 MTX501      0.0000 
     47 H          -2.8530   29.7559   10.9747 H         1 MTX501      0.0000 
     48 H          -1.3965   29.2649   10.0929 H         1 MTX501      0.0000 
     49 H          -0.2153   31.0981   11.8571 H         1 MTX501      0.0000 
     50 H          -1.8717   31.7196   11.9569 H         1 MTX501      0.0000 
     51 H           7.2289   26.8629   15.3884 H         1 MTX501      0.0000 
     52 H           5.9058   27.3018   16.1902 H         1 MTX501      0.0000 
     53 H           6.4819   25.8084   16.3456 H         1 MTX501      0.0000 
@<TRIPOS>BOND
     1    2    1 ar   
     2   12    1 ar   
     3    3    2 1    
     4    4    2 ar   
     5   34    3 1    
     6   35    3 1    
     7    5    4 ar   
     8    6    5 1    
     9    7    5 ar   
    10   36    6 1    
    11   37    6 1    
    12    8    7 ar   
    13   12    7 ar   
    14    9    8 ar   
    15   10    9 ar   
    16   13    9 1    
    17   11   10 ar   
    18   38   10 1    
    19   12   11 ar   
    20   14   13 1    
    21   39   13 1    
    22   40   13 1    
    23   15   14 1    
    24   19   14 1    
    25   51   15 1    
    26   52   15 1    
    27   53   15 1    
    28   17   16 ar   
    29   21   16 ar   
    30   22   16 1    
    31   18   17 ar   
    32   41   17 1    
    33   19   18 ar   
    34   42   18 1    
    35   20   19 ar   
    36   21   20 ar   
    37   43   20 1    
    38   44   21 1    
    39   23   22 2    
    40   24   22 am   
    41   25   24 1    
    42   45   24 1    
    43   26   25 1    
    44   29   25 1    
    45   46   25 1    
    46   27   26 ar   
    47   28   26 ar   
    48   30   29 1    
    49   47   29 1    
    50   48   29 1    
    51   31   30 1    
    52   49   30 1    
    53   50   30 1    
    54   32   31 ar   
    55   33   31 ar   
@<TRIPOS>SUBSTRUCTURE
     1 MTX501      1 GROUP   
@<TRIPOS>SET

