#    Name: 4ixc_1JD_1_INTS_M
#    Modification time : Tue Mar 25 04:53:08 2014

@<TRIPOS>MOLECULE
4ixc_1JD_1_INTS_M
   77     0     9     0     0
SMALL
NO_CHARGES


@<TRIPOS>ATOM
      1 CA         57.0605    8.9810   14.4270 C.3       3 GLC5        0.0000 
      2 CA         55.5760   10.3870   14.9480 C.3       9 GLL5        0.0000 
      3 CA         58.5450    7.5750   13.9060 C.3       6 GLP5        0.0000 
      4 CA         58.3290    9.4725   15.4105 C.3       3 GLC5        0.0000 
      5 CA         57.8290   11.4370   15.4070 C.3       9 GLL5        0.0000 
      6 CA         58.8290    7.5080   15.4140 C.3       6 GLP5        0.0000 
      7 CA         56.7345   14.7845   15.2060 C.3       3 GLC5        0.0000 
      8 CA         57.8900   13.5800   16.5080 C.3       9 GLL5        0.0000 
      9 CA         55.5790   15.9890   13.9040 C.3       6 GLP5        0.0000 
     10 N          55.9360   14.9090   16.4265 N.am      2 SEC2        0.0000 
     11 N          56.5620   13.5850   16.5610 N.am      8 SEL2        0.0000 
     12 N          55.3100   16.2330   16.2920 N.am      5 SEP2        0.0000 
     13 CA         55.7350   14.2765   14.9805 C.3       3 GLC5        0.0000 
     14 CA         55.8910   12.5640   16.0570 C.3       9 GLL5        0.0000 
     15 CA         54.4535   13.7745   16.9170 C.3       3 GLC5        0.0000 
     16 CA         53.0160   14.9850   17.7770 C.3       6 GLP5        0.0000 
     17 O          57.7610   15.5920   17.8195 O.2       1 ALC1        0.0000 
     18 O          58.5600   14.7170   17.0850 O.2       7 ALL1        0.0000 
     19 O          56.9620   16.4670   18.5540 O.2       4 ALP1        0.0000 
     20 CA         59.6030   15.2065   19.2985 C.3       3 GLC5        0.0000 
     21 CA         60.2490   16.3200   17.6810 C.3       9 GLL5        0.0000 
     22 CA         58.9570   14.0930   20.9160 C.3       6 GLP5        0.0000 
     23 CA         58.7030   20.8875   16.6660 C.3       3 GLC5        0.0000 
     24 CA         60.1320   19.9100   17.3620 C.3       9 GLL5        0.0000 
     25 CA         57.2740   21.8650   15.9700 C.3       6 GLP5        0.0000 
     26 CA         62.8730   19.3595   15.1635 C.3       3 GLC5        0.0000 
     27 CA         61.4650   20.0540   16.6700 C.3       9 GLL5        0.0000 
     28 CA         64.2810   18.6650   13.6570 C.3       6 GLP5        0.0000 
     29 CA         63.2255   20.3265   17.0300 C.3       3 GLC5        0.0000 
     30 CA         64.9860   20.5990   17.3900 C.3       6 GLP5        0.0000 
     31 CA         58.8485   22.1770   17.6370 C.3       3 GLC5        0.0000 
     32 CA         59.9910   20.9860   18.4350 C.3       9 GLL5        0.0000 
     33 CA         57.7060   23.3680   16.8390 C.3       6 GLP5        0.0000 
     34 CA         60.6525   14.8660   19.7210 C.3       3 GLC5        0.0000 
     35 CA         62.3480   15.6390   18.5260 C.3       9 GLL5        0.0000 
     36 N          64.1775   13.2120   21.5185 N.am      2 SEC2        0.0000 
     37 N          63.7030   13.9180   20.2570 N.am      8 SEL2        0.0000 
     38 N          64.6520   12.5060   22.7800 N.am      5 SEP2        0.0000 
     39 CA         60.6785   14.1020   20.5680 C.3       3 GLC5        0.0000 
     40 CA         62.4000   14.1110   20.2200 C.3       9 GLL5        0.0000 
     41 CA         63.0685   14.2785   22.0595 C.3       3 GLC5        0.0000 
     42 CA         63.7370   14.4460   23.8990 C.3       6 GLP5        0.0000 
     43 CA         62.5380   12.7850   18.9505 C.3       3 GLC5        0.0000 
     44 CA         62.6760   11.4590   17.6810 C.3       6 GLP5        0.0000 
     45 CA         69.2535   10.3385   18.9535 C.3       3 GLC5        0.0000 
     46 CA         68.1110   12.0840   19.7170 C.3       9 GLL5        0.0000 
     47 CA         70.3960    8.5930   18.1900 C.3       6 GLP5        0.0000 
     48 CA         70.5070   12.3445   21.5295 C.3       3 GLC5        0.0000 
     49 CA         68.6290   12.5490   20.9040 C.3       9 GLL5        0.0000 
     50 CA         72.3850   12.1400   22.1550 C.3       6 GLP5        0.0000 
     51 CA         65.9535   10.7505   18.2465 C.3       3 GLC5        0.0000 
     52 CA         66.3700   12.3760   17.6370 C.3       9 GLL5        0.0000 
     53 CA         65.5370    9.1250   18.8560 C.3       6 GLP5        0.0000 
     54 CA         66.5155   12.6775   15.7650 C.3       3 GLC5        0.0000 
     55 CA         66.6610   12.9790   13.8930 C.3       6 GLP5        0.0000 
     56 CA         64.5230   11.9175   17.6590 C.3       3 GLC5        0.0000 
     57 CA         56.0343   10.7890   13.2513 C.3       3 GLC5        0.0000 
     58 CA         56.4590   11.4910   15.4830 C.3       9 GLL5        0.0000 
     59 CA         56.0510   10.6390   11.2870 C.3       6 GLP5        0.0000 
     60 CA         59.1248   12.3545   14.0898 C.3       3 GLC5        0.0000 
     61 CA         60.0480   12.7410   12.5120 C.3       6 GLP5        0.0000 
     62 CA         59.1794   11.9535   17.1574 C.3       3 GLC5        0.0000 
     63 CA         58.5740   12.4990   15.9280 C.3       9 GLL5        0.0000 
     64 CA         60.3130   11.1330   18.2270 C.3       6 GLP5        0.0000 
     65 CA         58.9402   17.0153   15.7155 C.3       3 GLC5        0.0000 
     66 CA         57.9070   17.0740   14.0430 C.3       6 GLP5        0.0000 
     67 CA         60.3422   20.5060   15.2585 C.3       3 GLC5        0.0000 
     68 CA         59.8860   21.0300   13.5010 C.3       6 GLP5        0.0000 
     69 CA         61.8867   20.8005   18.7137 C.3       3 GLC5        0.0000 
     70 CA         63.7120   21.1530   19.5290 C.3       6 GLP5        0.0000 
     71 CA         63.1778   13.2941   18.2930 C.3       3 GLC5        0.0000 
     72 CA         66.0452   12.2782   21.0723 C.3       3 GLC5        0.0000 
     73 CA         66.6910   13.9780   19.7180 C.3       9 GLL5        0.0000 
     74 CA         65.1820   11.1580   22.7200 C.3       6 GLP5        0.0000 
     75 CA         66.5778   10.7883   19.1400 C.3       3 GLC5        0.0000 
     76 CA         67.1260   12.8190   19.1310 C.3       9 GLL5        0.0000 
     77 CA         66.7195   12.0891   21.8029 C.3       3 GLC5        0.0000 
@<TRIPOS>BOND
@<TRIPOS>SUBSTRUCTURE
     1 ALC1       17 GROUP        1 X    ALC  0     ROOT ALC X 1
     2 SEC2       10 GROUP        1 X    SEC  0     **** SEC X 2
     3 GLC5        1 GROUP        1 X    GLC  0     **** GLC X 6
     4 ALP1       19 GROUP        1 Y    ALP  0     ROOT ALP Y 8
     5 SEP2       12 GROUP        1 Y    SEP  0     **** SEP Y 9
     6 GLP5        3 GROUP        1 Y    GLP  0     **** GLP Y 13
     7 ALL1       18 GROUP        1 Z    ALL  0     ROOT ALL Z 15
     8 SEL2       11 GROUP        1 Z    SEL  0     **** SEL Z 16
     9 GLL5        2 GROUP        1 Z    GLL  0     **** GLL Z 20
@<TRIPOS>SET

