#    Name: 4ixc_1JD_1_ligand
#    Modification time : Tue Mar 25 04:53:08 2014

@<TRIPOS>MOLECULE
4ixc_1JD_1_ligand
   55    58     1     0     0
SMALL
NO_CHARGES


@<TRIPOS>ATOM
      1 C1         55.5760   10.3870   14.9480 C.3       1 1JD503      0.0000 
      2 C2         56.4590   11.4910   15.4830 C.ar      1 1JD503      0.0000 
      3 C3         57.8290   11.4370   15.4070 C.ar      1 1JD503      0.0000 
      4 C4         58.5740   12.4990   15.9280 C.ar      1 1JD503      0.0000 
      5 C5         57.8900   13.5800   16.5080 C.ar      1 1JD503      0.0000 
      6 N1         56.5620   13.5850   16.5610 N.ar      1 1JD503      0.0000 
      7 C6         55.8910   12.5640   16.0570 C.ar      1 1JD503      0.0000 
      8 N2         58.5600   14.7170   17.0850 N.am      1 1JD503      0.0000 
      9 C7         59.8390   15.0540   16.9230 C.2       1 1JD503      0.0000 
     10 O1         60.6610   14.4180   16.2260 O.2       1 1JD503      0.0000 
     11 C8         60.2490   16.3200   17.6810 C.3       1 1JD503      0.0000 
     12 C9         59.6980   17.5930   17.0950 C.3       1 1JD503      0.0000 
     13 O2         60.0510   18.6360   17.9880 O.3       1 1JD503      0.0000 
     14 C10        60.1320   19.9100   17.3620 C.3       1 1JD503      0.0000 
     15 C11        61.4650   20.0540   16.6700 C.3       1 1JD503      0.0000 
     16 C12        59.9910   20.9860   18.4350 C.3       1 1JD503      0.0000 
     17 O3         61.6710   16.4570   17.7050 O.3       1 1JD503      0.0000 
     18 C13        62.3480   15.6390   18.5260 C.ar      1 1JD503      0.0000 
     19 C14        63.7340   15.5520   18.4320 C.ar      1 1JD503      0.0000 
     20 C15        64.8130   16.0850   17.6850 C.2       1 1JD503      0.0000 
     21 N3         65.9600   15.5810   18.0860 N.2       1 1JD503      0.0000 
     22 N4         65.6580   14.7290   19.1210 N.pl3     1 1JD503      0.0000 
     23 C16        64.3180   14.6630   19.3310 C.ar      1 1JD503      0.0000 
     24 N5         63.7030   13.9180   20.2570 N.ar      1 1JD503      0.0000 
     25 C17        62.4000   14.1110   20.2200 C.ar      1 1JD503      0.0000 
     26 N6         61.6920   14.9170   19.4230 N.ar      1 1JD503      0.0000 
     27 C18        66.6910   13.9780   19.7180 C.ar      1 1JD503      0.0000 
     28 C19        67.1260   12.8190   19.1310 C.ar      1 1JD503      0.0000 
     29 C20        68.1110   12.0840   19.7170 C.ar      1 1JD503      0.0000 
     30 C21        68.6290   12.5490   20.9040 C.ar      1 1JD503      0.0000 
     31 C22        68.1440   13.7240   21.4610 C.ar      1 1JD503      0.0000 
     32 N7         67.1620   14.4550   20.8810 N.ar      1 1JD503      0.0000 
     33 CL1        66.3700   12.3760   17.6370 Cl        1 1JD503      0.0000 
     34 H          58.3056   10.6409   14.9800 H         1 1JD503      0.0000 
     35 H          59.5883   12.4919   15.8894 H         1 1JD503      0.0000 
     36 H          54.8145   12.5858   16.1058 H         1 1JD503      0.0000 
     37 H          57.9276   15.3327   17.7042 H         1 1JD503      0.0000 
     38 H          59.8771   16.2356   18.7075 H         1 1JD503      0.0000 
     39 H          58.6206   17.4878   16.9967 H         1 1JD503      0.0000 
     40 H          60.1346   17.7348   16.1097 H         1 1JD503      0.0000 
     41 H          59.3474   20.0481   16.6439 H         1 1JD503      0.0000 
     42 H          64.6667   16.7401   16.9743 H         1 1JD503      0.0000 
     43 H          61.8011   13.5258   20.9498 H         1 1JD503      0.0000 
     44 H          68.4559   11.2223   19.2984 H         1 1JD503      0.0000 
     45 H          69.3784   12.0277   21.3843 H         1 1JD503      0.0000 
     46 H          68.5648   14.0481   22.3699 H         1 1JD503      0.0000 
     47 H          55.7070   10.2495   13.9662 H         1 1JD503      0.0000 
     48 H          55.7639    9.5120   15.3942 H         1 1JD503      0.0000 
     49 H          54.6062   10.5857   15.0893 H         1 1JD503      0.0000 
     50 H          62.2273   19.9779   17.3128 H         1 1JD503      0.0000 
     51 H          61.5989   19.3507   15.9719 H         1 1JD503      0.0000 
     52 H          61.5532   20.9398   16.2144 H         1 1JD503      0.0000 
     53 H          60.7140   20.9216   19.1228 H         1 1JD503      0.0000 
     54 H          60.0372   21.9063   18.0464 H         1 1JD503      0.0000 
     55 H          59.1188   20.9157   18.9191 H         1 1JD503      0.0000 
@<TRIPOS>BOND
     1    2    1 1    
     2   47    1 1    
     3   48    1 1    
     4   49    1 1    
     5    3    2 ar   
     6    7    2 ar   
     7    4    3 ar   
     8   34    3 1    
     9    5    4 ar   
    10   35    4 1    
    11    6    5 ar   
    12    8    5 1    
    13    7    6 ar   
    14   36    7 1    
    15    9    8 am   
    16   37    8 1    
    17   10    9 2    
    18   11    9 1    
    19   12   11 1    
    20   17   11 1    
    21   38   11 1    
    22   13   12 1    
    23   39   12 1    
    24   40   12 1    
    25   14   13 1    
    26   15   14 1    
    27   16   14 1    
    28   41   14 1    
    29   50   15 1    
    30   51   15 1    
    31   52   15 1    
    32   53   16 1    
    33   54   16 1    
    34   55   16 1    
    35   18   17 1    
    36   19   18 ar   
    37   26   18 ar   
    38   20   19 1    
    39   23   19 ar   
    40   21   20 2    
    41   42   20 1    
    42   22   21 1    
    43   23   22 1    
    44   27   22 1    
    45   24   23 ar   
    46   25   24 ar   
    47   26   25 ar   
    48   43   25 1    
    49   28   27 ar   
    50   32   27 ar   
    51   29   28 ar   
    52   33   28 1    
    53   30   29 ar   
    54   44   29 1    
    55   31   30 ar   
    56   45   30 1    
    57   32   31 ar   
    58   46   31 1    
@<TRIPOS>SUBSTRUCTURE
     1 1JD503      1 GROUP   
@<TRIPOS>SET

