#    Name: 2p3q_SAH_2_INTS_M
#    Modification time : Mon Mar 24 18:17:11 2014

@<TRIPOS>MOLECULE
2p3q_SAH_2_INTS_M
   61     0    12     0     0
SMALL
NO_CHARGES


@<TRIPOS>ATOM
      1 OD1       -11.4415   82.2160    9.2565 O.co2     3 ASC3        0.0000 
      2 OD1       -11.3170   82.5160    7.6490 O.co2    11 ASL3        0.0000 
      3 OD1       -11.5660   81.9160   10.8640 O.co2     7 ASP3        0.0000 
      4 O         -12.5070   83.1600    7.7475 O.2       1 ALC1        0.0000 
      5 O         -11.3170   82.5160    7.6490 O.2       9 ALL1        0.0000 
      6 O         -13.6970   83.8040    7.8460 O.2       5 ALP1        0.0000 
      7 O         -11.3570   82.8685    5.9795 O.2       1 ALC1        0.0000 
      8 O         -11.3970   83.2210    4.3100 O.2       5 ALP1        0.0000 
      9 CA        -11.3020   84.7700    6.5275 C.3       4 GLC5        0.0000 
     10 CA        -10.0690   83.3050    7.6860 C.3      12 GLL5        0.0000 
     11 CA        -12.5350   86.2350    5.3690 C.3       8 GLP5        0.0000 
     12 CA        -10.8660   81.3165    7.3560 C.3       4 GLC5        0.0000 
     13 CA        -11.6630   79.3280    7.0260 C.3       8 GLP5        0.0000 
     14 CA        -11.5865   83.4305   10.0025 C.3       4 GLC5        0.0000 
     15 CA         -9.6450   83.6620    9.1010 C.3      12 GLL5        0.0000 
     16 CA        -13.5280   83.1990   10.9040 C.3       8 GLP5        0.0000 
     17 CA         -9.3480   86.5400    7.7545 C.3       4 GLC5        0.0000 
     18 CA         -9.4370   85.1670    9.2480 C.3      12 GLL5        0.0000 
     19 CA         -9.2590   87.9130    6.2610 C.3       8 GLP5        0.0000 
     20 N          -7.6060   81.1890    6.6305 N.am      2 SEC2        0.0000 
     21 N          -9.1450   81.3130    6.9300 N.am     10 SEL2        0.0000 
     22 N          -6.0670   81.0650    6.3310 N.am      6 SEP2        0.0000 
     23 N          -6.9920   82.0735    6.4855 N.am      2 SEC2        0.0000 
     24 N          -7.9170   83.0820    6.6400 N.am     10 SEL2        0.0000 
     25 N          -8.3435   82.7195    5.0715 N.am      2 SEC2        0.0000 
     26 N          -8.7700   82.3570    3.5030 N.am      6 SEP2        0.0000 
     27 CA        -12.3185   84.9675   10.8455 C.3       4 GLC5        0.0000 
     28 CA        -11.1090   86.7360   10.7870 C.3      12 GLL5        0.0000 
     29 CA        -10.0890   88.0225    8.2180 C.3       4 GLC5        0.0000 
     30 CA        -10.9190   88.1320   10.1750 C.3      12 GLL5        0.0000 
     31 CA        -12.9765   89.2655    9.2165 C.3       4 GLC5        0.0000 
     32 CA        -11.6390   90.3050   10.3480 C.3      12 GLL5        0.0000 
     33 CA        -14.3140   88.2260    8.0850 C.3       8 GLP5        0.0000 
     34 CA        -16.2080   94.8595    9.6800 C.3       4 GLC5        0.0000 
     35 CA        -15.4270   93.2590   11.0290 C.3      12 GLL5        0.0000 
     36 CA        -16.9890   96.4600    8.3310 C.3       8 GLP5        0.0000 
     37 CA        -17.1710   92.5370   10.4035 C.3       4 GLC5        0.0000 
     38 CA        -18.9150   91.8150    9.7780 C.3       8 GLP5        0.0000 
     39 N         -17.0685   94.0330    9.1875 N.am      2 SEC2        0.0000 
     40 N         -15.6920   93.4890    9.6820 N.am     10 SEL2        0.0000 
     41 N         -18.4450   94.5770    8.6930 N.am      6 SEP2        0.0000 
     42 CA        -14.0465   92.3605    7.2255 C.3       4 GLC5        0.0000 
     43 CA        -14.8940   92.9060    8.7200 C.3      12 GLL5        0.0000 
     44 CA        -13.1990   91.8150    5.7310 C.3       8 GLP5        0.0000 
     45 CA        -13.6300   94.2480    9.2410 C.3       4 GLC5        0.0000 
     46 CA        -12.3660   95.5900    9.7620 C.3       8 GLP5        0.0000 
     47 CA        -15.9415   94.6830    8.5255 C.3       4 GLC5        0.0000 
     48 CA        -16.5415   92.4770    8.0935 C.3       4 GLC5        0.0000 
     49 CA        -18.1890   92.0480    7.4670 C.3       8 GLP5        0.0000 
     50 N         -13.0635   92.8645    8.0990 N.am      2 SEC2        0.0000 
     51 N         -13.8450   92.0870    9.1090 N.am     10 SEL2        0.0000 
     52 N         -12.2820   93.6420    7.0890 N.am      6 SEP2        0.0000 
     53 CA        -13.9540   90.0415    9.2555 C.3       4 GLC5        0.0000 
     54 CA        -13.5940   91.8570   10.4260 C.3      12 GLL5        0.0000 
     55 CA        -14.5425   90.1875   11.2120 C.3       4 GLC5        0.0000 
     56 CA        -15.4910   88.5180   11.9980 C.3       8 GLP5        0.0000 
     57 CA        -12.6640   87.8300    9.2830 C.3       4 GLC5        0.0000 
     58 CA        -15.7863   90.9975   11.2758 C.3       4 GLC5        0.0000 
     59 CA        -16.6720   89.1470   11.3310 C.3       8 GLP5        0.0000 
     60 CA        -13.3066   93.9712   10.2926 C.3       4 GLC5        0.0000 
     61 CA        -14.3740   92.4370   11.4120 C.3      12 GLL5        0.0000 
@<TRIPOS>BOND
@<TRIPOS>SUBSTRUCTURE
     1 ALC1        4 GROUP        1 X    ALC  0     ROOT ALC X 1
     2 SEC2       20 GROUP        1 X    SEC  0     **** SEC X 2
     3 ASC3        1 GROUP        1 X    ASC  0     **** ASC X 3
     4 GLC5        9 GROUP        1 X    GLC  0     **** GLC X 6
     5 ALP1        6 GROUP        1 Y    ALP  0     ROOT ALP Y 8
     6 SEP2       22 GROUP        1 Y    SEP  0     **** SEP Y 9
     7 ASP3        3 GROUP        1 Y    ASP  0     **** ASP Y 10
     8 GLP5       11 GROUP        1 Y    GLP  0     **** GLP Y 13
     9 ALL1        5 GROUP        1 Z    ALL  0     ROOT ALL Z 15
    10 SEL2       21 GROUP        1 Z    SEL  0     **** SEL Z 16
    11 ASL3        2 GROUP        1 Z    ASL  0     **** ASL Z 17
    12 GLL5       10 GROUP        1 Z    GLL  0     **** GLL Z 20
@<TRIPOS>SET

