#    Name: 2p3q_SAH_2_ligand
#    Modification time : Mon Mar 24 18:17:11 2014

@<TRIPOS>MOLECULE
2p3q_SAH_2_ligand
   46    48     1     0     0
SMALL
NO_CHARGES


@<TRIPOS>ATOM
      1 N         -11.3170   82.5160    7.6490 N.4       1 SAH1001     0.0000 
      2 CA        -10.0690   83.3050    7.6860 C.3       1 SAH1001     0.0000 
      3 CB         -9.6450   83.6620    9.1010 C.3       1 SAH1001     0.0000 
      4 CG         -9.4370   85.1670    9.2480 C.3       1 SAH1001     0.0000 
      5 SD         -9.6330   85.6750   10.9740 S.3       1 SAH1001     0.0000 
      6 C          -8.9610   82.5240    7.0440 C.2       1 SAH1001     0.0000 
      7 O          -9.1450   81.3130    6.9300 O.co2     1 SAH1001     0.0000 
      8 OXT        -7.9170   83.0820    6.6400 O.co2     1 SAH1001     0.0000 
      9 C5'       -11.1090   86.7360   10.7870 C.3       1 SAH1001     0.0000 
     10 C4'       -10.9190   88.1320   10.1750 C.3       1 SAH1001     0.0000 
     11 O4'       -12.0540   88.9450   10.3890 O.3       1 SAH1001     0.0000 
     12 C3'        -9.7500   88.9430   10.7190 C.3       1 SAH1001     0.0000 
     13 O3'        -8.7390   88.8640    9.7440 O.3       1 SAH1001     0.0000 
     14 C2'       -10.2640   90.3650   10.9500 C.3       1 SAH1001     0.0000 
     15 O2'        -9.6030   91.3700   10.2280 O.3       1 SAH1001     0.0000 
     16 C1'       -11.6390   90.3050   10.3480 C.3       1 SAH1001     0.0000 
     17 N9        -12.6360   91.1100   11.0630 N.pl3     1 SAH1001     0.0000 
     18 C8        -12.8370   91.2200   12.4240 C.2       1 SAH1001     0.0000 
     19 N7        -13.9020   92.0360   12.6160 N.2       1 SAH1001     0.0000 
     20 C5        -14.3740   92.4370   11.4120 C.ar      1 SAH1001     0.0000 
     21 C6        -15.4270   93.2590   11.0290 C.ar      1 SAH1001     0.0000 
     22 N6        -16.1910   93.8210   11.9620 N.pl3     1 SAH1001     0.0000 
     23 N1        -15.6920   93.4890    9.6820 N.ar      1 SAH1001     0.0000 
     24 C2        -14.8940   92.9060    8.7200 C.ar      1 SAH1001     0.0000 
     25 N3        -13.8450   92.0870    9.1090 N.ar      1 SAH1001     0.0000 
     26 C4        -13.5940   91.8570   10.4260 C.ar      1 SAH1001     0.0000 
     27 H         -10.1975   84.2269    7.1275 H         1 SAH1001     0.0000 
     28 H          -8.7139   83.1471    9.3413 H         1 SAH1001     0.0000 
     29 H         -10.4142   83.3370    9.8028 H         1 SAH1001     0.0000 
     30 H         -10.1757   85.7507    8.7510 H         1 SAH1001     0.0000 
     31 H          -8.4455   85.4848    9.0258 H         1 SAH1001     0.0000 
     32 H         -11.4944   86.7672   11.8115 H         1 SAH1001     0.0000 
     33 H         -11.7719   86.0963   10.1950 H         1 SAH1001     0.0000 
     34 H         -10.7565   88.0167    9.0956 H         1 SAH1001     0.0000 
     35 H          -9.4687   88.5146   11.6520 H         1 SAH1001     0.0000 
     36 H         -10.3674   90.5440   11.9755 H         1 SAH1001     0.0000 
     37 H         -11.5749   90.6315    9.3149 H         1 SAH1001     0.0000 
     38 H         -12.3130   90.7931   13.0962 H         1 SAH1001     0.0000 
     39 H         -15.9426   93.6254   12.9107 H         1 SAH1001     0.0000 
     40 H         -16.9448   94.3883   11.6305 H         1 SAH1001     0.0000 
     41 H         -15.0725   93.0750    7.7228 H         1 SAH1001     0.0000 
     42 H         -11.5862   82.2905    6.7127 H         1 SAH1001     0.0000 
     43 H         -11.2249   81.6518    8.1437 H         1 SAH1001     0.0000 
     44 H         -12.0814   83.0105    8.0627 H         1 SAH1001     0.0000 
     45 H          -8.7328   89.7622    9.3045 H         1 SAH1001     0.0000 
     46 H         -10.2334   91.6171    9.4920 H         1 SAH1001     0.0000 
@<TRIPOS>BOND
     1    2    1 1    
     2   42    1 1    
     3   43    1 1    
     4   44    1 1    
     5    3    2 1    
     6    6    2 1    
     7   27    2 1    
     8    4    3 1    
     9   28    3 1    
    10   29    3 1    
    11    5    4 1    
    12   30    4 1    
    13   31    4 1    
    14    9    5 1    
    15    7    6 ar   
    16    8    6 ar   
    17   10    9 1    
    18   32    9 1    
    19   33    9 1    
    20   11   10 1    
    21   12   10 1    
    22   34   10 1    
    23   16   11 1    
    24   13   12 1    
    25   14   12 1    
    26   35   12 1    
    27   45   13 1    
    28   15   14 1    
    29   16   14 1    
    30   36   14 1    
    31   46   15 1    
    32   17   16 1    
    33   37   16 1    
    34   18   17 1    
    35   26   17 1    
    36   19   18 2    
    37   38   18 1    
    38   20   19 1    
    39   21   20 ar   
    40   26   20 ar   
    41   22   21 1    
    42   23   21 ar   
    43   39   22 1    
    44   40   22 1    
    45   24   23 ar   
    46   25   24 ar   
    47   41   24 1    
    48   26   25 ar   
@<TRIPOS>SUBSTRUCTURE
     1 SAH1001     1 GROUP   
@<TRIPOS>SET

