#    Name: 1adf_TAD_1_INTS_M
#    Modification time : Mon Mar 24 18:16:14 2014

@<TRIPOS>MOLECULE
1adf_TAD_1_INTS_M
   60     0     9     0     0
SMALL
NO_CHARGES


@<TRIPOS>ATOM
      1 CA         15.3265    8.0990   32.0120 C.3       3 GLC5        0.0000 
      2 CA         15.0370    6.9800   30.5600 C.3       9 GLL5        0.0000 
      3 CA         15.6160    9.2180   33.4640 C.3       6 GLP5        0.0000 
      4 N          17.0955    8.9400   30.7240 N.am      2 SEC2        0.0000 
      5 N          17.2090    7.6360   29.7560 N.am      8 SEL2        0.0000 
      6 N          16.9820   10.2440   31.6920 N.am      5 SEP2        0.0000 
      7 O          18.0815    8.0520   30.8595 O.2       1 ALC1        0.0000 
      8 O          17.2090    7.6360   29.7560 O.2       7 ALL1        0.0000 
      9 O          18.9540    8.4680   31.9630 O.2       4 ALP1        0.0000 
     10 O          18.9045    5.8545   31.2440 O.2       1 ALC1        0.0000 
     11 O          18.2070    5.2800   30.2780 O.2       7 ALL1        0.0000 
     12 O          19.6020    6.4290   32.2100 O.2       4 ALP1        0.0000 
     13 CA         16.0425    7.4525   32.6885 C.3       3 GLC5        0.0000 
     14 CA         16.4690    5.6870   31.9130 C.3       9 GLL5        0.0000 
     15 CA         14.9255    6.2340   33.3065 C.3       3 GLC5        0.0000 
     16 CA         13.3820    6.7810   34.7000 C.3       6 GLP5        0.0000 
     17 CA         17.4630    2.2935   34.1065 C.3       3 GLC5        0.0000 
     18 CA         16.0540    3.4070   34.6300 C.3       9 GLL5        0.0000 
     19 CA         18.8720    1.1800   33.5830 C.3       6 GLP5        0.0000 
     20 CA         18.0290    2.5910   36.1625 C.3       3 GLC5        0.0000 
     21 CA         16.0430    3.0480   35.9600 C.3       9 GLL5        0.0000 
     22 CA         20.0150    2.1340   36.3650 C.3       6 GLP5        0.0000 
     23 CA         14.7380    3.5705   37.5020 C.3       3 GLC5        0.0000 
     24 CA         13.4330    4.0930   39.0440 C.3       6 GLP5        0.0000 
     25 CA         18.6965    6.1490   35.6655 C.3       3 GLC5        0.0000 
     26 CA         17.1680    5.0770   36.3240 C.3       9 GLL5        0.0000 
     27 CA         20.2250    7.2210   35.0070 C.3       6 GLP5        0.0000 
     28 CA         18.5915    3.6055   36.3445 C.3       3 GLC5        0.0000 
     29 CA         18.6995    4.9655   37.9280 C.3       3 GLC5        0.0000 
     30 CA         20.2310    4.8540   39.5320 C.3       6 GLP5        0.0000 
     31 CA         15.5075    5.6455   36.1810 C.3       3 GLC5        0.0000 
     32 CA         13.8470    6.2140   36.0380 C.3       6 GLP5        0.0000 
     33 CA         18.1770    3.4960   33.9755 C.3       3 GLC5        0.0000 
     34 CA         16.6210    4.5630   34.1400 C.3       9 GLL5        0.0000 
     35 CA         19.7330    2.4290   33.8110 C.3       6 GLP5        0.0000 
     36 CA         14.3660    9.7105   27.0585 C.3       3 GLC5        0.0000 
     37 CA         12.8290    8.4810   26.5220 C.3       9 GLL5        0.0000 
     38 CA         15.9030   10.9400   27.5950 C.3       6 GLP5        0.0000 
     39 N          12.6785   12.6330   26.9750 N.am      2 SEC2        0.0000 
     40 N          12.5530   11.1220   26.7060 N.am      8 SEL2        0.0000 
     41 N          12.8040   14.1440   27.2440 N.am      5 SEP2        0.0000 
     42 CA          8.4005    5.8975   25.6765 C.3       3 GLC5        0.0000 
     43 CA          9.0660    6.3250   27.3190 C.3       9 GLL5        0.0000 
     44 CA          7.7350    5.4700   24.0340 C.3       6 GLP5        0.0000 
     45 O           9.8000    5.0780   30.4200 O.2       1 ALC1        0.0000 
     46 O           9.5150    4.5720   28.9890 O.2       7 ALL1        0.0000 
     47 O          10.0850    5.5840   31.8510 O.2       4 ALP1        0.0000 
     48 CA         10.1715    6.9735   31.3120 C.3       3 GLC5        0.0000 
     49 CA          8.8310    6.9110   29.5710 C.3       9 GLL5        0.0000 
     50 CA         11.5120    7.0360   33.0530 C.3       6 GLP5        0.0000 
     51 CA          8.2890    6.4955   31.3785 C.3       3 GLC5        0.0000 
     52 CA          7.7470    6.0800   33.1860 C.3       6 GLP5        0.0000 
     53 CA          6.3030   10.0280   30.8290 C.3       3 GLC5        0.0000 
     54 CA          7.9390    9.6180   29.5740 C.3       9 GLL5        0.0000 
     55 CA          4.6670   10.4380   32.0840 C.3       6 GLP5        0.0000 
     56 CA         12.9470    6.8860   31.6567 C.3       3 GLC5        0.0000 
     57 CA         13.7270    6.4920   29.9610 C.3       9 GLL5        0.0000 
     58 CA         15.0909    5.0546   35.3777 C.3       3 GLC5        0.0000 
     59 CA          5.3310    9.7543   30.5253 C.3       3 GLC5        0.0000 
     60 CA          6.2650    9.6870   29.0660 C.3       9 GLL5        0.0000 
@<TRIPOS>BOND
@<TRIPOS>SUBSTRUCTURE
     1 ALC1        7 GROUP        1 X    ALC  0     ROOT ALC X 1
     2 SEC2        4 GROUP        1 X    SEC  0     **** SEC X 2
     3 GLC5        1 GROUP        1 X    GLC  0     **** GLC X 6
     4 ALP1        9 GROUP        1 Y    ALP  0     ROOT ALP Y 8
     5 SEP2        6 GROUP        1 Y    SEP  0     **** SEP Y 9
     6 GLP5        3 GROUP        1 Y    GLP  0     **** GLP Y 13
     7 ALL1        8 GROUP        1 Z    ALL  0     ROOT ALL Z 15
     8 SEL2        5 GROUP        1 Z    SEL  0     **** SEL Z 16
     9 GLL5        2 GROUP        1 Z    GLL  0     **** GLL Z 20
@<TRIPOS>SET

