#    Name: 1adf_TAD_1_ligand
#    Modification time : Mon Mar 24 18:16:14 2014

@<TRIPOS>MOLECULE
1adf_TAD_1_ligand
   68    72     1     0     0
SMALL
NO_CHARGES


@<TRIPOS>ATOM
      1 PA         13.3710    6.9930   27.3760 P.3       1 TAD378      0.0000 
      2 O1A        12.5700    5.7240   27.2580 O.co2     1 TAD378      0.0000 
      3 O2A        14.7670    6.9720   26.8400 O.co2     1 TAD378      0.0000 
      4 O5B        13.3000    7.4050   28.9340 O.3       1 TAD378      0.0000 
      5 C5B        13.7270    6.4920   29.9610 C.3       1 TAD378      0.0000 
      6 C4B        15.0370    6.9800   30.5600 C.3       1 TAD378      0.0000 
      7 O4B        15.2220    6.3800   31.8490 O.3       1 TAD378      0.0000 
      8 C3B        16.2530    6.5760   29.7590 C.3       1 TAD378      0.0000 
      9 O3B        17.2090    7.6360   29.7560 O.3       1 TAD378      0.0000 
     10 C2B        16.7890    5.3560   30.4810 C.3       1 TAD378      0.0000 
     11 O2B        18.2070    5.2800   30.2780 O.3       1 TAD378      0.0000 
     12 C1B        16.4690    5.6870   31.9130 C.3       1 TAD378      0.0000 
     13 N9A        16.3450    4.5300   32.8230 N.pl3     1 TAD378      0.0000 
     14 C8A        15.6490    3.4040   32.5690 C.2       1 TAD378      0.0000 
     15 N7A        15.4370    2.7000   33.6920 N.2       1 TAD378      0.0000 
     16 C5A        16.0540    3.4070   34.6300 C.ar      1 TAD378      0.0000 
     17 C6A        16.0430    3.0480   35.9600 C.ar      1 TAD378      0.0000 
     18 N6A        15.4460    1.9320   36.3700 N.pl3     1 TAD378      0.0000 
     19 N1A        16.6330    3.9410   36.7770 N.ar      1 TAD378      0.0000 
     20 C2A        17.1680    5.0770   36.3240 C.ar      1 TAD378      0.0000 
     21 N3A        17.1890    5.4060   35.0360 N.ar      1 TAD378      0.0000 
     22 C4A        16.6210    4.5630   34.1400 C.ar      1 TAD378      0.0000 
     23 C3         12.8290    8.4810   26.5220 C.3       1 TAD378      0.0000 
     24 PN         12.3240    9.8950   27.5450 P.3       1 TAD378      0.0000 
     25 O1N        12.5530   11.1220   26.7060 O.co2     1 TAD378      0.0000 
     26 O2N        13.0290    9.9420   28.8760 O.co2     1 TAD378      0.0000 
     27 O5D        10.7080    9.6650   27.6530 O.3       1 TAD378      0.0000 
     28 C5D        10.0180    8.6010   26.9320 C.3       1 TAD378      0.0000 
     29 C4D        10.1380    7.3080   27.7350 C.3       1 TAD378      0.0000 
     30 O4D         9.9010    7.7280   29.0740 O.3       1 TAD378      0.0000 
     31 C3D         9.0660    6.3250   27.3190 C.3       1 TAD378      0.0000 
     32 O3D         9.6520    5.2360   26.5850 O.3       1 TAD378      0.0000 
     33 C2D         8.6750    5.7020   28.6470 C.3       1 TAD378      0.0000 
     34 O2D         9.5150    4.5720   28.9890 O.3       1 TAD378      0.0000 
     35 C1D         8.8310    6.9110   29.5710 C.3       1 TAD378      0.0000 
     36 C2N         7.7110    7.8670   29.3790 C.2       1 TAD378      0.0000 
     37 N3N         6.5170    7.3920   29.0220 N.2       1 TAD378      0.0000 
     38 C4N         5.7250    8.4540   28.8670 C.2       1 TAD378      0.0000 
     39 C5N         6.2650    9.6870   29.0660 C.2       1 TAD378      0.0000 
     40 S1N         7.9390    9.6180   29.5740 S.3       1 TAD378      0.0000 
     41 C6N         4.3190    8.1320   28.4970 C.2       1 TAD378      0.0000 
     42 O6N         3.3670    8.9060   28.5710 O.2       1 TAD378      0.0000 
     43 N6N         4.1960    6.8820   28.0690 N.am      1 TAD378      0.0000 
     44 H          13.8894    5.4868   29.5602 H         1 TAD378      0.0000 
     45 H          12.9894    6.4225   30.7663 H         1 TAD378      0.0000 
     46 H          15.0186    8.0482   30.6479 H         1 TAD378      0.0000 
     47 H          15.9386    6.2879   28.7887 H         1 TAD378      0.0000 
     48 H          16.2572    4.5178   30.1795 H         1 TAD378      0.0000 
     49 H          17.2312    6.3717   32.2776 H         1 TAD378      0.0000 
     50 H          15.3375    3.1352   31.6737 H         1 TAD378      0.0000 
     51 H          15.0243    1.3712   35.6574 H         1 TAD378      0.0000 
     52 H          15.4728    1.7545   37.3538 H         1 TAD378      0.0000 
     53 H          17.5989    5.7520   37.0314 H         1 TAD378      0.0000 
     54 H          11.9802    8.2141   25.9431 H         1 TAD378      0.0000 
     55 H          13.6468    8.8160   25.9339 H         1 TAD378      0.0000 
     56 H          10.4625    8.4389   25.9522 H         1 TAD378      0.0000 
     57 H           8.9618    8.8316   26.8088 H         1 TAD378      0.0000 
     58 H          11.0949    6.9079   27.6046 H         1 TAD378      0.0000 
     59 H           8.2739    6.7742   26.8904 H         1 TAD378      0.0000 
     60 H           7.6352    5.4673   28.5950 H         1 TAD378      0.0000 
     61 H           8.9474    6.6545   30.5483 H         1 TAD378      0.0000 
     62 H           5.9546   10.5651   28.9960 H         1 TAD378      0.0000 
     63 H           5.0350    6.3382   28.0520 H         1 TAD378      0.0000 
     64 H           3.2754    6.5968   27.8022 H         1 TAD378      0.0000 
     65 H          17.5942    7.6395   30.6788 H         1 TAD378      0.0000 
     66 H          18.6066    5.7500   31.0651 H         1 TAD378      0.0000 
     67 H          10.6322    5.2942   26.7743 H         1 TAD378      0.0000 
     68 H           9.7760    4.7229   29.9425 H         1 TAD378      0.0000 
@<TRIPOS>BOND
     1    2    1 ar   
     2    3    1 ar   
     3    4    1 1    
     4   23    1 1    
     5    5    4 1    
     6    6    5 1    
     7   44    5 1    
     8   45    5 1    
     9    7    6 1    
    10    8    6 1    
    11   46    6 1    
    12   12    7 1    
    13    9    8 1    
    14   10    8 1    
    15   47    8 1    
    16   65    9 1    
    17   11   10 1    
    18   12   10 1    
    19   48   10 1    
    20   66   11 1    
    21   13   12 1    
    22   49   12 1    
    23   14   13 1    
    24   22   13 1    
    25   15   14 2    
    26   50   14 1    
    27   16   15 1    
    28   17   16 ar   
    29   22   16 ar   
    30   18   17 1    
    31   19   17 ar   
    32   51   18 1    
    33   52   18 1    
    34   20   19 ar   
    35   21   20 ar   
    36   53   20 1    
    37   22   21 ar   
    38   24   23 1    
    39   54   23 1    
    40   55   23 1    
    41   25   24 ar   
    42   26   24 ar   
    43   27   24 1    
    44   28   27 1    
    45   29   28 1    
    46   56   28 1    
    47   57   28 1    
    48   30   29 1    
    49   31   29 1    
    50   58   29 1    
    51   35   30 1    
    52   32   31 1    
    53   33   31 1    
    54   59   31 1    
    55   67   32 1    
    56   34   33 1    
    57   35   33 1    
    58   60   33 1    
    59   68   34 1    
    60   36   35 1    
    61   61   35 1    
    62   37   36 2    
    63   40   36 1    
    64   38   37 1    
    65   39   38 2    
    66   41   38 1    
    67   40   39 1    
    68   62   39 1    
    69   42   41 2    
    70   43   41 am   
    71   63   43 1    
    72   64   43 1    
@<TRIPOS>SUBSTRUCTURE
     1 TAD378      1 GROUP   
@<TRIPOS>SET

