#    Name: 2ovz_5MR_2_INTS_M
#    Modification time : Mon Mar 24 17:53:47 2014

@<TRIPOS>MOLECULE
2ovz_5MR_2_INTS_M
   68     0    12     0     0
SMALL
NO_CHARGES


@<TRIPOS>ATOM
      1 CA         71.9655   10.8355   56.1765 C.3       4 GLC5        0.0000 
      2 CA         72.8030   11.8870   54.5030 C.3      12 GLL5        0.0000 
      3 CA         71.1280    9.7840   57.8500 C.3       8 GLP5        0.0000 
      4 CA         70.9865   10.6335   53.5050 C.3       4 GLC5        0.0000 
      5 CA         72.6490   10.8330   53.6090 C.3      12 GLL5        0.0000 
      6 CA         69.3240   10.4340   53.4010 C.3       8 GLP5        0.0000 
      7 N          72.0290   17.9175   58.4400 N.am      2 SEC2        0.0000 
      8 N          72.0680   16.7180   58.0580 N.am     10 SEL2        0.0000 
      9 N          71.9900   19.1170   58.8220 N.am      6 SEP2        0.0000 
     10 O          70.6755   13.3265   57.9930 O.2       1 ALC1        0.0000 
     11 O          71.1870   14.7480   58.7200 O.2       9 ALL1        0.0000 
     12 O          70.1640   11.9050   57.2660 O.2       5 ALP1        0.0000 
     13 O          72.1740   17.2535   55.3135 O.2       1 ALC1        0.0000 
     14 O          71.3200   15.8520   55.3590 O.2       9 ALL1        0.0000 
     15 O          73.0280   18.6550   55.2680 O.2       5 ALP1        0.0000 
     16 N          68.4185   13.7835   55.3160 N.am      2 SEC2        0.0000 
     17 N          69.2560   14.9250   55.2010 N.am     10 SEL2        0.0000 
     18 N          67.5810   12.6420   55.4310 N.am      6 SEP2        0.0000 
     19 Zn         70.8355   18.9970   50.8110 Zn        3 ZIC7        0.0000 
     20 Zn         71.0420   18.1190   50.8750 Zn       11 ZIL7        0.0000 
     21 Zn         70.6290   19.8750   50.7470 Zn        7 ZIP7        0.0000 
     22 N          67.2460   17.7815   51.2445 N.am      2 SEC2        0.0000 
     23 N          68.4600   17.4520   50.6870 N.am     10 SEL2        0.0000 
     24 N          66.0320   18.1110   51.8020 N.am      6 SEP2        0.0000 
     25 CA         69.8135   12.3645   49.5405 C.3       4 GLC5        0.0000 
     26 CA         69.9970   14.0990   48.1300 C.3      12 GLL5        0.0000 
     27 CA         69.6300   10.6300   50.9510 C.3       8 GLP5        0.0000 
     28 CA         67.8740   17.0410   56.6745 C.3       4 GLC5        0.0000 
     29 CA         68.1880   18.3480   54.8750 C.3      12 GLL5        0.0000 
     30 CA         67.5600   15.7340   58.4740 C.3       8 GLP5        0.0000 
     31 CA         66.0770   18.1105   55.2820 C.3       4 GLC5        0.0000 
     32 CA         63.9660   17.8730   55.6890 C.3       8 GLP5        0.0000 
     33 CA         68.5075   20.5560   54.2685 C.3       4 GLC5        0.0000 
     34 CA         69.0530   19.2470   55.3380 C.3      12 GLL5        0.0000 
     35 CA         67.9620   21.8650   53.1990 C.3       8 GLP5        0.0000 
     36 CA         67.4075   22.0570   55.7415 C.3       4 GLC5        0.0000 
     37 CA         68.2050   21.8750   57.7510 C.3      12 GLL5        0.0000 
     38 CA         66.6100   22.2390   53.7320 C.3       8 GLP5        0.0000 
     39 CA         69.8530   25.1510   57.0315 C.3       4 GLC5        0.0000 
     40 CA         70.0730   23.3170   58.2430 C.3      12 GLL5        0.0000 
     41 CA         69.6330   26.9850   55.8200 C.3       8 GLP5        0.0000 
     42 CA         71.1590   23.2720   59.9930 C.3       4 GLC5        0.0000 
     43 CA         72.2450   23.2270   61.7430 C.3       8 GLP5        0.0000 
     44 CA         72.6500   23.5025   56.7685 C.3       4 GLC5        0.0000 
     45 CA         70.8670   22.5750   57.3730 C.3      12 GLL5        0.0000 
     46 CA         74.4330   24.4300   56.1640 C.3       8 GLP5        0.0000 
     47 CA         72.2315   20.4225   57.2165 C.3       4 GLC5        0.0000 
     48 CA         70.3290   21.4860   56.6940 C.3      12 GLL5        0.0000 
     49 CA         74.1340   19.3590   57.7390 C.3       8 GLP5        0.0000 
     50 CA         71.2075   11.8120   54.5198 C.3       4 GLC5        0.0000 
     51 CA         73.3030   13.1070   54.0560 C.3      12 GLL5        0.0000 
     52 CA         69.3620   11.1270   54.7600 C.3       8 GLP5        0.0000 
     53 CA         71.4380   11.1182   51.4977 C.3       4 GLC5        0.0000 
     54 CA         72.9960   10.9970   52.2670 C.3      12 GLL5        0.0000 
     55 CA         68.0987   14.0125   48.4557 C.3       4 GLC5        0.0000 
     56 CA         66.4240   13.4630   48.3140 C.3       8 GLP5        0.0000 
     57 CA         68.3072   19.3813   53.3023 C.3       4 GLC5        0.0000 
     58 CA         68.3730   17.2750   53.7980 C.3      12 GLL5        0.0000 
     59 CA         68.3340   20.9510   52.2680 C.3       8 GLP5        0.0000 
     60 CA         68.8120   21.5870   54.9925 C.3       4 GLC5        0.0000 
     61 CA         68.9950   21.1320   56.8780 C.3      12 GLL5        0.0000 
     62 CA         69.7115   20.5207   58.4497 C.3       4 GLC5        0.0000 
     63 CA         70.8230   19.5380   59.5850 C.3       8 GLP5        0.0000 
     64 CA         67.6580   24.0892   57.1108 C.3       4 GLC5        0.0000 
     65 CA         66.8430   25.7590   56.1300 C.3       8 GLP5        0.0000 
     66 CA         70.1150   21.3392   58.9612 C.3       4 GLC5        0.0000 
     67 CA         68.7410   22.9640   58.4320 C.3      12 GLL5        0.0000 
     68 CA         70.7105   20.7843   58.3092 C.3       4 GLC5        0.0000 
@<TRIPOS>BOND
@<TRIPOS>SUBSTRUCTURE
     1 ALC1       10 GROUP        1 X    ALC  0     ROOT ALC X 1
     2 SEC2        7 GROUP        1 X    SEC  0     **** SEC X 2
     3 ZIC7       19 GROUP        1 X    ZIC  0     **** ZIC X 5
     4 GLC5        1 GROUP        1 X    GLC  0     **** GLC X 6
     5 ALP1       12 GROUP        1 Y    ALP  0     ROOT ALP Y 8
     6 SEP2        9 GROUP        1 Y    SEP  0     **** SEP Y 9
     7 ZIP7       21 GROUP        1 Y    ZIP  0     **** ZIP Y 12
     8 GLP5        3 GROUP        1 Y    GLP  0     **** GLP Y 13
     9 ALL1       11 GROUP        1 Z    ALL  0     ROOT ALL Z 15
    10 SEL2        8 GROUP        1 Z    SEL  0     **** SEL Z 16
    11 ZIL7       20 GROUP        1 Z    ZIL  0     **** ZIL Z 19
    12 GLL5        2 GROUP        1 Z    GLL  0     **** GLL Z 20
@<TRIPOS>SET

