#    Name: 2ovz_5MR_2_ligand
#    Modification time : Mon Mar 24 17:53:47 2014

@<TRIPOS>MOLECULE
2ovz_5MR_2_ligand
   68    72     1     0     0
SMALL
NO_CHARGES


@<TRIPOS>ATOM
      1 CD2        73.3030   13.1070   54.0560 C.ar      1 5MR502      0.0000 
      2 CE3        72.8030   11.8870   54.5030 C.ar      1 5MR502      0.0000 
      3 CZ3        72.6490   10.8330   53.6090 C.ar      1 5MR502      0.0000 
      4 CH2        72.9960   10.9970   52.2670 C.ar      1 5MR502      0.0000 
      5 CZ2        73.4960   12.2160   51.8220 C.ar      1 5MR502      0.0000 
      6 CE2        73.6500   13.2710   52.7160 C.ar      1 5MR502      0.0000 
      7 NE1        74.0990   14.5150   52.5720 N.pl3     1 5MR502      0.0000 
      8 CD1        74.0480   15.1420   53.7450 C.2       1 5MR502      0.0000 
      9 CG         73.5690   14.3210   54.6780 C.2       1 5MR502      0.0000 
     10 CB         73.3160   14.6910   56.1420 C.3       1 5MR502      0.0000 
     11 CA         71.8330   14.9620   56.4110 C.3       1 5MR502      0.0000 
     12 C          71.6920   15.5680   57.8080 C.2       1 5MR502      0.0000 
     13 O          72.0680   16.7180   58.0580 O.2       1 5MR502      0.0000 
     14 NAA        71.1870   14.7480   58.7200 N.am      1 5MR502      0.0000 
     15 N          71.3200   15.8520   55.3590 N.am      1 5MR502      0.0000 
     16 CBD        70.0970   15.7450   54.8380 C.2       1 5MR502      0.0000 
     17 OAC        69.2560   14.9250   55.2010 O.2       1 5MR502      0.0000 
     18 CBL        69.7980   16.7230   53.6990 C.3       1 5MR502      0.0000 
     19 CAX        69.9460   15.9480   52.3880 C.3       1 5MR502      0.0000 
     20 PBN        69.8590   17.0360   50.9450 P.3       1 5MR502      0.0000 
     21 OAE        71.0420   18.1190   50.8750 O.co2     1 5MR502      0.0000 
     22 OAD        68.4600   17.4520   50.6870 O.co2     1 5MR502      0.0000 
     23 CBG        70.4580   15.8670   49.7060 C.ar      1 5MR502      0.0000 
     24 CAP        69.5500   15.0250   49.0650 C.ar      1 5MR502      0.0000 
     25 CAJ        69.9970   14.0990   48.1300 C.ar      1 5MR502      0.0000 
     26 CAG        71.3550   14.0110   47.8340 C.ar      1 5MR502      0.0000 
     27 CAK        72.2630   14.8510   48.4720 C.ar      1 5MR502      0.0000 
     28 CAQ        71.8140   15.7790   49.4090 C.ar      1 5MR502      0.0000 
     29 CAV        68.3730   17.2750   53.7980 C.3       1 5MR502      0.0000 
     30 CBF        68.1880   18.3480   54.8750 C.2       1 5MR502      0.0000 
     31 CAU        69.0530   19.2470   55.3380 C.2       1 5MR502      0.0000 
     32 OBB        66.9730   18.5760   55.4510 O.3       1 5MR502      0.0000 
     33 NAY        67.1580   19.6880   56.2950 N.2       1 5MR502      0.0000 
     34 CBH        68.4320   20.0580   56.1950 C.2       1 5MR502      0.0000 
     35 CBE        68.9950   21.1320   56.8780 C.ar      1 5MR502      0.0000 
     36 CAN        68.2050   21.8750   57.7510 C.ar      1 5MR502      0.0000 
     37 CAH        68.7410   22.9640   58.4320 C.ar      1 5MR502      0.0000 
     38 CAF        70.0730   23.3170   58.2430 C.ar      1 5MR502      0.0000 
     39 CAI        70.8670   22.5750   57.3730 C.ar      1 5MR502      0.0000 
     40 CAO        70.3290   21.4860   56.6940 C.ar      1 5MR502      0.0000 
     41 H          72.5487   11.7664   55.4905 H         1 5MR502      0.0000 
     42 H          72.2792    9.9307   53.9347 H         1 5MR502      0.0000 
     43 H          72.8812   10.2157   51.6097 H         1 5MR502      0.0000 
     44 H          73.7515   12.3378   50.8342 H         1 5MR502      0.0000 
     45 H          74.4175   14.9085   51.7338 H         1 5MR502      0.0000 
     46 H          74.3227   16.0721   53.9001 H         1 5MR502      0.0000 
     47 H          73.8938   15.5835   56.3909 H         1 5MR502      0.0000 
     48 H          73.6520   13.8722   56.7816 H         1 5MR502      0.0000 
     49 H          71.3191   14.0151   56.3912 H         1 5MR502      0.0000 
     50 H          70.9919   13.8162   58.4141 H         1 5MR502      0.0000 
     51 H          71.0470   15.1358   59.6311 H         1 5MR502      0.0000 
     52 H          71.9939   16.5918   55.0391 H         1 5MR502      0.0000 
     53 H          70.5006   17.5154   53.7147 H         1 5MR502      0.0000 
     54 H          69.1473   15.2599   52.2077 H         1 5MR502      0.0000 
     55 H          70.9036   15.4860   52.2723 H         1 5MR502      0.0000 
     56 H          68.5474   15.0910   49.2861 H         1 5MR502      0.0000 
     57 H          69.3275   13.4795   47.6570 H         1 5MR502      0.0000 
     58 H          71.6866   13.3251   47.1438 H         1 5MR502      0.0000 
     59 H          73.2649   14.7871   48.2523 H         1 5MR502      0.0000 
     60 H          72.4855   16.3982   49.8803 H         1 5MR502      0.0000 
     61 H          67.6811   16.4412   54.0030 H         1 5MR502      0.0000 
     62 H          68.0856   17.6976   52.8208 H         1 5MR502      0.0000 
     63 H          69.9976   19.3051   55.0893 H         1 5MR502      0.0000 
     64 H          67.2175   21.6169   57.8937 H         1 5MR502      0.0000 
     65 H          68.1513   23.5080   59.0755 H         1 5MR502      0.0000 
     66 H          70.4693   24.1209   58.7425 H         1 5MR502      0.0000 
     67 H          71.8529   22.8323   57.2320 H         1 5MR502      0.0000 
     68 H          70.9203   20.9389   56.0520 H         1 5MR502      0.0000 
@<TRIPOS>BOND
     1    2    1 ar   
     2    6    1 ar   
     3    9    1 1    
     4    3    2 ar   
     5   41    2 1    
     6    4    3 ar   
     7   42    3 1    
     8    5    4 ar   
     9   43    4 1    
    10    6    5 ar   
    11   44    5 1    
    12    7    6 1    
    13    8    7 1    
    14   45    7 1    
    15    9    8 2    
    16   46    8 1    
    17   10    9 1    
    18   11   10 1    
    19   47   10 1    
    20   48   10 1    
    21   12   11 1    
    22   15   11 1    
    23   49   11 1    
    24   13   12 2    
    25   14   12 am   
    26   50   14 1    
    27   51   14 1    
    28   16   15 am   
    29   52   15 1    
    30   17   16 2    
    31   18   16 1    
    32   19   18 1    
    33   29   18 1    
    34   53   18 1    
    35   20   19 1    
    36   54   19 1    
    37   55   19 1    
    38   21   20 ar   
    39   22   20 ar   
    40   23   20 1    
    41   24   23 ar   
    42   28   23 ar   
    43   25   24 ar   
    44   56   24 1    
    45   26   25 ar   
    46   57   25 1    
    47   27   26 ar   
    48   58   26 1    
    49   28   27 ar   
    50   59   27 1    
    51   60   28 1    
    52   30   29 1    
    53   61   29 1    
    54   62   29 1    
    55   31   30 2    
    56   32   30 1    
    57   34   31 1    
    58   63   31 1    
    59   33   32 1    
    60   34   33 2    
    61   35   34 1    
    62   36   35 ar   
    63   40   35 ar   
    64   37   36 ar   
    65   64   36 1    
    66   38   37 ar   
    67   65   37 1    
    68   39   38 ar   
    69   66   38 1    
    70   40   39 ar   
    71   67   39 1    
    72   68   40 1    
@<TRIPOS>SUBSTRUCTURE
     1 5MR502      1 GROUP   
@<TRIPOS>SET

