#    Name: 4g2f_C07_1_INTS_M
#    Modification time : Mon Mar 24 21:14:06 2014

@<TRIPOS>MOLECULE
4g2f_C07_1_INTS_M
   68     0     9     0     0
SMALL
NO_CHARGES


@<TRIPOS>ATOM
      1 CA        -10.9735    6.1885   52.5820 C.3       3 GLC5        0.0000 
      2 CA         -8.9370    6.3330   52.9210 C.3       9 GLL5        0.0000 
      3 CA        -13.0100    6.0440   52.2430 C.3       6 GLP5        0.0000 
      4 CA        -11.1300    6.0860   54.4685 C.3       3 GLC5        0.0000 
      5 CA         -9.0440    5.6030   54.2410 C.3       9 GLL5        0.0000 
      6 CA        -13.2160    6.5690   54.6960 C.3       6 GLP5        0.0000 
      7 CA        -10.0505    2.9845   51.5065 C.3       3 GLC5        0.0000 
      8 CA         -8.2310    4.1530   51.6700 C.3       9 GLL5        0.0000 
      9 CA        -11.8700    1.8160   51.3430 C.3       6 GLP5        0.0000 
     10 CA         -6.4930    6.1035   51.6845 C.3       3 GLC5        0.0000 
     11 CA         -8.5480    5.6300   51.6780 C.3       9 GLL5        0.0000 
     12 CA         -4.4380    6.5770   51.6910 C.3       6 GLP5        0.0000 
     13 N          -9.5900    9.5875   48.5385 N.am      2 SEC2        0.0000 
     14 N          -8.6940    8.5890   49.3500 N.am      8 SEL2        0.0000 
     15 N         -10.4860   10.5860   47.7270 N.am      5 SEP2        0.0000 
     16 CA         -9.9115    7.5775   48.0115 C.3       3 GLC5        0.0000 
     17 CA         -8.3410    8.0050   48.1900 C.3       9 GLL5        0.0000 
     18 CA        -11.4820    7.1500   47.8330 C.3       6 GLP5        0.0000 
     19 CA         -8.6065    7.1355   46.2160 C.3       3 GLC5        0.0000 
     20 CA         -8.8720    6.2660   44.2420 C.3       6 GLP5        0.0000 
     21 CA         -6.6490    7.6360   47.2705 C.3       3 GLC5        0.0000 
     22 CA         -4.9570    7.2670   46.3510 C.3       6 GLP5        0.0000 
     23 CA         -6.8810    8.2060   49.2595 C.3       3 GLC5        0.0000 
     24 CA         -5.4210    8.4070   50.3290 C.3       6 GLP5        0.0000 
     25 N          -7.5035    6.0350   46.7465 N.am      2 SEC2        0.0000 
     26 N          -8.0510    6.6980   48.0720 N.am      8 SEL2        0.0000 
     27 N          -6.9560    5.3720   45.4210 N.am      5 SEP2        0.0000 
     28 CA         -6.5005    5.8205   47.9035 C.3       3 GLC5        0.0000 
     29 CA         -8.0880    5.8640   49.1320 C.3       9 GLL5        0.0000 
     30 CA         -4.9130    5.7770   46.6750 C.3       6 GLP5        0.0000 
     31 O          -6.8910    3.8225   48.0575 O.2       1 ALC1        0.0000 
     32 O          -7.7990    4.5480   49.0170 O.2       7 ALL1        0.0000 
     33 O          -5.9830    3.0970   47.0980 O.2       4 ALP1        0.0000 
     34 CA         -6.9955    9.5630   51.3765 C.3       3 GLC5        0.0000 
     35 CA         -8.5700   10.7190   52.4240 C.3       9 GLL5        0.0000 
     36 CA         -6.4110   11.1520   52.3205 C.3       3 GLC5        0.0000 
     37 CA         -4.2520   11.5850   52.2170 C.3       6 GLP5        0.0000 
     38 N          -6.6270   13.2185   53.6180 N.am      2 SEC2        0.0000 
     39 N          -8.0070   12.9100   53.1200 N.am      8 SEL2        0.0000 
     40 N          -5.2470   13.5270   54.1160 N.am      5 SEP2        0.0000 
     41 O          -8.3260   13.9845   53.6850 O.2       1 ALC1        0.0000 
     42 O          -8.0070   12.9100   53.1200 O.2       7 ALL1        0.0000 
     43 O          -8.6450   15.0590   54.2500 O.2       4 ALP1        0.0000 
     44 CA        -11.8950   11.6215   52.7385 C.3       3 GLC5        0.0000 
     45 CA        -10.9620   11.7420   51.2890 C.3       9 GLL5        0.0000 
     46 CA        -12.8280   11.5010   54.1880 C.3       6 GLP5        0.0000 
     47 CA        -12.3970   13.2735   50.7110 C.3       3 GLC5        0.0000 
     48 CA        -13.8320   14.8050   50.1330 C.3       6 GLP5        0.0000 
     49 CA        -12.3280    7.7480   51.3760 C.3       3 GLC5        0.0000 
     50 CA        -11.6460    9.4520   50.5090 C.3       9 GLL5        0.0000 
     51 CA        -11.5640    8.3010   49.1710 C.3       3 GLC5        0.0000 
     52 CA         -9.9194    6.8311   48.8169 C.3       3 GLC5        0.0000 
     53 CA         -8.7780    7.8830   50.4990 C.3       9 GLL5        0.0000 
     54 CA         -6.8889    7.4596   50.0649 C.3       3 GLC5        0.0000 
     55 CA        -10.2297   10.6770   53.4015 C.3       3 GLC5        0.0000 
     56 CA         -9.4430    9.8570   51.7900 C.3       9 GLL5        0.0000 
     57 CA        -11.4530   11.0660   54.6960 C.3       6 GLP5        0.0000 
     58 CA        -10.4550   11.6918   53.4535 C.3       3 GLC5        0.0000 
     59 CA         -8.8680   12.0680   52.4900 C.3       9 GLL5        0.0000 
     60 CA         -9.3410   14.1627   51.3355 C.3       3 GLC5        0.0000 
     61 CA        -10.0460   12.5670   51.9320 C.3       9 GLL5        0.0000 
     62 CA         -9.2250   16.0080   50.4600 C.3       6 GLP5        0.0000 
     63 CA        -10.6870   12.5527   49.8212 C.3       3 GLC5        0.0000 
     64 CA        -10.8700   12.9510   48.0320 C.3       6 GLP5        0.0000 
     65 CA        -12.3470   10.1442   52.1358 C.3       3 GLC5        0.0000 
     66 CA        -10.6940   10.3850   51.1980 C.3       9 GLL5        0.0000 
     67 CA        -13.5240   10.3700   53.4180 C.3       6 GLP5        0.0000 
     68 CA        -11.0200   11.4347   49.4427 C.3       3 GLC5        0.0000 
@<TRIPOS>BOND
@<TRIPOS>SUBSTRUCTURE
     1 ALC1       31 GROUP        1 X    ALC  0     ROOT ALC X 1
     2 SEC2       13 GROUP        1 X    SEC  0     **** SEC X 2
     3 GLC5        1 GROUP        1 X    GLC  0     **** GLC X 6
     4 ALP1       33 GROUP        1 Y    ALP  0     ROOT ALP Y 8
     5 SEP2       15 GROUP        1 Y    SEP  0     **** SEP Y 9
     6 GLP5        3 GROUP        1 Y    GLP  0     **** GLP Y 13
     7 ALL1       32 GROUP        1 Z    ALL  0     ROOT ALL Z 15
     8 SEL2       14 GROUP        1 Z    SEL  0     **** SEL Z 16
     9 GLL5        2 GROUP        1 Z    GLL  0     **** GLL Z 20
@<TRIPOS>SET

