#    Name: 4g2f_C07_1_ligand
#    Modification time : Mon Mar 24 21:14:06 2014

@<TRIPOS>MOLECULE
4g2f_C07_1_ligand
   42    45     1     0     0
SMALL
NO_CHARGES


@<TRIPOS>ATOM
      1 O1         -9.5810    8.4270   53.9710 O.2       1 C071001     0.0000 
      2 C7         -9.2290    7.7920   52.8640 C.2       1 C071001     0.0000 
      3 C8         -8.9370    6.3330   52.9210 C.2       1 C071001     0.0000 
      4 C13        -9.0440    5.6030   54.2410 C.3       1 C071001     0.0000 
      5 C12        -8.8080    4.1010   54.0820 C.3       1 C071001     0.0000 
      6 C11        -7.7220    3.7870   53.0570 C.3       1 C071001     0.0000 
      7 C10        -8.2310    4.1530   51.6700 C.3       1 C071001     0.0000 
      8 C9         -8.5480    5.6300   51.6780 C.2       1 C071001     0.0000 
      9 C14        -8.4730    6.4380   50.4400 C.ar      1 C071001     0.0000 
     10 C17        -8.7780    7.8830   50.4990 C.ar      1 C071001     0.0000 
     11 N3         -8.6940    8.5890   49.3500 N.ar      1 C071001     0.0000 
     12 C16        -8.3410    8.0050   48.1900 C.ar      1 C071001     0.0000 
     13 N2         -8.0510    6.6980   48.0720 N.ar      1 C071001     0.0000 
     14 C15        -8.0880    5.8640   49.1320 C.ar      1 C071001     0.0000 
     15 N1         -7.7990    4.5480   49.0170 N.pl3     1 C071001     0.0000 
     16 N          -9.1490    8.4860   51.7250 N.am      1 C071001     0.0000 
     17 C2         -9.4430    9.8570   51.7900 C.ar      1 C071001     0.0000 
     18 C3         -8.5700   10.7190   52.4240 C.ar      1 C071001     0.0000 
     19 C4         -8.8680   12.0680   52.4900 C.ar      1 C071001     0.0000 
     20 O          -8.0070   12.9100   53.1200 O.3       1 C071001     0.0000 
     21 C5        -10.0460   12.5670   51.9320 C.ar      1 C071001     0.0000 
     22 C6        -10.9620   11.7420   51.2890 C.ar      1 C071001     0.0000 
     23 C1        -10.6940   10.3850   51.1980 C.ar      1 C071001     0.0000 
     24 C         -11.6460    9.4520   50.5090 C.3       1 C071001     0.0000 
     25 H         -10.0397    5.7620   54.6677 H         1 C071001     0.0000 
     26 H          -8.3061    6.0052   54.9428 H         1 C071001     0.0000 
     27 H          -9.7440    3.6229   53.7719 H         1 C071001     0.0000 
     28 H          -8.5197    3.6798   55.0517 H         1 C071001     0.0000 
     29 H          -7.4909    2.7309   53.0907 H         1 C071001     0.0000 
     30 H          -6.8370    4.3666   53.2824 H         1 C071001     0.0000 
     31 H          -9.1226    3.5878   51.4547 H         1 C071001     0.0000 
     32 H          -7.4651    3.9463   50.9410 H         1 C071001     0.0000 
     33 H          -8.2886    8.6152   47.3144 H         1 C071001     0.0000 
     34 H          -7.0920    4.3093   48.3512 H         1 C071001     0.0000 
     35 H          -8.3179    3.9302   49.6079 H         1 C071001     0.0000 
     36 H          -7.7027   10.3607   52.8451 H         1 C071001     0.0000 
     37 H         -10.2425   13.5870   52.0004 H         1 C071001     0.0000 
     38 H         -11.8183   12.1315   50.8906 H         1 C071001     0.0000 
     39 H         -11.2154    8.9861   49.7360 H         1 C071001     0.0000 
     40 H         -11.9838    8.7426   51.1276 H         1 C071001     0.0000 
     41 H         -12.4458    9.9345   50.1518 H         1 C071001     0.0000 
     42 H          -8.5737   13.6712   53.4352 H         1 C071001     0.0000 
@<TRIPOS>BOND
     1    2    1 2    
     2    3    2 1    
     3   16    2 am   
     4    4    3 1    
     5    8    3 2    
     6    5    4 1    
     7   25    4 1    
     8   26    4 1    
     9    6    5 1    
    10   27    5 1    
    11   28    5 1    
    12    7    6 1    
    13   29    6 1    
    14   30    6 1    
    15    8    7 1    
    16   31    7 1    
    17   32    7 1    
    18    9    8 1    
    19   10    9 ar   
    20   14    9 ar   
    21   11   10 ar   
    22   16   10 1    
    23   12   11 ar   
    24   13   12 ar   
    25   33   12 1    
    26   14   13 ar   
    27   15   14 1    
    28   34   15 1    
    29   35   15 1    
    30   17   16 1    
    31   18   17 ar   
    32   23   17 ar   
    33   19   18 ar   
    34   36   18 1    
    35   20   19 1    
    36   21   19 ar   
    37   42   20 1    
    38   22   21 ar   
    39   37   21 1    
    40   23   22 ar   
    41   38   22 1    
    42   24   23 1    
    43   39   24 1    
    44   40   24 1    
    45   41   24 1    
@<TRIPOS>SUBSTRUCTURE
     1 C071001     1 GROUP   
@<TRIPOS>SET

