#    Name: 2qae_FAD_1_INTS_M
#    Modification time : Mon Mar 24 21:40:57 2014

@<TRIPOS>MOLECULE
2qae_FAD_1_INTS_M
  141     0     9     0     0
SMALL
NO_CHARGES


@<TRIPOS>ATOM
      1 N         -39.2260   44.6530   79.2680 N.am      2 SEC2        0.0000 
      2 N         -38.0970   43.8980   79.4350 N.am      8 SEL2        0.0000 
      3 N         -40.3550   45.4080   79.1010 N.am      5 SEP2        0.0000 
      4 N         -37.8735   46.4555   80.4185 N.am      2 SEC2        0.0000 
      5 N         -37.0980   45.4270   80.7970 N.am      8 SEL2        0.0000 
      6 N         -38.6490   47.4840   80.0400 N.am      5 SEP2        0.0000 
      7 CA        -38.9810   42.2775   80.9680 C.3       3 GLC5        0.0000 
      8 CA        -38.6800   43.9410   82.3380 C.3       9 GLL5        0.0000 
      9 CA        -39.2820   40.6140   79.5980 C.3       6 GLP5        0.0000 
     10 CA        -38.9230   41.4155   84.4430 C.3       3 GLC5        0.0000 
     11 CA        -39.2380   43.4140   83.5950 C.3       9 GLL5        0.0000 
     12 CA        -38.6080   39.4170   85.2910 C.3       6 GLP5        0.0000 
     13 N         -42.7945   44.5450   82.6160 N.am      2 SEC2        0.0000 
     14 N         -41.4580   43.6640   83.0570 N.am      8 SEL2        0.0000 
     15 N         -44.1310   45.4260   82.1750 N.am      5 SEP2        0.0000 
     16 N         -41.7745   45.0460   82.6195 N.am      2 SEC2        0.0000 
     17 N         -42.0910   46.4280   82.1820 N.am      5 SEP2        0.0000 
     18 O         -41.7125   42.4955   83.5505 O.2       1 ALC1        0.0000 
     19 O         -41.4580   43.6640   83.0570 O.2       7 ALL1        0.0000 
     20 O         -41.9670   41.3270   84.0440 O.2       4 ALP1        0.0000 
     21 O         -42.2770   43.1765   84.2095 O.2       1 ALC1        0.0000 
     22 O         -43.0960   42.6890   85.3620 O.2       4 ALP1        0.0000 
     23 CA        -40.8095   45.4430   87.0080 C.3       3 GLC5        0.0000 
     24 CA        -40.4030   44.5690   85.1870 C.3       9 GLL5        0.0000 
     25 CA        -41.2160   46.3170   88.8290 C.3       6 GLP5        0.0000 
     26 O         -42.3860   43.7575   85.4995 O.2       1 ALC1        0.0000 
     27 O         -41.6760   44.8260   85.6370 O.2       7 ALL1        0.0000 
     28 CA        -39.1565   41.3425   85.5275 C.3       3 GLC5        0.0000 
     29 CA        -39.7050   43.2680   85.7640 C.3       9 GLL5        0.0000 
     30 CA        -39.9180   42.9050   92.1850 C.3       3 GLC5        0.0000 
     31 CA        -38.9080   42.3180   90.4770 C.3       9 GLL5        0.0000 
     32 CA        -40.9280   43.4920   93.8930 C.3       6 GLP5        0.0000 
     33 O         -38.0955   41.7200   92.7620 O.2       1 ALC1        0.0000 
     34 O         -38.1310   42.5850   91.5740 O.2       7 ALL1        0.0000 
     35 O         -38.0600   40.8550   93.9500 O.2       4 ALP1        0.0000 
     36 N         -40.2225   40.7785   91.8440 N.am      2 SEC2        0.0000 
     37 N         -39.9010   41.4010   90.5610 N.am      8 SEL2        0.0000 
     38 N         -40.5440   40.1560   93.1270 N.am      5 SEP2        0.0000 
     39 CA        -39.0020   40.1100   89.6860 C.3       3 GLC5        0.0000 
     40 CA        -40.6860   41.0980   89.5220 C.3       9 GLL5        0.0000 
     41 CA        -37.3180   39.1220   89.8500 C.3       6 GLP5        0.0000 
     42 CA        -41.3060   39.2445   90.2615 C.3       3 GLC5        0.0000 
     43 CA        -41.9260   37.3910   91.0010 C.3       6 GLP5        0.0000 
     44 CA        -41.9510   40.3155   88.3240 C.3       3 GLC5        0.0000 
     45 CA        -43.2160   39.5330   87.1260 C.3       6 GLP5        0.0000 
     46 CA        -42.1845   42.2910   89.6020 C.3       3 GLC5        0.0000 
     47 CA        -43.6830   43.4840   89.6820 C.3       6 GLP5        0.0000 
     48 CA        -41.5850   41.3635   91.2635 C.3       3 GLC5        0.0000 
     49 CA        -42.4840   41.6290   93.0050 C.3       6 GLP5        0.0000 
     50 N         -42.1620   41.6765   88.2205 N.am      2 SEC2        0.0000 
     51 N         -40.5030   41.7050   88.3240 N.am      8 SEL2        0.0000 
     52 N         -43.8210   41.6480   88.1170 N.am      5 SEP2        0.0000 
     53 CA        -39.0755   41.0215   86.7220 C.3       3 GLC5        0.0000 
     54 CA        -39.5430   42.6260   88.1530 C.3       9 GLL5        0.0000 
     55 CA        -41.2185   43.5650   88.4920 C.3       3 GLC5        0.0000 
     56 CA        -42.8940   44.5040   88.8310 C.3       6 GLP5        0.0000 
     57 N         -34.0685   45.1755   72.2120 N.am      2 SEC2        0.0000 
     58 N         -34.8000   46.5990   71.6220 N.am      8 SEL2        0.0000 
     59 N         -33.3370   43.7520   72.8020 N.am      5 SEP2        0.0000 
     60 N         -33.6635   44.3900   71.5290 N.am      2 SEC2        0.0000 
     61 N         -33.9900   45.0280   70.2560 N.am      8 SEL2        0.0000 
     62 O         -35.7000   45.1675   68.6425 O.2       1 ALC1        0.0000 
     63 O         -35.5730   46.3200   69.3540 O.2       7 ALL1        0.0000 
     64 O         -35.8270   44.0150   67.9310 O.2       4 ALP1        0.0000 
     65 N         -37.8105   48.8395   68.0615 N.am      2 SEC2        0.0000 
     66 N         -37.1700   47.6390   68.4760 N.am      8 SEL2        0.0000 
     67 N         -38.4510   50.0400   67.6470 N.am      5 SEP2        0.0000 
     68 CA        -39.8430   51.5530   70.7575 C.3       3 GLC5        0.0000 
     69 CA        -38.2040   50.9770   72.1340 C.3       9 GLL5        0.0000 
     70 CA        -41.4820   52.1290   69.3810 C.3       6 GLP5        0.0000 
     71 CA        -39.3645   54.3275   74.5105 C.3       3 GLC5        0.0000 
     72 CA        -39.1920   52.8830   73.4340 C.3       9 GLL5        0.0000 
     73 CA        -39.5370   55.7720   75.5870 C.3       6 GLP5        0.0000 
     74 CA        -41.3090   53.1335   73.5320 C.3       3 GLC5        0.0000 
     75 CA        -43.4260   53.3840   73.6300 C.3       6 GLP5        0.0000 
     76 CA        -37.8715   54.4465   73.2025 C.3       3 GLC5        0.0000 
     77 CA        -36.5510   56.0100   72.9710 C.3       6 GLP5        0.0000 
     78 CA        -39.7310   54.9705   72.8850 C.3       3 GLC5        0.0000 
     79 CA        -40.2700   57.0580   72.3360 C.3       6 GLP5        0.0000 
     80 CA        -38.5905   53.8220   75.7075 C.3       3 GLC5        0.0000 
     81 CA        -37.6440   51.8720   75.8280 C.3       9 GLL5        0.0000 
     82 CA        -35.8705   51.9730   76.8420 C.3       3 GLC5        0.0000 
     83 CA        -34.0970   52.0740   77.8560 C.3       6 GLP5        0.0000 
     84 CA        -37.4825   47.5220   72.5375 C.3       3 GLC5        0.0000 
     85 CA        -36.5800   49.3930   73.1720 C.3       9 GLL5        0.0000 
     86 CA        -38.3850   45.6510   71.9030 C.3       6 GLP5        0.0000 
     87 CA        -37.4250   45.4085   74.6145 C.3       3 GLC5        0.0000 
     88 CA        -35.5860   46.5850   74.7120 C.3       9 GLL5        0.0000 
     89 CA        -39.2640   44.2320   74.5170 C.3       6 GLP5        0.0000 
     90 CA        -36.9855   46.1180   73.3075 C.3       3 GLC5        0.0000 
     91 CA        -35.5840   44.7060   73.6445 C.3       3 GLC5        0.0000 
     92 CA        -35.5820   42.8270   72.5770 C.3       6 GLP5        0.0000 
     93 CA        -32.9930   45.5380   74.3675 C.3       3 GLC5        0.0000 
     94 CA        -34.6160   45.9490   75.7240 C.3       9 GLL5        0.0000 
     95 CA        -31.3700   45.1270   73.0110 C.3       6 GLP5        0.0000 
     96 O         -32.5045   45.5665   76.4825 O.2       1 ALC1        0.0000 
     97 O         -33.3490   45.6130   75.3080 O.2       7 ALL1        0.0000 
     98 O         -31.6600   45.5200   77.6570 O.2       4 ALP1        0.0000 
     99 CA        -36.4730   43.1050   76.0070 C.3       3 GLC5        0.0000 
    100 CA        -35.2640   44.8310   76.4400 C.3       9 GLL5        0.0000 
    101 CA        -37.6820   41.3790   75.5740 C.3       6 GLP5        0.0000 
    102 CA        -37.2640   44.5315   75.4785 C.3       3 GLC5        0.0000 
    103 CA        -32.9480   44.7840   78.6510 C.3       3 GLC5        0.0000 
    104 CA        -34.1920   43.9180   77.2320 C.3       9 GLL5        0.0000 
    105 CA        -31.7040   45.6500   80.0700 C.3       6 GLP5        0.0000 
    106 CA        -34.1820   43.2580   75.1715 C.3       3 GLC5        0.0000 
    107 CA        -34.1720   42.5980   73.1110 C.3       6 GLP5        0.0000 
    108 CA        -33.4440   42.1135   76.9660 C.3       3 GLC5        0.0000 
    109 CA        -32.6960   40.3090   76.7000 C.3       6 GLP5        0.0000 
    110 N         -35.8160   39.9835   78.7360 N.am      2 SEC2        0.0000 
    111 N         -35.8440   41.2790   79.4660 N.am      8 SEL2        0.0000 
    112 N         -35.7880   38.6880   78.0060 N.am      5 SEP2        0.0000 
    113 N         -32.3315   42.8225   79.9390 N.am      2 SEC2        0.0000 
    114 N         -33.7020   42.3580   79.9640 N.am      8 SEL2        0.0000 
    115 N         -30.9610   43.2870   79.9140 N.am      5 SEP2        0.0000 
    116 CA        -40.5225   43.6634   81.5611 C.3       3 GLC5        0.0000 
    117 CA        -41.3710   43.3540   79.8160 C.3       6 GLP5        0.0000 
    118 CA        -40.3683   43.9782   89.7713 C.3       3 GLC5        0.0000 
    119 CA        -41.9380   45.3060   89.6860 C.3       6 GLP5        0.0000 
    120 CA        -38.2444   40.8801   89.4274 C.3       3 GLC5        0.0000 
    121 CA        -38.6890   42.9830   89.2360 C.3       9 GLL5        0.0000 
    122 CA        -37.2044   42.2156   88.6194 C.3       3 GLC5        0.0000 
    123 CA        -35.2380   41.7930   88.2340 C.3       6 GLP5        0.0000 
    124 CA        -39.2990   49.9697   73.0228 C.3       3 GLC5        0.0000 
    125 CA        -37.3680   49.8360   72.0170 C.3       9 GLL5        0.0000 
    126 CA        -40.8120   49.5330   73.9700 C.3       6 GLP5        0.0000 
    127 CA        -38.9940   48.9722   71.4292 C.3       3 GLC5        0.0000 
    128 CA        -40.2020   47.5380   70.7830 C.3       6 GLP5        0.0000 
    129 CA        -36.6863   52.6305   72.6490 C.3       3 GLC5        0.0000 
    130 CA        -35.1280   53.9470   72.5530 C.3       6 GLP5        0.0000 
    131 CA        -39.7752   50.9000   73.6825 C.3       3 GLC5        0.0000 
    132 CA        -38.2850   51.6510   73.3560 C.3       9 GLL5        0.0000 
    133 CA        -39.2045   50.5325   74.5648 C.3       3 GLC5        0.0000 
    134 CA        -38.0147   49.7585   76.3401 C.3       3 GLC5        0.0000 
    135 CA        -37.5500   51.1920   74.4910 C.3       9 GLL5        0.0000 
    136 CA        -38.8780   48.7100   77.9070 C.3       6 GLP5        0.0000 
    137 CA        -38.7275   49.6352   73.8748 C.3       3 GLC5        0.0000 
    138 CA        -36.7060   50.0820   74.3870 C.3       9 GLL5        0.0000 
    139 CA        -35.9438   52.1510   74.3451 C.3       3 GLC5        0.0000 
    140 CA        -34.7360   53.4950   73.9170 C.3       6 GLP5        0.0000 
    141 CA        -34.5560   43.9940   74.5965 C.3       3 GLC5        0.0000 
@<TRIPOS>BOND
@<TRIPOS>SUBSTRUCTURE
     1 ALC1       18 GROUP        1 X    ALC  0     ROOT ALC X 1
     2 SEC2        1 GROUP        1 X    SEC  0     **** SEC X 2
     3 GLC5        7 GROUP        1 X    GLC  0     **** GLC X 6
     4 ALP1       20 GROUP        1 Y    ALP  0     ROOT ALP Y 8
     5 SEP2        3 GROUP        1 Y    SEP  0     **** SEP Y 9
     6 GLP5        9 GROUP        1 Y    GLP  0     **** GLP Y 13
     7 ALL1       19 GROUP        1 Z    ALL  0     ROOT ALL Z 15
     8 SEL2        2 GROUP        1 Z    SEL  0     **** SEL Z 16
     9 GLL5        8 GROUP        1 Z    GLL  0     **** GLL Z 20
@<TRIPOS>SET

