#    Name: 2qae_FAD_1_ligand
#    Modification time : Mon Mar 24 21:40:57 2014

@<TRIPOS>MOLECULE
2qae_FAD_1_ligand
   84    89     1     0     0
SMALL
NO_CHARGES


@<TRIPOS>ATOM
      1 PA        -37.1510   43.8430   80.6060 P.3       1 FAD480      0.0000 
      2 O1A       -38.0970   43.8980   79.4350 O.co2     1 FAD480      0.0000 
      3 O2A       -37.0980   45.4270   80.7970 O.co2     1 FAD480      0.0000 
      4 O5B       -37.4460   43.7580   82.1780 O.3       1 FAD480      0.0000 
      5 C5B       -38.6800   43.9410   82.3380 C.3       1 FAD480      0.0000 
      6 C4B       -39.2380   43.4140   83.5950 C.3       1 FAD480      0.0000 
      7 O4B       -38.6140   43.0630   84.8370 O.3       1 FAD480      0.0000 
      8 C3B       -40.3890   44.2680   83.6460 C.3       1 FAD480      0.0000 
      9 O3B       -41.4580   43.6640   83.0570 O.3       1 FAD480      0.0000 
     10 C2B       -40.4030   44.5690   85.1870 C.3       1 FAD480      0.0000 
     11 O2B       -41.6760   44.8260   85.6370 O.3       1 FAD480      0.0000 
     12 C1B       -39.7050   43.2680   85.7640 C.3       1 FAD480      0.0000 
     13 N9A       -39.1280   43.3660   87.0970 N.pl3     1 FAD480      0.0000 
     14 C8A       -38.0790   44.1470   87.5270 C.2       1 FAD480      0.0000 
     15 N7A       -37.8310   43.9130   88.7760 N.2       1 FAD480      0.0000 
     16 C5A       -38.6890   42.9830   89.2360 C.ar      1 FAD480      0.0000 
     17 C6A       -38.9080   42.3180   90.4770 C.ar      1 FAD480      0.0000 
     18 N6A       -38.1310   42.5850   91.5740 N.pl3     1 FAD480      0.0000 
     19 N1A       -39.9010   41.4010   90.5610 N.ar      1 FAD480      0.0000 
     20 C2A       -40.6860   41.0980   89.5220 C.ar      1 FAD480      0.0000 
     21 N3A       -40.5030   41.7050   88.3240 N.ar      1 FAD480      0.0000 
     22 C4A       -39.5430   42.6260   88.1530 C.ar      1 FAD480      0.0000 
     23 N1        -34.8000   46.5990   71.6220 N.2       1 FAD480      0.0000 
     24 C2        -34.7670   45.9680   70.4160 C.2       1 FAD480      0.0000 
     25 O2        -33.9900   45.0280   70.2560 O.2       1 FAD480      0.0000 
     26 N3        -35.5730   46.3200   69.3540 N.am      1 FAD480      0.0000 
     27 C4        -36.4530   47.3540   69.4210 C.2       1 FAD480      0.0000 
     28 O4        -37.1700   47.6390   68.4760 O.2       1 FAD480      0.0000 
     29 C4X       -36.5130   48.1210   70.6890 C.2       1 FAD480      0.0000 
     30 N5        -37.3000   49.1710   70.8530 N.2       1 FAD480      0.0000 
     31 C5X       -37.3680   49.8360   72.0170 C.ar      1 FAD480      0.0000 
     32 C6        -38.2040   50.9770   72.1340 C.ar      1 FAD480      0.0000 
     33 C7        -38.2850   51.6510   73.3560 C.ar      1 FAD480      0.0000 
     34 C7M       -39.1920   52.8830   73.4340 C.3       1 FAD480      0.0000 
     35 C8        -37.5500   51.1920   74.4910 C.ar      1 FAD480      0.0000 
     36 C8M       -37.6440   51.8720   75.8280 C.3       1 FAD480      0.0000 
     37 C9        -36.7060   50.0820   74.3870 C.ar      1 FAD480      0.0000 
     38 C9A       -36.5800   49.3930   73.1720 C.ar      1 FAD480      0.0000 
     39 N10       -35.7080   48.2940   73.0290 N.pl3     1 FAD480      0.0000 
     40 C10       -35.6250   47.6440   71.8260 C.2       1 FAD480      0.0000 
     41 C1'       -34.8600   47.7820   74.1000 C.3       1 FAD480      0.0000 
     42 C2'       -35.5860   46.5850   74.7120 C.3       1 FAD480      0.0000 
     43 O2'       -36.9020   46.9150   75.2380 O.3       1 FAD480      0.0000 
     44 C3'       -34.6160   45.9490   75.7240 C.3       1 FAD480      0.0000 
     45 O3'       -33.3490   45.6130   75.3080 O.3       1 FAD480      0.0000 
     46 C4'       -35.2640   44.8310   76.4400 C.3       1 FAD480      0.0000 
     47 O4'       -36.6020   44.9370   77.0000 O.3       1 FAD480      0.0000 
     48 C5'       -34.1920   43.9180   77.2320 C.3       1 FAD480      0.0000 
     49 O5'       -34.9030   43.5880   78.2430 O.3       1 FAD480      0.0000 
     50 P         -35.1590   42.5560   79.4100 P.3       1 FAD480      0.0000 
     51 O1P       -35.8440   41.2790   79.4660 O.co2     1 FAD480      0.0000 
     52 O2P       -33.7020   42.3580   79.9640 O.co2     1 FAD480      0.0000 
     53 O3P       -35.7750   43.8090   80.2690 O.3       1 FAD480      0.0000 
     54 H         -39.3305   43.4960   81.5033 H         1 FAD480      0.0000 
     55 H         -38.9977   45.0435   82.2998 H         1 FAD480      0.0000 
     56 H         -39.7799   42.4004   83.1866 H         1 FAD480      0.0000 
     57 H         -40.0874   45.2180   83.1819 H         1 FAD480      0.0000 
     58 H         -39.6863   45.3679   85.3213 H         1 FAD480      0.0000 
     59 H         -40.4000   42.4664   85.6675 H         1 FAD480      0.0000 
     60 H         -37.6146   44.7786   86.9341 H         1 FAD480      0.0000 
     61 H         -37.4388   43.2977   91.4600 H         1 FAD480      0.0000 
     62 H         -38.3243   42.0438   92.3924 H         1 FAD480      0.0000 
     63 H         -41.4482   40.3894   89.6259 H         1 FAD480      0.0000 
     64 H         -35.4981   45.7640   68.4647 H         1 FAD480      0.0000 
     65 H         -38.7382   51.2954   71.3263 H         1 FAD480      0.0000 
     66 H         -36.1719   49.7665   75.2081 H         1 FAD480      0.0000 
     67 H         -34.7109   48.5242   74.8719 H         1 FAD480      0.0000 
     68 H         -33.9056   47.4462   73.7189 H         1 FAD480      0.0000 
     69 H         -35.6837   45.8422   73.8839 H         1 FAD480      0.0000 
     70 H         -34.5157   46.7700   76.5486 H         1 FAD480      0.0000 
     71 H         -35.4465   44.0332   75.4818 H         1 FAD480      0.0000 
     72 H         -33.3640   44.5808   77.3982 H         1 FAD480      0.0000 
     73 H         -33.9391   43.1493   76.5265 H         1 FAD480      0.0000 
     74 H         -39.1836   53.2932   74.3460 H         1 FAD480      0.0000 
     75 H         -38.9089   53.5939   72.7902 H         1 FAD480      0.0000 
     76 H         -40.1431   52.6579   73.2225 H         1 FAD480      0.0000 
     77 H         -37.0703   51.4240   76.5137 H         1 FAD480      0.0000 
     78 H         -37.3519   52.8272   75.7802 H         1 FAD480      0.0000 
     79 H         -38.5795   51.8689   76.1813 H         1 FAD480      0.0000 
     80 H         -41.8276   43.0526   83.7566 H         1 FAD480      0.0000 
     81 H         -42.2672   44.2272   85.0968 H         1 FAD480      0.0000 
     82 H         -37.0541   46.2640   75.9817 H         1 FAD480      0.0000 
     83 H         -32.8070   45.5597   76.1467 H         1 FAD480      0.0000 
     84 H         -36.5684   44.4132   77.8512 H         1 FAD480      0.0000 
@<TRIPOS>BOND
     1    2    1 ar   
     2    3    1 ar   
     3    4    1 1    
     4   53    1 1    
     5    5    4 1    
     6    6    5 1    
     7   54    5 1    
     8   55    5 1    
     9    7    6 1    
    10    8    6 1    
    11   56    6 1    
    12   12    7 1    
    13    9    8 1    
    14   10    8 1    
    15   57    8 1    
    16   80    9 1    
    17   11   10 1    
    18   12   10 1    
    19   58   10 1    
    20   81   11 1    
    21   13   12 1    
    22   59   12 1    
    23   14   13 1    
    24   22   13 1    
    25   15   14 2    
    26   60   14 1    
    27   16   15 1    
    28   17   16 ar   
    29   22   16 ar   
    30   18   17 1    
    31   19   17 ar   
    32   61   18 1    
    33   62   18 1    
    34   20   19 ar   
    35   21   20 ar   
    36   63   20 1    
    37   22   21 ar   
    38   24   23 1    
    39   40   23 2    
    40   25   24 2    
    41   26   24 am   
    42   27   26 am   
    43   64   26 1    
    44   28   27 2    
    45   29   27 1    
    46   30   29 2    
    47   40   29 1    
    48   31   30 1    
    49   32   31 ar   
    50   38   31 ar   
    51   33   32 ar   
    52   65   32 1    
    53   34   33 1    
    54   35   33 ar   
    55   74   34 1    
    56   75   34 1    
    57   76   34 1    
    58   36   35 1    
    59   37   35 ar   
    60   77   36 1    
    61   78   36 1    
    62   79   36 1    
    63   38   37 ar   
    64   66   37 1    
    65   39   38 1    
    66   40   39 1    
    67   41   39 1    
    68   42   41 1    
    69   67   41 1    
    70   68   41 1    
    71   43   42 1    
    72   44   42 1    
    73   69   42 1    
    74   82   43 1    
    75   45   44 1    
    76   46   44 1    
    77   70   44 1    
    78   83   45 1    
    79   47   46 1    
    80   48   46 1    
    81   71   46 1    
    82   84   47 1    
    83   49   48 1    
    84   72   48 1    
    85   73   48 1    
    86   50   49 1    
    87   51   50 ar   
    88   52   50 ar   
    89   53   50 1    
@<TRIPOS>SUBSTRUCTURE
     1 FAD480      1 GROUP   
@<TRIPOS>SET

