#    Name: 3ec0_GRL_1_INTS_M
#    Modification time : Tue Mar 25 01:25:50 2014

@<TRIPOS>MOLECULE
3ec0_GRL_1_INTS_M
  100     0     9     0     0
SMALL
NO_CHARGES


@<TRIPOS>ATOM
      1 CA         25.0725   12.8570   19.3275 C.3       3 GLC5        0.0000 
      2 CA         24.8150   13.5130   17.4340 C.3       9 GLL5        0.0000 
      3 CA         25.3300   12.2010   21.2210 C.3       6 GLP5        0.0000 
      4 CA         22.7410   15.3210   19.0055 C.3       3 GLC5        0.0000 
      5 CA         24.1710   14.8850   17.6640 C.3       9 GLL5        0.0000 
      6 CA         21.3110   15.7570   20.3470 C.3       6 GLP5        0.0000 
      7 N          25.4650   13.7145   13.5155 N.am      2 SEC2        0.0000 
      8 N          24.9190   14.5510   14.4740 N.am      8 SEL2        0.0000 
      9 N          26.0110   12.8780   12.5570 N.am      5 SEP2        0.0000 
     10 CA         24.1845   13.0055   14.0265 C.3       3 GLC5        0.0000 
     11 CA         23.5520   14.9690   14.5130 C.3       9 GLL5        0.0000 
     12 CA         24.8170   11.0420   13.5400 C.3       6 GLP5        0.0000 
     13 CA         25.1940   14.9805   13.0850 C.3       3 GLC5        0.0000 
     14 CA         26.8360   14.9920   11.6570 C.3       6 GLP5        0.0000 
     15 CA         28.0370   13.9955   15.7950 C.3       3 GLC5        0.0000 
     16 CA         26.0210   13.7790   16.5290 C.3       9 GLL5        0.0000 
     17 CA         30.0530   14.2120   15.0610 C.3       6 GLP5        0.0000 
     18 CA         27.7900   13.7040   17.7005 C.3       3 GLC5        0.0000 
     19 CA         29.5590   13.6290   18.8720 C.3       6 GLP5        0.0000 
     20 CA         26.2400   14.9805   13.6455 C.3       3 GLC5        0.0000 
     21 CA         25.6440   14.9690   15.6340 C.3       9 GLL5        0.0000 
     22 CA         19.1910   11.6740   13.7645 C.3       3 GLC5        0.0000 
     23 CA         19.6470   11.5360   15.8640 C.3       9 GLL5        0.0000 
     24 CA         18.7350   11.8120   11.6650 C.3       6 GLP5        0.0000 
     25 CA         19.4015   12.8260   13.2695 C.3       3 GLC5        0.0000 
     26 CA         20.0680   13.8400   14.8740 C.3       9 GLL5        0.0000 
     27 O          22.0860   11.5865   14.7960 O.2       1 ALC1        0.0000 
     28 O          22.0490   11.5740   16.3500 O.2       7 ALL1        0.0000 
     29 O          22.1230   11.5990   13.2420 O.2       4 ALP1        0.0000 
     30 CA         18.2130    7.2625   16.7085 C.3       3 GLC5        0.0000 
     31 CA         19.7400    8.7110   17.3930 C.3       9 GLL5        0.0000 
     32 CA         16.6860    5.8140   16.0240 C.3       6 GLP5        0.0000 
     33 CA         23.4700   10.6135   21.3745 C.3       3 GLC5        0.0000 
     34 CA         22.4050    9.0260   20.2780 C.3       9 GLL5        0.0000 
     35 CA         24.5350   12.2010   22.4710 C.3       6 GLP5        0.0000 
     36 CA         22.6830    4.9435   19.5435 C.3       3 GLC5        0.0000 
     37 CA         22.2080    6.5230   20.5600 C.3       9 GLL5        0.0000 
     38 CA         23.1580    3.3640   18.5270 C.3       6 GLP5        0.0000 
     39 CA         22.2210    5.1030   21.8360 C.3       3 GLC5        0.0000 
     40 CA         22.2340    3.6830   23.1120 C.3       6 GLP5        0.0000 
     41 N          20.5955    7.9830   14.4445 N.am      2 SEC2        0.0000 
     42 N          21.0490    8.9830   15.3910 N.am      8 SEL2        0.0000 
     43 N          20.1420    6.9830   13.4980 N.am      5 SEP2        0.0000 
     44 O          21.9285    8.1415   14.9480 O.2       1 ALC1        0.0000 
     45 O          21.0490    8.9830   15.3910 O.2       7 ALL1        0.0000 
     46 O          22.8080    7.3000   14.5050 O.2       4 ALP1        0.0000 
     47 O          22.4170    8.3200   15.9040 O.2       1 ALC1        0.0000 
     48 O          23.7850    7.6570   16.4170 O.2       4 ALP1        0.0000 
     49 CA         16.0210    9.7495   17.4470 C.3       3 GLC5        0.0000 
     50 CA         16.2730    8.3450   18.8060 C.3       9 GLL5        0.0000 
     51 CA         15.7690   11.1540   16.0880 C.3       6 GLP5        0.0000 
     52 CA         14.5890    7.7140   22.7620 C.3       3 GLC5        0.0000 
     53 CA         16.0020    7.2050   21.3450 C.3       9 GLL5        0.0000 
     54 CA         13.1760    8.2230   24.1790 C.3       6 GLP5        0.0000 
     55 CA         12.8045    4.7745   19.6070 C.3       3 GLC5        0.0000 
     56 CA         13.9970    5.8770   20.4770 C.3       9 GLL5        0.0000 
     57 CA         11.6120    3.6720   18.7370 C.3       6 GLP5        0.0000 
     58 CA         13.0090    6.5755   22.1660 C.3       3 GLC5        0.0000 
     59 CA         12.0210    7.2740   23.8550 C.3       6 GLP5        0.0000 
     60 CA         11.9825    5.9645   20.4000 C.3       3 GLC5        0.0000 
     61 CA          9.9680    6.0520   20.3230 C.3       6 GLP5        0.0000 
     62 N          14.0825    3.7970   18.9220 N.am      2 SEC2        0.0000 
     63 N          14.4680    4.5790   20.2090 N.am      8 SEL2        0.0000 
     64 N          13.6970    3.0150   17.6350 N.am      5 SEP2        0.0000 
     65 O          13.5110    3.6460   20.4440 O.2       1 ALC1        0.0000 
     66 O          14.4680    4.5790   20.2090 O.2       7 ALL1        0.0000 
     67 O          12.5540    2.7130   20.6790 O.2       4 ALP1        0.0000 
     68 CA         25.4920   11.9340   15.7788 C.3       3 GLC5        0.0000 
     69 CA         25.5660   10.2220   14.5760 C.3       6 GLP5        0.0000 
     70 CA         25.8195   11.6920   17.5883 C.3       3 GLC5        0.0000 
     71 CA         26.2210    9.7380   18.1950 C.3       6 GLP5        0.0000 
     72 CA         18.2063   14.1043   14.9578 C.3       3 GLC5        0.0000 
     73 CA         19.6310   13.0370   15.9510 C.3       9 GLL5        0.0000 
     74 CA         16.5630   14.7700   14.5030 C.3       6 GLP5        0.0000 
     75 CA         18.1940   15.1572   15.0200 C.3       3 GLC5        0.0000 
     76 CA         20.0550   15.2360   14.9490 C.3       9 GLL5        0.0000 
     77 CA         17.8787   16.5125   17.4357 C.3       3 GLC5        0.0000 
     78 CA         19.5950   15.8530   16.1250 C.3       9 GLL5        0.0000 
     79 CA         16.3830   17.5600   18.2020 C.3       6 GLP5        0.0000 
     80 CA         17.8645   14.5702   15.8325 C.3       3 GLC5        0.0000 
     81 CA         19.1540   15.0770   17.2140 C.3       9 GLL5        0.0000 
     82 CA         20.2385   15.0637   18.7545 C.3       3 GLC5        0.0000 
     83 CA         18.4375   14.5633   19.0880 C.3       3 GLC5        0.0000 
     84 CA         17.7090   14.7560   21.0140 C.3       6 GLP5        0.0000 
     85 CA         17.5888   12.0646   16.2984 C.3       3 GLC5        0.0000 
     86 CA         19.1780   13.6640   17.1100 C.3       9 GLL5        0.0000 
     87 CA         24.0086    7.1161   19.5671 C.3       3 GLC5        0.0000 
     88 CA         21.8160    7.7370   19.6470 C.3       9 GLL5        0.0000 
     89 CA         25.8580    6.7800   18.8730 C.3       6 GLP5        0.0000 
     90 CA         16.2280    6.8510   17.4765 C.3       3 GLC5        0.0000 
     91 CA         14.1100    8.6105   19.3805 C.3       3 GLC5        0.0000 
     92 CA         15.2670    7.4310   19.0520 C.3       9 GLL5        0.0000 
     93 CA         12.4500    9.3330   19.8320 C.3       6 GLP5        0.0000 
     94 CA         15.9828   10.1561   20.3805 C.3       3 GLC5        0.0000 
     95 CA         17.0470    8.1340   21.1490 C.3       9 GLL5        0.0000 
     96 CA         15.0890   11.9920   20.5160 C.3       6 GLP5        0.0000 
     97 CA         13.6163    7.8949   20.2421 C.3       3 GLC5        0.0000 
     98 CA         15.1340    6.8680   20.3100 C.3       9 GLL5        0.0000 
     99 CA         25.9718   15.6430   18.0791 C.3       3 GLC5        0.0000 
    100 CA         26.7530   16.6030   19.6090 C.3       6 GLP5        0.0000 
@<TRIPOS>BOND
@<TRIPOS>SUBSTRUCTURE
     1 ALC1       27 GROUP        1 X    ALC  0     ROOT ALC X 1
     2 SEC2        7 GROUP        1 X    SEC  0     **** SEC X 2
     3 GLC5        1 GROUP        1 X    GLC  0     **** GLC X 6
     4 ALP1       29 GROUP        1 Y    ALP  0     ROOT ALP Y 8
     5 SEP2        9 GROUP        1 Y    SEP  0     **** SEP Y 9
     6 GLP5        3 GROUP        1 Y    GLP  0     **** GLP Y 13
     7 ALL1       28 GROUP        1 Z    ALL  0     ROOT ALL Z 15
     8 SEL2        8 GROUP        1 Z    SEL  0     **** SEL Z 16
     9 GLL5        2 GROUP        1 Z    GLL  0     **** GLL Z 20
@<TRIPOS>SET

