#    Name: 3ec0_GRL_1_ligand
#    Modification time : Tue Mar 25 01:25:50 2014

@<TRIPOS>MOLECULE
3ec0_GRL_1_ligand
   79    82     1     0     0
SMALL
NO_CHARGES


@<TRIPOS>ATOM
      1 C11        24.8150   13.5130   17.4340 C.3       1 GRL201      0.0000 
      2 C12        24.1710   14.8850   17.6640 C.3       1 GRL201      0.0000 
      3 O1         24.9190   14.5510   14.4740 O.3       1 GRL201      0.0000 
      4 C14        23.5520   14.9690   14.5130 C.3       1 GRL201      0.0000 
      5 C15        24.6040   15.7850   16.4850 C.3       1 GRL201      0.0000 
      6 C16        26.0210   13.7790   16.5290 C.3       1 GRL201      0.0000 
      7 C2         23.5340   16.1790   15.4380 C.3       1 GRL201      0.0000 
      8 C1         25.6440   14.9690   15.6340 C.3       1 GRL201      0.0000 
      9 O13        23.9610   12.6510   16.6260 O.3       1 GRL201      0.0000 
     10 C21        22.8620   12.1670   17.2540 C.2       1 GRL201      0.0000 
     11 C22        20.7650   10.9820   16.7830 C.3       1 GRL201      0.0000 
     12 C23        19.6470   11.5360   15.8640 C.3       1 GRL201      0.0000 
     13 C24        19.6310   13.0370   15.9510 C.ar      1 GRL201      0.0000 
     14 C25        20.0680   13.8400   14.8740 C.ar      1 GRL201      0.0000 
     15 C26        20.0550   15.2360   14.9490 C.ar      1 GRL201      0.0000 
     16 C27        19.5950   15.8530   16.1250 C.ar      1 GRL201      0.0000 
     17 C28        19.1540   15.0770   17.2140 C.ar      1 GRL201      0.0000 
     18 C29        19.1780   13.6640   17.1100 C.ar      1 GRL201      0.0000 
     19 O21        22.7060   12.2890   18.4500 O.2       1 GRL201      0.0000 
     20 N21        22.0490   11.5740   16.3500 N.am      1 GRL201      0.0000 
     21 C31        20.9050    9.4380   16.7390 C.3       1 GRL201      0.0000 
     22 C32        19.7400    8.7110   17.3930 C.3       1 GRL201      0.0000 
     23 C33        20.2860    7.8100   19.7130 C.3       1 GRL201      0.0000 
     24 C34        21.8160    7.7370   19.6470 C.3       1 GRL201      0.0000 
     25 C35        22.4050    9.0260   20.2780 C.3       1 GRL201      0.0000 
     26 C36        22.2080    6.5230   20.5600 C.3       1 GRL201      0.0000 
     27 O31        21.0490    8.9830   15.3910 O.3       1 GRL201      0.0000 
     28 O32        18.0920   10.6930   18.5150 O.2       1 GRL201      0.0000 
     29 O33        18.9520   10.2480   20.7840 O.2       1 GRL201      0.0000 
     30 N31        19.7430    8.8900   18.8550 N.pl3     1 GRL201      0.0000 
     31 S31        18.5060    9.7420   19.5210 S.o2      1 GRL201      0.0000 
     32 C41        17.1390    8.6680   19.8760 C.ar      1 GRL201      0.0000 
     33 C42        16.2730    8.3450   18.8060 C.ar      1 GRL201      0.0000 
     34 C43        15.2670    7.4310   19.0520 C.ar      1 GRL201      0.0000 
     35 C44        15.1340    6.8680   20.3100 C.ar      1 GRL201      0.0000 
     36 C45        16.0020    7.2050   21.3450 C.ar      1 GRL201      0.0000 
     37 C46        17.0470    8.1340   21.1490 C.ar      1 GRL201      0.0000 
     38 C3         13.9970    5.8770   20.4770 C.3       1 GRL201      0.0000 
     39 O2         14.4680    4.5790   20.2090 O.3       1 GRL201      0.0000 
     40 H          25.1293   13.0874   18.3115 H         1 GRL201      0.0000 
     41 H          24.5315   15.3048   18.5793 H         1 GRL201      0.0000 
     42 H          23.1057   14.7893   17.6622 H         1 GRL201      0.0000 
     43 H          22.9081   14.2131   14.9318 H         1 GRL201      0.0000 
     44 H          23.1941   15.2779   13.5445 H         1 GRL201      0.0000 
     45 H          25.1137   16.6505   16.8252 H         1 GRL201      0.0000 
     46 H          26.2105   12.9202   15.9196 H         1 GRL201      0.0000 
     47 H          26.8701   14.0371   17.1268 H         1 GRL201      0.0000 
     48 H          22.6000   16.2636   15.9105 H         1 GRL201      0.0000 
     49 H          23.8513   17.0373   14.9228 H         1 GRL201      0.0000 
     50 H          26.4554   15.5730   15.4533 H         1 GRL201      0.0000 
     51 H          20.5588   11.2808   17.7954 H         1 GRL201      0.0000 
     52 H          18.6990   11.1298   16.1933 H         1 GRL201      0.0000 
     53 H          19.8492   11.2200   14.8484 H         1 GRL201      0.0000 
     54 H          20.4046   13.3779   14.0116 H         1 GRL201      0.0000 
     55 H          20.3737   15.8010   14.1642 H         1 GRL201      0.0000 
     56 H          19.5800   16.8772   16.1917 H         1 GRL201      0.0000 
     57 H          18.8223   15.5204   18.0648 H         1 GRL201      0.0000 
     58 H          18.8533   13.1005   17.9095 H         1 GRL201      0.0000 
     59 H          22.2719   11.5064   15.3547 H         1 GRL201      0.0000 
     60 H          21.8129    9.1842   17.3099 H         1 GRL201      0.0000 
     61 H          19.8080    7.6444   17.1379 H         1 GRL201      0.0000 
     62 H          18.8047    9.0944   16.9624 H         1 GRL201      0.0000 
     63 H          19.9937    7.9714   20.7596 H         1 GRL201      0.0000 
     64 H          19.8810    6.8370   19.4030 H         1 GRL201      0.0000 
     65 H          22.1484    7.5881   18.6942 H         1 GRL201      0.0000 
     66 H          16.3980    8.7747   17.9018 H         1 GRL201      0.0000 
     67 H          14.6137    7.1667   18.2992 H         1 GRL201      0.0000 
     68 H          15.8866    6.7725   22.2757 H         1 GRL201      0.0000 
     69 H          17.6684    8.3790   21.8862 H         1 GRL201      0.0000 
     70 H          13.1912    6.1751   19.7931 H         1 GRL201      0.0000 
     71 H          13.6155    5.9762   21.5020 H         1 GRL201      0.0000 
     72 H          23.4048    9.0259   20.2581 H         1 GRL201      0.0000 
     73 H          22.1023    9.8477   19.7951 H         1 GRL201      0.0000 
     74 H          22.1309    9.1302   21.2340 H         1 GRL201      0.0000 
     75 H          23.1982    6.3868   20.5919 H         1 GRL201      0.0000 
     76 H          21.8994    6.6522   21.5024 H         1 GRL201      0.0000 
     77 H          21.8048    5.6679   20.2342 H         1 GRL201      0.0000 
     78 H          21.9132    8.4801   15.3786 H         1 GRL201      0.0000 
     79 H          13.6885    3.9788   20.3882 H         1 GRL201      0.0000 
@<TRIPOS>BOND
     1    2    1 1    
     2    6    1 1    
     3    9    1 1    
     4   40    1 1    
     5    5    2 1    
     6   41    2 1    
     7   42    2 1    
     8    4    3 1    
     9    8    3 1    
    10    7    4 1    
    11   43    4 1    
    12   44    4 1    
    13    7    5 1    
    14    8    5 1    
    15   45    5 1    
    16    8    6 1    
    17   46    6 1    
    18   47    6 1    
    19   48    7 1    
    20   49    7 1    
    21   50    8 1    
    22   10    9 1    
    23   19   10 2    
    24   20   10 am   
    25   12   11 1    
    26   20   11 1    
    27   21   11 1    
    28   51   11 1    
    29   13   12 1    
    30   52   12 1    
    31   53   12 1    
    32   14   13 ar   
    33   18   13 ar   
    34   15   14 ar   
    35   54   14 1    
    36   16   15 ar   
    37   55   15 1    
    38   17   16 ar   
    39   56   16 1    
    40   18   17 ar   
    41   57   17 1    
    42   58   18 1    
    43   59   20 1    
    44   22   21 1    
    45   27   21 1    
    46   60   21 1    
    47   30   22 1    
    48   61   22 1    
    49   62   22 1    
    50   24   23 1    
    51   30   23 1    
    52   63   23 1    
    53   64   23 1    
    54   25   24 1    
    55   26   24 1    
    56   65   24 1    
    57   72   25 1    
    58   73   25 1    
    59   74   25 1    
    60   75   26 1    
    61   76   26 1    
    62   77   26 1    
    63   78   27 1    
    64   31   28 2    
    65   31   29 2    
    66   31   30 1    
    67   32   31 1    
    68   33   32 ar   
    69   37   32 ar   
    70   34   33 ar   
    71   66   33 1    
    72   35   34 ar   
    73   67   34 1    
    74   36   35 ar   
    75   38   35 1    
    76   37   36 ar   
    77   68   36 1    
    78   69   37 1    
    79   39   38 1    
    80   70   38 1    
    81   71   38 1    
    82   79   39 1    
@<TRIPOS>SUBSTRUCTURE
     1 GRL201      1 GROUP   
@<TRIPOS>SET

