#    Name: 2wd1_ZZY_1_INTS_M
#    Modification time : Tue Mar 25 04:04:51 2014

@<TRIPOS>MOLECULE
2wd1_ZZY_1_INTS_M
   57     0     9     0     0
SMALL
NO_CHARGES


@<TRIPOS>ATOM
      1 O         108.3770   19.9030  136.9385 O.2       1 ALC1        0.0000 
      2 O         107.7190   20.8440  138.0740 O.2       7 ALL1        0.0000 
      3 O         109.0350   18.9620  135.8030 O.2       4 ALP1        0.0000 
      4 CA        107.3660   23.2280  137.1785 C.3       3 GLC5        0.0000 
      5 CA        106.9970   22.7670  139.1420 C.3       9 GLL5        0.0000 
      6 CA        107.7350   23.6890  135.2150 C.3       6 GLP5        0.0000 
      7 CA        104.9320   22.0860  137.1900 C.3       3 GLC5        0.0000 
      8 CA        105.7740   22.1660  139.1630 C.3       9 GLL5        0.0000 
      9 CA        104.0900   22.0060  135.2170 C.3       6 GLP5        0.0000 
     10 CA        106.7135   26.1935  139.8225 C.3       3 GLC5        0.0000 
     11 CA        107.1250   24.0230  139.6800 C.3       9 GLL5        0.0000 
     12 CA        106.3020   28.3640  139.9650 C.3       6 GLP5        0.0000 
     13 CA        107.0150   24.7165  141.6325 C.3       3 GLC5        0.0000 
     14 CA        106.9050   25.4100  143.5850 C.3       6 GLP5        0.0000 
     15 N         106.6230   25.7745  140.9400 N.am      2 SEC2        0.0000 
     16 N         106.0450   24.6580  140.2190 N.am      8 SEL2        0.0000 
     17 N         107.2010   26.8910  141.6610 N.am      5 SEP2        0.0000 
     18 CA        102.0080   25.5845  140.0365 C.3       3 GLC5        0.0000 
     19 CA        103.6920   24.4950  140.7250 C.3       9 GLL5        0.0000 
     20 CA        100.3240   26.6740  139.3480 C.3       6 GLP5        0.0000 
     21 CA        101.2110   23.8805  139.8840 C.3       3 GLC5        0.0000 
     22 CA        102.8660   23.4660  140.4380 C.3       9 GLL5        0.0000 
     23 CA         99.5560   24.2950  139.3300 C.3       6 GLP5        0.0000 
     24 N          98.6555   20.2250  143.4220 N.am      2 SEC2        0.0000 
     25 N          99.4380   20.4100  142.3330 N.am      8 SEL2        0.0000 
     26 N          97.8730   20.0400  144.5110 N.am      5 SEP2        0.0000 
     27 CA        105.2530   17.8300  143.2995 C.3       3 GLC5        0.0000 
     28 CA        103.6750   17.9770  141.7120 C.3       9 GLL5        0.0000 
     29 CA        106.8310   17.6830  144.8870 C.3       6 GLP5        0.0000 
     30 CA         99.8220   18.1710  143.5600 C.3       3 GLC5        0.0000 
     31 CA        101.6920   18.7860  142.6980 C.3       9 GLL5        0.0000 
     32 CA         97.9520   17.5560  144.4220 C.3       6 GLP5        0.0000 
     33 CA        105.4846   24.3374  138.3451 C.3       3 GLC5        0.0000 
     34 CA        104.2140   25.4300  137.2740 C.3       6 GLP5        0.0000 
     35 CA        106.2821   22.5489  141.1576 C.3       3 GLC5        0.0000 
     36 CA        105.8090   21.8530  142.8990 C.3       6 GLP5        0.0000 
     37 CA        104.8730   25.0510  142.2010 C.3       3 GLC5        0.0000 
     38 CA        104.8560   24.0690  140.2350 C.3       9 GLL5        0.0000 
     39 CA        105.4720   25.8200  143.9220 C.3       6 GLP5        0.0000 
     40 CA        101.8765   24.3588  141.9597 C.3       3 GLC5        0.0000 
     41 CA        100.4740   24.7370  143.3380 C.3       6 GLP5        0.0000 
     42 CA        103.4155   20.4093  142.6085 C.3       3 GLC5        0.0000 
     43 CA        102.6220   19.8910  140.7150 C.3       9 GLL5        0.0000 
     44 CA        104.6990   20.9620  143.9740 C.3       6 GLP5        0.0000 
     45 CA        100.8875   20.4465  143.7887 C.3       3 GLC5        0.0000 
     46 CA        101.6420   19.8220  141.7710 C.3       9 GLL5        0.0000 
     47 CA        100.1080   21.5890  145.3430 C.3       6 GLP5        0.0000 
     48 CA        104.1720   19.7082  142.5967 C.3       3 GLC5        0.0000 
     49 CA        102.7935   16.2013  141.3553 C.3       3 GLC5        0.0000 
     50 CA        102.3780   14.4410  140.4980 C.3       6 GLP5        0.0000 
     51 CA        101.8842   17.6020  144.6242 C.3       3 GLC5        0.0000 
     52 CA        102.7430   17.9460  142.7130 C.3       9 GLL5        0.0000 
     53 CA        101.5510   16.8380  146.5430 C.3       6 GLP5        0.0000 
     54 CA        103.4582   19.6640  143.3398 C.3       3 GLC5        0.0000 
     55 CA        104.1205   24.5722  138.7760 C.3       3 GLC5        0.0000 
     56 CA        104.6940   22.8280  139.7140 C.3       9 GLL5        0.0000 
     57 CA        104.9180   22.7837  141.5885 C.3       3 GLC5        0.0000 
@<TRIPOS>BOND
@<TRIPOS>SUBSTRUCTURE
     1 ALC1        1 GROUP        1 X    ALC  0     ROOT ALC X 1
     2 SEC2       15 GROUP        1 X    SEC  0     **** SEC X 2
     3 GLC5        4 GROUP        1 X    GLC  0     **** GLC X 6
     4 ALP1        3 GROUP        1 Y    ALP  0     ROOT ALP Y 8
     5 SEP2       17 GROUP        1 Y    SEP  0     **** SEP Y 9
     6 GLP5        6 GROUP        1 Y    GLP  0     **** GLP Y 13
     7 ALL1        2 GROUP        1 Z    ALL  0     ROOT ALL Z 15
     8 SEL2       16 GROUP        1 Z    SEL  0     **** SEL Z 16
     9 GLL5        5 GROUP        1 Z    GLL  0     **** GLL Z 20
@<TRIPOS>SET

