#    Name: 2wd1_ZZY_1_ligand
#    Modification time : Tue Mar 25 04:04:51 2014

@<TRIPOS>MOLECULE
2wd1_ZZY_1_ligand
   34    36     1     0     0
SMALL
NO_CHARGES


@<TRIPOS>ATOM
      1 O11       109.2120   22.4340  138.4440 O.2       1 ZZY2347     0.0000 
      2 C10       108.0960   22.0440  138.5350 C.2       1 ZZY2347     0.0000 
      3 N12       107.7190   20.8440  138.0740 N.am      1 ZZY2347     0.0000 
      4 C5        106.9970   22.7670  139.1420 C.ar      1 ZZY2347     0.0000 
      5 C3        105.7740   22.1660  139.1630 C.ar      1 ZZY2347     0.0000 
      6 C1        104.6940   22.8280  139.7140 C.ar      1 ZZY2347     0.0000 
      7 C6        107.1250   24.0230  139.6800 C.ar      1 ZZY2347     0.0000 
      8 N4        106.0450   24.6580  140.2190 N.ar      1 ZZY2347     0.0000 
      9 C2        104.8560   24.0690  140.2350 C.ar      1 ZZY2347     0.0000 
     10 C8        103.6920   24.4950  140.7250 C.2       1 ZZY2347     0.0000 
     11 C7        102.8660   23.4660  140.4380 C.2       1 ZZY2347     0.0000 
     12 N9        103.4600   22.4490  139.8410 N.pl3     1 ZZY2347     0.0000 
     13 S13       102.7300   21.0450  139.3980 S.o2      1 ZZY2347     0.0000 
     14 O16       101.5550   21.1610  138.9570 O.2       1 ZZY2347     0.0000 
     15 O15       103.4040   20.4500  138.4420 O.2       1 ZZY2347     0.0000 
     16 C14       102.6220   19.8910  140.7150 C.ar      1 ZZY2347     0.0000 
     17 C21       101.6420   19.8220  141.7710 C.ar      1 ZZY2347     0.0000 
     18 N22       100.5270   20.7380  142.0060 N.pl3     1 ZZY2347     0.0000 
     19 O23       100.6730   21.9680  141.8580 O.2       1 ZZY2347     0.0000 
     20 O24        99.4380   20.4100  142.3330 O.2       1 ZZY2347     0.0000 
     21 C20       103.6150   18.9320  140.7270 C.ar      1 ZZY2347     0.0000 
     22 C18       103.6750   17.9770  141.7120 C.ar      1 ZZY2347     0.0000 
     23 C17       102.7430   17.9460  142.7130 C.ar      1 ZZY2347     0.0000 
     24 C19       101.6920   18.7860  142.6980 C.ar      1 ZZY2347     0.0000 
     25 H         106.7528   20.6126  138.1879 H         1 ZZY2347     0.0000 
     26 H         108.4375   20.2871  137.6573 H         1 ZZY2347     0.0000 
     27 H         105.6465   21.2192  138.7705 H         1 ZZY2347     0.0000 
     28 H         108.0530   24.4904  139.6749 H         1 ZZY2347     0.0000 
     29 H         103.4887   25.2943  141.1562 H         1 ZZY2347     0.0000 
     30 H         101.8848   23.4874  140.6658 H         1 ZZY2347     0.0000 
     31 H         104.3329   18.9355  139.9711 H         1 ZZY2347     0.0000 
     32 H         104.4380   17.2707  141.6948 H         1 ZZY2347     0.0000 
     33 H         102.8573   17.2601  143.4918 H         1 ZZY2347     0.0000 
     34 H         100.9095   18.6783  143.3685 H         1 ZZY2347     0.0000 
@<TRIPOS>BOND
     1    2    1 2    
     2    3    2 am   
     3    4    2 1    
     4   25    3 1    
     5   26    3 1    
     6    5    4 ar   
     7    7    4 ar   
     8    6    5 ar   
     9   27    5 1    
    10    9    6 ar   
    11   12    6 1    
    12    8    7 ar   
    13   28    7 1    
    14    9    8 ar   
    15   10    9 1    
    16   11   10 2    
    17   29   10 1    
    18   12   11 1    
    19   30   11 1    
    20   13   12 1    
    21   14   13 2    
    22   15   13 2    
    23   16   13 1    
    24   17   16 ar   
    25   21   16 ar   
    26   18   17 1    
    27   24   17 ar   
    28   19   18 2    
    29   20   18 2    
    30   22   21 ar   
    31   31   21 1    
    32   23   22 ar   
    33   32   22 1    
    34   24   23 ar   
    35   33   23 1    
    36   34   24 1    
@<TRIPOS>SUBSTRUCTURE
     1 ZZY2347     1 GROUP   
@<TRIPOS>SET

