#    Name: 1fro_GSB_4_INTS_M
#    Modification time : Tue Mar 25 02:03:28 2014

@<TRIPOS>MOLECULE
1fro_GSB_4_INTS_M
   67     0    12     0     0
SMALL
NO_CHARGES


@<TRIPOS>ATOM
      1 O          69.6220   33.4010   23.6750 O.2       1 ALC1        0.0000 
      2 O          68.5810   33.8840   22.9220 O.2       9 ALL1        0.0000 
      3 O          70.6630   32.9180   24.4280 O.2       5 ALP1        0.0000 
      4 NZ         68.0855   37.4850   25.2885 N.4       3 LYC4        0.0000 
      5 NZ         69.0490   35.8970   24.5720 N.4      11 LYL4        0.0000 
      6 NZ         68.2960   39.4800   25.7600 N.4       7 LYP4        0.0000 
      7 NZ         69.5345   36.8420   23.6095 N.4       3 LYC4        0.0000 
      8 NZ         71.2580   38.2890   22.6530 N.4       7 LYP4        0.0000 
      9 N          69.1415   37.2170   25.2070 N.am      2 SEC2        0.0000 
     10 N          69.0490   35.8970   24.5720 N.am     10 SEL2        0.0000 
     11 N          69.2340   38.5370   25.8420 N.am      6 SEP2        0.0000 
     12 N          70.3155   35.3555   24.8710 N.am      2 SEC2        0.0000 
     13 N          71.5820   34.8140   25.1700 N.am      6 SEP2        0.0000 
     14 N          69.5345   36.8420   23.6095 N.am      2 SEC2        0.0000 
     15 N          70.0200   37.7870   22.6470 N.am      6 SEP2        0.0000 
     16 NZ         67.1060   37.8880   24.8290 N.4       3 LYC4        0.0000 
     17 NZ         66.9370   36.4330   24.7350 N.4      11 LYL4        0.0000 
     18 N          68.0855   37.4850   25.2885 N.am      2 SEC2        0.0000 
     19 N          66.9370   36.4330   24.7350 N.am     10 SEL2        0.0000 
     20 N          67.1060   37.8880   24.8290 N.am      2 SEC2        0.0000 
     21 N          67.2750   39.3430   24.9230 N.am      6 SEP2        0.0000 
     22 CA         67.4110   31.4980   25.3165 C.3       4 GLC5        0.0000 
     23 CA         67.1910   33.2500   24.8640 C.3      12 GLL5        0.0000 
     24 CA         67.6310   29.7460   25.7690 C.3       8 GLP5        0.0000 
     25 CA         65.7040   31.6795   26.3000 C.3       4 GLC5        0.0000 
     26 CA         65.9380   33.4560   25.7240 C.3      12 GLL5        0.0000 
     27 CA         65.4700   29.9030   26.8760 C.3       8 GLP5        0.0000 
     28 CA         59.7590   36.1180   24.0810 C.3       4 GLC5        0.0000 
     29 CA         61.0300   36.1220   22.6760 C.3      12 GLL5        0.0000 
     30 CA         58.4880   36.1140   25.4860 C.3       8 GLP5        0.0000 
     31 CA         61.4665   37.9775   22.8675 C.3       4 GLC5        0.0000 
     32 CA         61.9030   39.8330   23.0590 C.3       8 GLP5        0.0000 
     33 CA         59.0110   32.6905   26.2990 C.3       4 GLC5        0.0000 
     34 CA         61.1490   32.9210   26.0240 C.3      12 GLL5        0.0000 
     35 CA         56.8730   32.4600   26.5740 C.3       8 GLP5        0.0000 
     36 CA         60.2465   34.7735   26.2365 C.3       4 GLC5        0.0000 
     37 CA         59.3440   36.6260   26.4490 C.3       8 GLP5        0.0000 
     38 CA         63.2845   30.6765   26.3920 C.3       4 GLC5        0.0000 
     39 CA         61.7420   31.6150   27.1360 C.3      12 GLL5        0.0000 
     40 CA         64.8270   29.7380   25.6480 C.3       8 GLP5        0.0000 
     41 CA         62.5900   30.9310   28.9230 C.3       4 GLC5        0.0000 
     42 CA         63.4380   30.2470   30.7100 C.3       8 GLP5        0.0000 
     43 CA         60.8315   31.0300   25.3710 C.3       4 GLC5        0.0000 
     44 CA         59.9210   30.4450   23.6060 C.3       8 GLP5        0.0000 
     45 CA         58.1845   29.3940   33.0870 C.3       4 GLC5        0.0000 
     46 CA         59.2490   29.9230   31.4520 C.3      12 GLL5        0.0000 
     47 CA         57.1200   28.8650   34.7220 C.3       8 GLP5        0.0000 
     48 CA         67.5332   33.5665   26.8085 C.3       4 GLC5        0.0000 
     49 CA         68.5020   33.7800   28.3230 C.3       8 GLP5        0.0000 
     50 CA         60.7972   31.7875   24.5600 C.3       4 GLC5        0.0000 
     51 CA         62.1980   33.3390   25.0040 C.3      12 GLL5        0.0000 
     52 CA         59.5853   29.8415   26.3455 C.3       4 GLC5        0.0000 
     53 CA         60.2110   30.6440   27.3160 C.3      12 GLL5        0.0000 
     54 CA         59.1350   29.1680   24.6570 C.3       8 GLP5        0.0000 
     55 CA         61.5390   30.5737   29.9358 C.3       4 GLC5        0.0000 
     56 CA         59.8600   30.3860   28.7520 C.3      12 GLL5        0.0000 
     57 CA         58.3004   31.7125   27.6883 C.3       4 GLC5        0.0000 
     58 CA         59.4200   31.4150   29.5710 C.3      12 GLL5        0.0000 
     59 CA         61.3095   30.4015   30.9493 C.3       4 GLC5        0.0000 
     60 CA         59.1130   31.1890   30.9250 C.3      12 GLL5        0.0000 
     61 CA         57.5753   28.8567   31.4832 C.3       4 GLC5        0.0000 
     62 CA         55.6820   28.3080   31.9200 C.3       8 GLP5        0.0000 
     63 CA         61.6385   29.6260   30.3395 C.3       4 GLC5        0.0000 
     64 CA         59.6880   28.8880   30.6410 C.3      12 GLL5        0.0000 
     65 CA         59.2066   27.5899   30.6974 C.3       4 GLC5        0.0000 
     66 CA         59.9900   29.1220   29.2970 C.3      12 GLL5        0.0000 
     67 CA         58.6840   25.9160   31.2230 C.3       8 GLP5        0.0000 
@<TRIPOS>BOND
@<TRIPOS>SUBSTRUCTURE
     1 ALC1        1 GROUP        1 X    ALC  0     ROOT ALC X 1
     2 SEC2        9 GROUP        1 X    SEC  0     **** SEC X 2
     3 LYC4        4 GROUP        1 X    LYC  0     **** LYC X 4
     4 GLC5       22 GROUP        1 X    GLC  0     **** GLC X 6
     5 ALP1        3 GROUP        1 Y    ALP  0     ROOT ALP Y 8
     6 SEP2       11 GROUP        1 Y    SEP  0     **** SEP Y 9
     7 LYP4        6 GROUP        1 Y    LYP  0     **** LYP Y 11
     8 GLP5       24 GROUP        1 Y    GLP  0     **** GLP Y 13
     9 ALL1        2 GROUP        1 Z    ALL  0     ROOT ALL Z 15
    10 SEL2       10 GROUP        1 Z    SEL  0     **** SEL Z 16
    11 LYL4        5 GROUP        1 Z    LYL  0     **** LYL Z 18
    12 GLL5       23 GROUP        1 Z    GLL  0     **** GLL Z 20
@<TRIPOS>SET

