#    Name: 1fro_GSB_4_ligand
#    Modification time : Tue Mar 25 02:03:28 2014

@<TRIPOS>MOLECULE
1fro_GSB_4_ligand
   49    49     1     0     0
SMALL
NO_CHARGES


@<TRIPOS>ATOM
      1 N1         68.5810   33.8840   22.9220 N.4       1 GSB200      0.0000 
      2 CA1        67.4500   34.3080   23.7860 C.3       1 GSB200      0.0000 
      3 C1         67.8380   35.6400   24.4230 C.2       1 GSB200      0.0000 
      4 O11        69.0490   35.8970   24.5720 O.co2     1 GSB200      0.0000 
      5 O12        66.9370   36.4330   24.7350 O.co2     1 GSB200      0.0000 
      6 CB1        67.1910   33.2500   24.8640 C.3       1 GSB200      0.0000 
      7 CG1        65.9380   33.4560   25.7240 C.3       1 GSB200      0.0000 
      8 CD1        64.6320   33.3660   24.9400 C.2       1 GSB200      0.0000 
      9 OE1        64.6420   33.2340   23.7180 O.2       1 GSB200      0.0000 
     10 N2         63.5060   33.3960   25.6470 N.am      1 GSB200      0.0000 
     11 CA2        62.1980   33.3390   25.0040 C.3       1 GSB200      0.0000 
     12 C2         61.8890   34.7440   24.4640 C.2       1 GSB200      0.0000 
     13 O2         62.1720   35.7460   25.1280 O.2       1 GSB200      0.0000 
     14 N3         61.3370   34.8270   23.2610 N.am      1 GSB200      0.0000 
     15 CA3        61.0300   36.1220   22.6760 C.3       1 GSB200      0.0000 
     16 C3         60.1440   35.9830   21.4480 C.2       1 GSB200      0.0000 
     17 O31        59.4490   34.9420   21.3340 O.co2     1 GSB200      0.0000 
     18 O32        60.1250   36.9110   20.6060 O.co2     1 GSB200      0.0000 
     19 CB2        61.1490   32.9210   26.0240 C.3       1 GSB200      0.0000 
     20 SG2        61.7420   31.6150   27.1360 S.3       1 GSB200      0.0000 
     21 C'         60.2110   30.6440   27.3160 C.3       1 GSB200      0.0000 
     22 C1'        59.8600   30.3860   28.7520 C.ar      1 GSB200      0.0000 
     23 C2'        59.4200   31.4150   29.5710 C.ar      1 GSB200      0.0000 
     24 C3'        59.1130   31.1890   30.9250 C.ar      1 GSB200      0.0000 
     25 C4'        59.2490   29.9230   31.4520 C.ar      1 GSB200      0.0000 
     26 C5'        59.6880   28.8880   30.6410 C.ar      1 GSB200      0.0000 
     27 C6'        59.9900   29.1220   29.2970 C.ar      1 GSB200      0.0000 
     28 H          66.5711   34.4448   23.2011 H         1 GSB200      0.0000 
     29 H          68.0760   33.2013   25.5335 H         1 GSB200      0.0000 
     30 H          67.1257   32.2543   24.3758 H         1 GSB200      0.0000 
     31 H          65.9993   34.4426   26.2090 H         1 GSB200      0.0000 
     32 H          65.9298   32.7004   26.5250 H         1 GSB200      0.0000 
     33 H          63.4991   33.4610   26.6849 H         1 GSB200      0.0000 
     34 H          62.2023   32.6539   24.1908 H         1 GSB200      0.0000 
     35 H          61.1017   33.9976   22.6900 H         1 GSB200      0.0000 
     36 H          61.9515   36.6450   22.3769 H         1 GSB200      0.0000 
     37 H          60.5113   36.7668   23.4022 H         1 GSB200      0.0000 
     38 H          60.2790   32.4698   25.5875 H         1 GSB200      0.0000 
     39 H          60.8814   33.7002   26.7113 H         1 GSB200      0.0000 
     40 H          60.4461   29.7587   26.7522 H         1 GSB200      0.0000 
     41 H          59.5005   31.2568   26.7902 H         1 GSB200      0.0000 
     42 H          59.3127   32.3701   29.1870 H         1 GSB200      0.0000 
     43 H          58.7910   31.9700   31.5056 H         1 GSB200      0.0000 
     44 H          59.0273   29.7434   32.4397 H         1 GSB200      0.0000 
     45 H          59.7939   27.9382   31.0272 H         1 GSB200      0.0000 
     46 H          60.3141   28.3361   28.7082 H         1 GSB200      0.0000 
     47 H          69.2412   33.3242   23.4227 H         1 GSB200      0.0000 
     48 H          68.2693   33.3419   22.1416 H         1 GSB200      0.0000 
     49 H          69.0810   34.6678   22.5535 H         1 GSB200      0.0000 
@<TRIPOS>BOND
     1    2    1 1    
     2   47    1 1    
     3   48    1 1    
     4   49    1 1    
     5    3    2 1    
     6    6    2 1    
     7   28    2 1    
     8    4    3 ar   
     9    5    3 ar   
    10    7    6 1    
    11   29    6 1    
    12   30    6 1    
    13    8    7 1    
    14   31    7 1    
    15   32    7 1    
    16    9    8 2    
    17   10    8 am   
    18   11   10 1    
    19   33   10 1    
    20   12   11 1    
    21   19   11 1    
    22   34   11 1    
    23   13   12 2    
    24   14   12 am   
    25   15   14 1    
    26   35   14 1    
    27   16   15 1    
    28   36   15 1    
    29   37   15 1    
    30   17   16 ar   
    31   18   16 ar   
    32   20   19 1    
    33   38   19 1    
    34   39   19 1    
    35   21   20 1    
    36   22   21 1    
    37   40   21 1    
    38   41   21 1    
    39   23   22 ar   
    40   27   22 ar   
    41   24   23 ar   
    42   42   23 1    
    43   25   24 ar   
    44   43   24 1    
    45   26   25 ar   
    46   44   25 1    
    47   27   26 ar   
    48   45   26 1    
    49   46   27 1    
@<TRIPOS>SUBSTRUCTURE
     1 GSB200      1 GROUP   
@<TRIPOS>SET

