#    Name: 2iya_ZIO_2_INTS_M
#    Modification time : Tue Mar 25 19:00:19 2014

@<TRIPOS>MOLECULE
2iya_ZIO_2_INTS_M
  113     0     9     0     0
SMALL
NO_CHARGES


@<TRIPOS>ATOM
      1 CA         22.2375   37.6535   67.1450 C.3       3 GLC5        0.0000 
      2 CA         22.5470   39.6980   66.9590 C.3       9 GLL5        0.0000 
      3 CA         21.9280   35.6090   67.3310 C.3       6 GLP5        0.0000 
      4 CA         22.5800   44.7275   65.3575 C.3       3 GLC5        0.0000 
      5 CA         20.9270   44.5280   64.0030 C.3       9 GLL5        0.0000 
      6 CA         24.2330   44.9270   66.7120 C.3       6 GLP5        0.0000 
      7 CA         24.6340   43.7255   61.0895 C.3       3 GLC5        0.0000 
      8 CA         23.4540   43.0800   62.6080 C.3       9 GLL5        0.0000 
      9 CA         25.8140   44.3710   59.5710 C.3       6 GLP5        0.0000 
     10 N          21.1430   39.4145   62.2320 N.am      2 SEC2        0.0000 
     11 N          22.4120   39.9330   62.2050 N.am      8 SEL2        0.0000 
     12 N          19.8740   38.8960   62.2590 N.am      5 SEP2        0.0000 
     13 CA         23.1805   37.6050   62.2065 C.3       3 GLC5        0.0000 
     14 CA         23.8340   38.1320   64.1100 C.3       9 GLL5        0.0000 
     15 CA         22.5270   37.0780   60.3030 C.3       6 GLP5        0.0000 
     16 CA         24.4585   36.6025   64.5440 C.3       3 GLC5        0.0000 
     17 CA         25.0830   35.0730   64.9780 C.3       6 GLP5        0.0000 
     18 CA         24.2525   39.9355   60.6310 C.3       3 GLC5        0.0000 
     19 CA         25.2350   41.3690   61.8310 C.3       9 GLL5        0.0000 
     20 CA         23.2700   38.5020   59.4310 C.3       6 GLP5        0.0000 
     21 CA         26.3680   40.1210   61.6895 C.3       3 GLC5        0.0000 
     22 CA         27.5010   38.8730   61.5480 C.3       6 GLP5        0.0000 
     23 CA         25.0025   42.0475   67.6365 C.3       3 GLC5        0.0000 
     24 CA         23.7160   40.4640   67.6180 C.3       9 GLL5        0.0000 
     25 CA         26.2890   43.6310   67.6550 C.3       6 GLP5        0.0000 
     26 CA         20.6675   40.7315   70.9875 C.3       3 GLC5        0.0000 
     27 CA         21.1160   39.8290   69.1500 C.3       9 GLL5        0.0000 
     28 CA         20.2190   41.6340   72.8250 C.3       6 GLP5        0.0000 
     29 CA         20.4580   38.3595   70.5835 C.3       3 GLC5        0.0000 
     30 CA         19.8000   36.8900   72.0170 C.3       6 GLP5        0.0000 
     31 CA         17.0770   43.8880   67.5045 C.3       3 GLC5        0.0000 
     32 CA         18.6840   43.9280   66.6580 C.3       9 GLL5        0.0000 
     33 CA         15.4700   43.8480   68.3510 C.3       6 GLP5        0.0000 
     34 CA         17.6815   45.4620   66.2275 C.3       3 GLC5        0.0000 
     35 CA         16.6790   46.9960   65.7970 C.3       6 GLP5        0.0000 
     36 CA         20.7545   41.2535   60.2275 C.3       3 GLC5        0.0000 
     37 CA         22.0060   42.9770   60.5180 C.3       9 GLL5        0.0000 
     38 CA         19.5030   39.5300   59.9370 C.3       6 GLP5        0.0000 
     39 CA         22.1830   43.0300   58.7685 C.3       3 GLC5        0.0000 
     40 CA         22.3600   43.0830   57.0190 C.3       6 GLP5        0.0000 
     41 CA         23.9100   43.6740   60.0445 C.3       3 GLC5        0.0000 
     42 CA         20.4300   49.7670   59.2715 C.3       3 GLC5        0.0000 
     43 CA         22.1070   48.8050   60.3830 C.3       9 GLL5        0.0000 
     44 CA         18.7530   50.7290   58.1600 C.3       6 GLP5        0.0000 
     45 CA         23.4080   48.2395   57.6360 C.3       3 GLC5        0.0000 
     46 CA         21.9660   48.1670   58.9780 C.3       9 GLL5        0.0000 
     47 CA         24.8500   48.3120   56.2940 C.3       6 GLP5        0.0000 
     48 CA         19.0670   47.4915   59.8405 C.3       3 GLC5        0.0000 
     49 CA         21.0250   46.9600   59.0100 C.3       9 GLL5        0.0000 
     50 CA         17.1090   48.0230   60.6710 C.3       6 GLP5        0.0000 
     51 CA         21.3155   45.7445   55.5355 C.3       3 GLC5        0.0000 
     52 CA         20.9210   46.2470   57.6590 C.3       9 GLL5        0.0000 
     53 CA         21.7100   45.2420   53.4120 C.3       6 GLP5        0.0000 
     54 CA         21.6405   44.6650   57.3390 C.3       3 GLC5        0.0000 
     55 O          23.6845   48.5675   63.2560 O.2       1 ALC1        0.0000 
     56 O          22.4700   48.2680   62.7220 O.2       7 ALL1        0.0000 
     57 O          24.8990   48.8670   63.7900 O.2       4 ALP1        0.0000 
     58 CA         23.0325   51.4140   57.7635 C.3       3 GLC5        0.0000 
     59 CA         22.4550   51.1400   59.6600 C.3       9 GLL5        0.0000 
     60 CA         23.6100   51.6880   55.8670 C.3       6 GLP5        0.0000 
     61 CA         21.8545   52.5185   58.8870 C.3       3 GLC5        0.0000 
     62 CA         21.2540   53.8970   58.1140 C.3       6 GLP5        0.0000 
     63 CA         20.6040   50.9345   58.9100 C.3       3 GLC5        0.0000 
     64 CA         18.9850   40.8920   61.4445 C.3       3 GLC5        0.0000 
     65 CA         18.4670   42.2540   62.9520 C.3       9 GLL5        0.0000 
     66 CA         16.3735   39.9565   63.5165 C.3       3 GLC5        0.0000 
     67 CA         17.0270   41.7910   63.2440 C.3       9 GLL5        0.0000 
     68 CA         15.7200   38.1220   63.7890 C.3       6 GLP5        0.0000 
     69 CA         18.0635   41.8980   60.1155 C.3       3 GLC5        0.0000 
     70 CA         17.7350   43.7230   61.2020 C.3       9 GLL5        0.0000 
     71 CA         18.3920   40.0730   59.0290 C.3       6 GLP5        0.0000 
     72 N          14.7070   45.3135   62.2600 N.am      2 SEC2        0.0000 
     73 N          15.4680   44.6180   61.1740 N.am      8 SEL2        0.0000 
     74 N          13.9460   46.0090   63.3460 N.am      5 SEP2        0.0000 
     75 CA         14.8575   43.1675   66.3560 C.3       3 GLC5        0.0000 
     76 CA         14.2450   42.4870   64.3610 C.3       9 GLL5        0.0000 
     77 CA         14.2580   40.4965   65.0700 C.3       3 GLC5        0.0000 
     78 CA         14.2710   38.5060   65.7790 C.3       6 GLP5        0.0000 
     79 CA         13.2010   43.2030   62.9705 C.3       3 GLC5        0.0000 
     80 CA         12.1570   43.9190   61.5800 C.3       6 GLP5        0.0000 
     81 CA         14.3910   44.4300   64.5015 C.3       3 GLC5        0.0000 
     82 CA         14.5370   46.3730   64.6420 C.3       6 GLP5        0.0000 
     83 CA         13.1545   42.5090   65.7605 C.3       3 GLC5        0.0000 
     84 CA         12.0640   42.5310   67.1600 C.3       6 GLP5        0.0000 
     85 CA         26.2740   49.1660   60.9155 C.3       3 GLC5        0.0000 
     86 CA         24.4400   49.8310   60.3430 C.3       9 GLL5        0.0000 
     87 CA         28.1080   48.5010   61.4880 C.3       6 GLP5        0.0000 
     88 CA         24.9815   49.9590   62.1135 C.3       3 GLC5        0.0000 
     89 CA         25.5230   50.0870   63.8840 C.3       6 GLP5        0.0000 
     90 CA         25.5015   50.0615   58.8780 C.3       3 GLC5        0.0000 
     91 CA         26.5630   50.2920   57.4130 C.3       6 GLP5        0.0000 
     92 CA         18.4900   42.4200   58.7660 C.3       3 GLC5        0.0000 
     93 CA         18.0400   44.0500   59.7320 C.3       9 GLL5        0.0000 
     94 CA         18.9400   40.7900   57.8000 C.3       6 GLP5        0.0000 
     95 CA         20.5845   46.0595   66.4570 C.3       3 GLC5        0.0000 
     96 CA         20.3200   45.8740   64.4360 C.3       9 GLL5        0.0000 
     97 CA         20.8490   46.2450   68.4780 C.3       6 GLP5        0.0000 
     98 CA         18.4995   46.4350   65.1165 C.3       3 GLC5        0.0000 
     99 CA         19.5378   39.0845   67.9228 C.3       3 GLC5        0.0000 
    100 CA         21.2010   40.0630   67.6350 C.3       9 GLL5        0.0000 
    101 CA         17.9170   38.2230   67.4530 C.3       6 GLP5        0.0000 
    102 CA         20.0808   44.9278   67.4147 C.3       3 GLC5        0.0000 
    103 CA         19.9410   43.2930   66.0450 C.3       9 GLL5        0.0000 
    104 CA         25.5475   42.3372   60.8252 C.3       3 GLC5        0.0000 
    105 CA         24.1250   41.7000   62.8360 C.3       9 GLL5        0.0000 
    106 CA         26.4150   43.1400   59.3170 C.3       6 GLP5        0.0000 
    107 CA         20.0621   48.4456   57.6617 C.3       3 GLC5        0.0000 
    108 CA         18.9160   49.9860   56.9970 C.3       6 GLP5        0.0000 
    109 CA         14.1423   43.5435   61.8642 C.3       3 GLC5        0.0000 
    110 CA         16.2350   43.4270   61.4250 C.3       9 GLL5        0.0000 
    111 CA         16.0722   44.9205   63.3162 C.3       3 GLC5        0.0000 
    112 CA         16.0170   46.6730   64.4840 C.3       6 GLP5        0.0000 
    113 CA         17.4982   45.9548   60.5690 C.3       3 GLC5        0.0000 
@<TRIPOS>BOND
@<TRIPOS>SUBSTRUCTURE
     1 ALC1       55 GROUP        1 X    ALC  0     ROOT ALC X 1
     2 SEC2       10 GROUP        1 X    SEC  0     **** SEC X 2
     3 GLC5        1 GROUP        1 X    GLC  0     **** GLC X 6
     4 ALP1       57 GROUP        1 Y    ALP  0     ROOT ALP Y 8
     5 SEP2       12 GROUP        1 Y    SEP  0     **** SEP Y 9
     6 GLP5        3 GROUP        1 Y    GLP  0     **** GLP Y 13
     7 ALL1       56 GROUP        1 Z    ALL  0     ROOT ALL Z 15
     8 SEL2       11 GROUP        1 Z    SEL  0     **** SEL Z 16
     9 GLL5        2 GROUP        1 Z    GLL  0     **** GLL Z 20
@<TRIPOS>SET

