#    Name: 2iya_ZIO_2_ligand
#    Modification time : Tue Mar 25 19:00:19 2014

@<TRIPOS>MOLECULE
2iya_ZIO_2_ligand
  110   113     1     0     0
SMALL
NO_CHARGES


@<TRIPOS>ATOM
      1 C10        23.5830   39.6130   64.4280 C.3       1 ZIO1425     0.0000 
      2 C11        22.4350   39.9350   65.4110 C.3       1 ZIO1425     0.0000 
      3 C12        22.5470   39.6980   66.9590 C.3       1 ZIO1425     0.0000 
      4 C13        21.2010   40.0630   67.6350 C.3       1 ZIO1425     0.0000 
      5 O2         20.9770   41.4480   67.3860 O.3       1 ZIO1425     0.0000 
      6 C2         19.9410   43.2930   66.0450 C.3       1 ZIO1425     0.0000 
      7 C3         20.0600   43.3300   64.4850 C.3       1 ZIO1425     0.0000 
      8 C4         20.9270   44.5280   64.0030 C.3       1 ZIO1425     0.0000 
      9 C5         21.2940   44.4670   62.4820 C.3       1 ZIO1425     0.0000 
     10 C6         22.0100   43.1500   62.0420 C.3       1 ZIO1425     0.0000 
     11 C7         23.4540   43.0800   62.6080 C.3       1 ZIO1425     0.0000 
     12 C8         24.1250   41.7000   62.8360 C.3       1 ZIO1425     0.0000 
     13 C9         23.3380   40.4240   63.1400 C.2       1 ZIO1425     0.0000 
     14 O11        22.4120   39.9330   62.2050 O.2       1 ZIO1425     0.0000 
     15 C1         19.9700   41.8330   66.4990 C.2       1 ZIO1425     0.0000 
     16 O1         19.0360   40.9140   66.0050 O.2       1 ZIO1425     0.0000 
     17 O3         18.7820   43.3260   63.8380 O.3       1 ZIO1425     0.0000 
     18 O7         22.1550   45.5530   62.1700 O.3       1 ZIO1425     0.0000 
     19 C34        23.8340   38.1320   64.1100 C.3       1 ZIO1425     0.0000 
     20 C33        25.2350   41.3690   61.8310 C.3       1 ZIO1425     0.0000 
     21 C35        23.7160   40.4640   67.6180 C.3       1 ZIO1425     0.0000 
     22 O12        21.2670   39.3420   64.8800 O.3       1 ZIO1425     0.0000 
     23 C36        21.1160   39.8290   69.1500 C.3       1 ZIO1425     0.0000 
     24 C30        18.6840   43.9280   66.6580 C.3       1 ZIO1425     0.0000 
     25 C32        22.0060   42.9770   60.5180 C.3       1 ZIO1425     0.0000 
     26 C22        21.6160   46.5080   61.2670 C.3       1 ZIO1425     0.0000 
     27 C23        22.5260   47.7340   61.4040 C.3       1 ZIO1425     0.0000 
     28 C24        22.1070   48.8050   60.3830 C.3       1 ZIO1425     0.0000 
     29 C25        21.9660   48.1670   58.9780 C.3       1 ZIO1425     0.0000 
     30 C26        21.0250   46.9600   59.0100 C.3       1 ZIO1425     0.0000 
     31 O9         21.5130   46.0000   59.9420 O.3       1 ZIO1425     0.0000 
     32 N1         22.9720   49.9970   60.4390 N.4       1 ZIO1425     0.0000 
     33 C27        20.9210   46.2470   57.6590 C.3       1 ZIO1425     0.0000 
     34 O8         22.4700   48.2680   62.7220 O.3       1 ZIO1425     0.0000 
     35 C28        22.4550   51.1400   59.6600 C.3       1 ZIO1425     0.0000 
     36 C14        18.4670   42.2540   62.9520 C.3       1 ZIO1425     0.0000 
     37 C15        17.0270   41.7910   63.2440 C.3       1 ZIO1425     0.0000 
     38 C16        16.0200   42.9090   62.8720 C.3       1 ZIO1425     0.0000 
     39 C17        16.2350   43.4270   61.4250 C.3       1 ZIO1425     0.0000 
     40 C18        17.7350   43.7230   61.2020 C.3       1 ZIO1425     0.0000 
     41 O4         18.5680   42.6110   61.5760 O.3       1 ZIO1425     0.0000 
     42 O5         14.6690   42.4920   63.0130 O.3       1 ZIO1425     0.0000 
     43 O6         15.4680   44.6180   61.1740 O.3       1 ZIO1425     0.0000 
     44 O10        25.4990   41.6730   63.1850 O.3       1 ZIO1425     0.0000 
     45 C20        14.2450   42.4870   64.3610 C.3       1 ZIO1425     0.0000 
     46 C29        24.4400   49.8310   60.3430 C.3       1 ZIO1425     0.0000 
     47 C21        18.0400   44.0500   59.7320 C.3       1 ZIO1425     0.0000 
     48 C31        20.3200   45.8740   64.4360 C.3       1 ZIO1425     0.0000 
     49 H          24.5129   40.0338   64.8698 H         1 ZIO1425     0.0000 
     50 H          22.2697   41.0758   65.2963 H         1 ZIO1425     0.0000 
     51 H          22.7048   38.6272   67.1134 H         1 ZIO1425     0.0000 
     52 H          20.4189   39.4792   67.1509 H         1 ZIO1425     0.0000 
     53 H          20.8199   43.7717   66.4683 H         1 ZIO1425     0.0000 
     54 H          20.6251   42.4141   64.2014 H         1 ZIO1425     0.0000 
     55 H          21.9064   44.4357   64.5594 H         1 ZIO1425     0.0000 
     56 H          20.3706   44.5418   61.9157 H         1 ZIO1425     0.0000 
     57 H          21.4486   42.3142   62.4795 H         1 ZIO1425     0.0000 
     58 H          23.4722   43.6405   63.5820 H         1 ZIO1425     0.0000 
     59 H          24.1205   43.6833   61.9334 H         1 ZIO1425     0.0000 
     60 H          25.3385   42.1424   61.2805 H         1 ZIO1425     0.0000 
     61 H          25.2000   40.4247   61.6932 H         1 ZIO1425     0.0000 
     62 H          20.6306   46.8267   61.6448 H         1 ZIO1425     0.0000 
     63 H          23.5363   47.4237   61.1479 H         1 ZIO1425     0.0000 
     64 H          21.0662   49.1076   60.6828 H         1 ZIO1425     0.0000 
     65 H          22.9494   47.8517   58.6368 H         1 ZIO1425     0.0000 
     66 H          21.5742   48.9147   58.2921 H         1 ZIO1425     0.0000 
     67 H          20.0389   47.2931   59.2905 H         1 ZIO1425     0.0000 
     68 H          22.8212   50.3873   61.5720 H         1 ZIO1425     0.0000 
     69 H          19.1027   41.3880   63.1677 H         1 ZIO1425     0.0000 
     70 H          16.9292   41.5653   64.2979 H         1 ZIO1425     0.0000 
     71 H          16.8073   40.9093   62.6563 H         1 ZIO1425     0.0000 
     72 H          16.2251   43.7636   63.5363 H         1 ZIO1425     0.0000 
     73 H          15.9584   42.6310   60.7468 H         1 ZIO1425     0.0000 
     74 H          17.9969   44.6027   61.7872 H         1 ZIO1425     0.0000 
     75 H          24.5889   38.0134   63.4650 H         1 ZIO1425     0.0000 
     76 H          24.0652   37.6099   64.9309 H         1 ZIO1425     0.0000 
     77 H          23.0301   37.6980   63.7033 H         1 ZIO1425     0.0000 
     78 H          24.5991   40.1981   67.2314 H         1 ZIO1425     0.0000 
     79 H          23.6282   41.4526   67.4955 H         1 ZIO1425     0.0000 
     80 H          23.7637   40.2937   68.6022 H         1 ZIO1425     0.0000 
     81 H          21.2614   38.8682   69.3861 H         1 ZIO1425     0.0000 
     82 H          21.8023   40.3601   69.6469 H         1 ZIO1425     0.0000 
     83 H          20.2226   40.0889   69.5164 H         1 ZIO1425     0.0000 
     84 H          18.6857   43.8662   67.6561 H         1 ZIO1425     0.0000 
     85 H          18.6060   44.8972   66.4245 H         1 ZIO1425     0.0000 
     86 H          17.8485   43.4812   66.3381 H         1 ZIO1425     0.0000 
     87 H          22.4744   43.7310   60.0574 H         1 ZIO1425     0.0000 
     88 H          22.4641   42.1331   60.2388 H         1 ZIO1425     0.0000 
     89 H          21.0766   42.9413   60.1507 H         1 ZIO1425     0.0000 
     90 H          21.8089   45.9068   57.3493 H         1 ZIO1425     0.0000 
     91 H          20.3041   45.4610   57.7004 H         1 ZIO1425     0.0000 
     92 H          20.5743   46.8544   56.9442 H         1 ZIO1425     0.0000 
     93 H          23.0615   51.9331   59.7171 H         1 ZIO1425     0.0000 
     94 H          22.3573   50.9149   58.6906 H         1 ZIO1425     0.0000 
     95 H          21.5561   51.4344   59.9846 H         1 ZIO1425     0.0000 
     96 H          14.7990   41.8721   64.9223 H         1 ZIO1425     0.0000 
     97 H          14.3071   43.3960   64.7732 H         1 ZIO1425     0.0000 
     98 H          13.2946   42.1890   64.4503 H         1 ZIO1425     0.0000 
     99 H          24.9170   50.7085   60.3928 H         1 ZIO1425     0.0000 
    100 H          24.7983   49.2602   61.0818 H         1 ZIO1425     0.0000 
    101 H          24.7094   49.3994   59.4821 H         1 ZIO1425     0.0000 
    102 H          19.0105   44.2436   59.5882 H         1 ZIO1425     0.0000 
    103 H          17.7993   43.2924   59.1253 H         1 ZIO1425     0.0000 
    104 H          17.5314   44.8511   59.4165 H         1 ZIO1425     0.0000 
    105 H          20.2417   45.9433   65.4305 H         1 ZIO1425     0.0000 
    106 H          20.8759   46.6473   64.1312 H         1 ZIO1425     0.0000 
    107 H          19.4029   46.0060   64.0599 H         1 ZIO1425     0.0000 
    108 H          21.5463   38.9666   63.9962 H         1 ZIO1425     0.0000 
    109 H          23.3783   48.1035   63.1066 H         1 ZIO1425     0.0000 
    110 H          15.1212   44.5108   60.2422 H         1 ZIO1425     0.0000 
@<TRIPOS>BOND
     1    2    1 1    
     2   13    1 1    
     3   19    1 1    
     4   49    1 1    
     5    3    2 1    
     6   22    2 1    
     7   50    2 1    
     8    4    3 1    
     9   21    3 1    
    10   51    3 1    
    11    5    4 1    
    12   23    4 1    
    13   52    4 1    
    14   15    5 1    
    15    7    6 1    
    16   15    6 1    
    17   24    6 1    
    18   53    6 1    
    19    8    7 1    
    20   17    7 1    
    21   54    7 1    
    22    9    8 1    
    23   48    8 1    
    24   55    8 1    
    25   10    9 1    
    26   18    9 1    
    27   56    9 1    
    28   11   10 1    
    29   25   10 1    
    30   57   10 1    
    31   12   11 1    
    32   58   11 1    
    33   59   11 1    
    34   13   12 1    
    35   20   12 1    
    36   44   12 1    
    37   14   13 2    
    38   16   15 2    
    39   36   17 1    
    40   26   18 1    
    41   75   19 1    
    42   76   19 1    
    43   77   19 1    
    44   44   20 1    
    45   60   20 1    
    46   61   20 1    
    47   78   21 1    
    48   79   21 1    
    49   80   21 1    
    50  108   22 1    
    51   81   23 1    
    52   82   23 1    
    53   83   23 1    
    54   84   24 1    
    55   85   24 1    
    56   86   24 1    
    57   87   25 1    
    58   88   25 1    
    59   89   25 1    
    60   27   26 1    
    61   31   26 1    
    62   62   26 1    
    63   28   27 1    
    64   34   27 1    
    65   63   27 1    
    66   29   28 1    
    67   32   28 1    
    68   64   28 1    
    69   30   29 1    
    70   65   29 1    
    71   66   29 1    
    72   31   30 1    
    73   33   30 1    
    74   67   30 1    
    75   35   32 1    
    76   46   32 1    
    77   68   32 1    
    78   90   33 1    
    79   91   33 1    
    80   92   33 1    
    81  109   34 1    
    82   93   35 1    
    83   94   35 1    
    84   95   35 1    
    85   37   36 1    
    86   41   36 1    
    87   69   36 1    
    88   38   37 1    
    89   70   37 1    
    90   71   37 1    
    91   39   38 1    
    92   42   38 1    
    93   72   38 1    
    94   40   39 1    
    95   43   39 1    
    96   73   39 1    
    97   41   40 1    
    98   47   40 1    
    99   74   40 1    
   100   45   42 1    
   101  110   43 1    
   102   96   45 1    
   103   97   45 1    
   104   98   45 1    
   105   99   46 1    
   106  100   46 1    
   107  101   46 1    
   108  102   47 1    
   109  103   47 1    
   110  104   47 1    
   111  105   48 1    
   112  106   48 1    
   113  107   48 1    
@<TRIPOS>SUBSTRUCTURE
     1 ZIO1425     1 GROUP   
@<TRIPOS>SET

