#    Name: 3tzl_ADP_1_INTS_M
#    Modification time : Mon Mar 24 21:14:37 2014

@<TRIPOS>MOLECULE
3tzl_ADP_1_INTS_M
   45     0    12     0     0
SMALL
NO_CHARGES


@<TRIPOS>ATOM
      1 N          49.4285   16.3330   35.6865 N.am      2 SEC2        0.0000 
      2 N          49.2900   15.4600   34.2900 N.am     10 SEL2        0.0000 
      3 N          49.5670   17.2060   37.0830 N.am      6 SEP2        0.0000 
      4 NZ         46.5395   14.5760   36.4440 N.4       3 LYC4        0.0000 
      5 NZ         47.9940   14.6230   35.9080 N.4      11 LYL4        0.0000 
      6 NZ         45.0850   14.5290   36.9800 N.4       7 LYP4        0.0000 
      7 N          48.7805   15.9145   36.4955 N.am      2 SEC2        0.0000 
      8 N          47.9940   14.6230   35.9080 N.am     10 SEL2        0.0000 
      9 N          48.9050   13.8930   36.7740 N.am      2 SEC2        0.0000 
     10 N          49.8160   13.1630   37.6400 N.am      6 SEP2        0.0000 
     11 N          46.5395   14.5760   36.4440 N.am      2 SEC2        0.0000 
     12 N          45.0850   14.5290   36.9800 N.am      6 SEP2        0.0000 
     13 N          46.8940   17.5765   34.6625 N.am      2 SEC2        0.0000 
     14 N          46.8360   15.9850   34.2590 N.am     10 SEL2        0.0000 
     15 N          46.9520   19.1680   35.0660 N.am      6 SEP2        0.0000 
     16 CA         46.6940   18.5750   27.4295 C.3       4 GLC5        0.0000 
     17 CA         47.1620   19.3570   29.3850 C.3      12 GLL5        0.0000 
     18 CA         46.2260   17.7930   25.4740 C.3       8 GLP5        0.0000 
     19 CA         47.4645   21.9110   30.7750 C.3       4 GLC5        0.0000 
     20 CA         48.5520   20.0810   31.0330 C.3      12 GLL5        0.0000 
     21 CA         46.3770   23.7410   30.5170 C.3       8 GLP5        0.0000 
     22 CA         54.2905   20.3775   33.7365 C.3       4 GLC5        0.0000 
     23 CA         52.9760   19.0830   32.7510 C.3      12 GLL5        0.0000 
     24 CA         55.6050   21.6720   34.7220 C.3       8 GLP5        0.0000 
     25 O          55.0875   18.5145   34.0305 O.2       1 ALC1        0.0000 
     26 O          53.7130   18.2600   33.5970 O.2       9 ALL1        0.0000 
     27 O          56.4620   18.7690   34.4640 O.2       5 ALP1        0.0000 
     28 O          53.2310   17.1675   34.2915 O.2       1 ALC1        0.0000 
     29 O          52.7490   16.0750   34.9860 O.2       5 ALP1        0.0000 
     30 N          54.9835   20.5135   32.2590 N.am      2 SEC2        0.0000 
     31 N          53.5730   20.0240   32.0510 N.am     10 SEL2        0.0000 
     32 N          56.3940   21.0030   32.4670 N.am      6 SEP2        0.0000 
     33 CA         51.8255   22.5045   31.2760 C.3       4 GLC5        0.0000 
     34 CA         52.9230   20.8220   31.2410 C.3      12 GLL5        0.0000 
     35 CA         50.7280   24.1870   31.3110 C.3       8 GLP5        0.0000 
     36 CA         54.8725   20.9055   30.6565 C.3       4 GLC5        0.0000 
     37 CA         56.8220   20.9890   30.0720 C.3       8 GLP5        0.0000 
     38 CA         54.2640   21.2470   32.9815 C.3       4 GLC5        0.0000 
     39 CA         50.8340   22.0045   31.5135 C.3       4 GLC5        0.0000 
     40 CA         50.9400   19.8220   31.7160 C.3      12 GLL5        0.0000 
     41 CA         52.1073   20.2345   34.2660 C.3       4 GLC5        0.0000 
     42 CA         51.5970   18.9470   32.5970 C.3      12 GLL5        0.0000 
     43 CA         51.9280   21.4540   35.8580 C.3       8 GLP5        0.0000 
     44 CA         52.8642   17.7340   31.2860 C.3       4 GLC5        0.0000 
     45 CA         53.4420   16.4530   29.8980 C.3       8 GLP5        0.0000 
@<TRIPOS>BOND
@<TRIPOS>SUBSTRUCTURE
     1 ALC1       25 GROUP        1 X    ALC  0     ROOT ALC X 1
     2 SEC2        1 GROUP        1 X    SEC  0     **** SEC X 2
     3 LYC4        4 GROUP        1 X    LYC  0     **** LYC X 4
     4 GLC5       16 GROUP        1 X    GLC  0     **** GLC X 6
     5 ALP1       27 GROUP        1 Y    ALP  0     ROOT ALP Y 8
     6 SEP2        3 GROUP        1 Y    SEP  0     **** SEP Y 9
     7 LYP4        6 GROUP        1 Y    LYP  0     **** LYP Y 11
     8 GLP5       18 GROUP        1 Y    GLP  0     **** GLP Y 13
     9 ALL1       26 GROUP        1 Z    ALL  0     ROOT ALL Z 15
    10 SEL2        2 GROUP        1 Z    SEL  0     **** SEL Z 16
    11 LYL4        5 GROUP        1 Z    LYL  0     **** LYL Z 18
    12 GLL5       17 GROUP        1 Z    GLL  0     **** GLL Z 20
@<TRIPOS>SET

