#    Name: 3tzl_ADP_1_ligand
#    Modification time : Mon Mar 24 21:14:37 2014

@<TRIPOS>MOLECULE
3tzl_ADP_1_ligand
   39    41     1     0     0
SMALL
NO_CHARGES


@<TRIPOS>ATOM
      1 PB         47.9520   14.9880   34.5270 P.3       1 ADP330      0.0000 
      2 O1B        49.2900   15.4600   34.2900 O.co2     1 ADP330      0.0000 
      3 O2B        47.9940   14.6230   35.9080 O.co2     1 ADP330      0.0000 
      4 O3B        47.9170   13.6910   33.9070 O.co2     1 ADP330      0.0000 
      5 PA         46.1100   16.0810   32.9100 P.3       1 ADP330      0.0000 
      6 O1A        44.7370   15.6430   33.0700 O.co2     1 ADP330      0.0000 
      7 O2A        46.6160   15.0930   31.9440 O.co2     1 ADP330      0.0000 
      8 O3A        46.8360   15.9850   34.2590 O.3       1 ADP330      0.0000 
      9 O5'        46.0970   17.5040   32.3050 O.3       1 ADP330      0.0000 
     10 C5'        46.4820   17.6540   31.0080 C.3       1 ADP330      0.0000 
     11 C4'        46.5830   19.1120   30.7280 C.3       1 ADP330      0.0000 
     12 O4'        47.3410   19.8350   31.6340 O.3       1 ADP330      0.0000 
     13 C3'        47.1620   19.3570   29.3850 C.3       1 ADP330      0.0000 
     14 O3'        46.7430   20.5630   28.9440 O.3       1 ADP330      0.0000 
     15 C2'        48.5650   19.4980   29.6820 C.3       1 ADP330      0.0000 
     16 O2'        49.1220   20.3730   28.8040 O.3       1 ADP330      0.0000 
     17 C1'        48.5520   20.0810   31.0330 C.3       1 ADP330      0.0000 
     18 N9         49.6000   19.4800   31.7640 N.pl3     1 ADP330      0.0000 
     19 C8         49.4880   18.4390   32.6120 C.2       1 ADP330      0.0000 
     20 N7         50.6560   18.1230   33.1120 N.2       1 ADP330      0.0000 
     21 C5         51.5970   18.9470   32.5970 C.ar      1 ADP330      0.0000 
     22 C6         52.9760   19.0830   32.7510 C.ar      1 ADP330      0.0000 
     23 N6         53.7130   18.2600   33.5970 N.pl3     1 ADP330      0.0000 
     24 N1         53.5730   20.0240   32.0510 N.ar      1 ADP330      0.0000 
     25 C2         52.9230   20.8220   31.2410 C.ar      1 ADP330      0.0000 
     26 N3         51.6340   20.7310   31.0700 N.ar      1 ADP330      0.0000 
     27 C4         50.9400   19.8220   31.7160 C.ar      1 ADP330      0.0000 
     28 H          45.7638   17.2226   30.2933 H         1 ADP330      0.0000 
     29 H          47.4631   17.2013   30.7953 H         1 ADP330      0.0000 
     30 H          45.5469   19.5212   30.6916 H         1 ADP330      0.0000 
     31 H          46.9893   18.5500   28.7654 H         1 ADP330      0.0000 
     32 H          49.0239   18.5473   29.7186 H         1 ADP330      0.0000 
     33 H          48.7400   21.1490   30.9328 H         1 ADP330      0.0000 
     34 H          48.6314   17.9899   32.8147 H         1 ADP330      0.0000 
     35 H          54.6955   18.4408   33.6407 H         1 ADP330      0.0000 
     36 H          53.1966   17.5587   34.0884 H         1 ADP330      0.0000 
     37 H          53.4684   21.5695   30.7053 H         1 ADP330      0.0000 
     38 H          47.5519   20.9835   28.5330 H         1 ADP330      0.0000 
     39 H          49.9694   20.6741   29.2413 H         1 ADP330      0.0000 
@<TRIPOS>BOND
     1    2    1 ar   
     2    3    1 ar   
     3    4    1 ar   
     4    8    1 1    
     5    6    5 ar   
     6    7    5 ar   
     7    8    5 1    
     8    9    5 1    
     9   10    9 1    
    10   11   10 1    
    11   28   10 1    
    12   29   10 1    
    13   12   11 1    
    14   13   11 1    
    15   30   11 1    
    16   17   12 1    
    17   14   13 1    
    18   15   13 1    
    19   31   13 1    
    20   38   14 1    
    21   16   15 1    
    22   17   15 1    
    23   32   15 1    
    24   39   16 1    
    25   18   17 1    
    26   33   17 1    
    27   19   18 1    
    28   27   18 1    
    29   20   19 2    
    30   34   19 1    
    31   21   20 1    
    32   22   21 ar   
    33   27   21 ar   
    34   23   22 1    
    35   24   22 ar   
    36   35   23 1    
    37   36   23 1    
    38   25   24 ar   
    39   26   25 ar   
    40   37   25 1    
    41   27   26 ar   
@<TRIPOS>SUBSTRUCTURE
     1 ADP330      1 GROUP   
@<TRIPOS>SET

