#    Name: 3qjz_QJZ_1_INTS_M
#    Modification time : Tue Mar 25 09:54:37 2014

@<TRIPOS>MOLECULE
3qjz_QJZ_1_INTS_M
   57     0     9     0     0
SMALL
NO_CHARGES


@<TRIPOS>ATOM
      1 CA         17.2565   11.3710   22.8505 C.3       3 GLC5        0.0000 
      2 CA         18.6890   12.9440   23.4950 C.3       9 GLL5        0.0000 
      3 CA         15.8240    9.7980   22.2060 C.3       6 GLP5        0.0000 
      4 CA         18.6805   14.7385   24.5205 C.3       3 GLC5        0.0000 
      5 CA         18.6720   16.5330   25.5460 C.3       6 GLP5        0.0000 
      6 CA         13.1145   14.5740   21.7390 C.3       3 GLC5        0.0000 
      7 CA         13.0650   14.8050   23.7370 C.3       9 GLL5        0.0000 
      8 CA         13.1640   14.3430   19.7410 C.3       6 GLP5        0.0000 
      9 CA         13.4565   13.0345   22.6695 C.3       3 GLC5        0.0000 
     10 CA         13.8480   11.2640   21.6020 C.3       6 GLP5        0.0000 
     11 CA         12.1055   13.0975   24.7980 C.3       3 GLC5        0.0000 
     12 CA         11.1460   11.3900   25.8590 C.3       6 GLP5        0.0000 
     13 CA         13.0940   15.6505   25.6985 C.3       3 GLC5        0.0000 
     14 CA         13.1230   16.4960   27.6600 C.3       6 GLP5        0.0000 
     15 CA         20.4625   16.3065   18.1620 C.3       3 GLC5        0.0000 
     16 CA         22.3130   15.9890   18.2390 C.3       9 GLL5        0.0000 
     17 CA         18.6120   16.6240   18.0850 C.3       6 GLP5        0.0000 
     18 CA         22.2860   15.8895   16.2985 C.3       3 GLC5        0.0000 
     19 CA         22.2590   15.7900   14.3580 C.3       6 GLP5        0.0000 
     20 O          14.5405   13.2585   24.6550 O.2       1 ALC1        0.0000 
     21 O          15.3440   14.0160   23.7810 O.2       7 ALL1        0.0000 
     22 O          13.7370   12.5010   25.5290 O.2       4 ALP1        0.0000 
     23 N          16.4720   11.6705   24.2475 N.am      2 SEC2        0.0000 
     24 N          17.4230   12.9400   23.9650 N.am      8 SEL2        0.0000 
     25 N          15.5210   10.4010   24.5300 N.am      5 SEP2        0.0000 
     26 CA         19.6270   15.7395   22.9835 C.3       3 GLC5        0.0000 
     27 CA         20.1830   14.0830   21.9400 C.3       9 GLL5        0.0000 
     28 CA         19.0710   17.3960   24.0270 C.3       6 GLP5        0.0000 
     29 CA         24.6820   14.0475   18.1035 C.3       3 GLC5        0.0000 
     30 CA         23.8180   14.3320   20.0410 C.3       9 GLL5        0.0000 
     31 CA         25.5460   13.7630   16.1660 C.3       6 GLP5        0.0000 
     32 CA         23.7045   12.2910   19.5980 C.3       3 GLC5        0.0000 
     33 CA         23.5910   10.2500   19.1550 C.3       6 GLP5        0.0000 
     34 CA         23.7450   15.5085   21.7285 C.3       3 GLC5        0.0000 
     35 CA         23.6720   16.6850   23.4160 C.3       6 GLP5        0.0000 
     36 CA         18.4540   13.5585   20.6395 C.3       3 GLC5        0.0000 
     37 CA         18.9300   13.9370   22.5280 C.3       9 GLL5        0.0000 
     38 CA         18.6950   12.7640   18.8500 C.3       6 GLP5        0.0000 
     39 CA         18.6420   15.8745   23.2280 C.3       3 GLC5        0.0000 
     40 CA         25.8130   13.6017   22.5195 C.3       3 GLC5        0.0000 
     41 CA         23.6010   12.6580   22.1660 C.3       9 GLL5        0.0000 
     42 CA         27.4160   14.4560   23.2000 C.3       6 GLP5        0.0000 
     43 CA         24.3392   14.7335   17.3095 C.3       3 GLC5        0.0000 
     44 CA         23.9520   15.4190   18.6670 C.3       9 GLL5        0.0000 
     45 CA         19.7000   13.2105   20.4878 C.3       3 GLC5        0.0000 
     46 CA         21.2270   13.2310   22.3110 C.3       9 GLL5        0.0000 
     47 CA         20.7466   11.2087   21.8249 C.3       3 GLC5        0.0000 
     48 CA         19.7450   12.1060   23.8600 C.3       9 GLL5        0.0000 
     49 CA         20.6930    9.7150   20.7110 C.3       6 GLP5        0.0000 
     50 CA         23.7607   11.5871   20.4401 C.3       3 GLC5        0.0000 
     51 CA         22.4830   13.3650   21.7110 C.3       9 GLL5        0.0000 
     52 CA         23.6887   13.8696   23.4396 C.3       3 GLC5        0.0000 
     53 CA         24.8190   12.8370   21.5120 C.3       9 GLL5        0.0000 
     54 CA         23.4470   14.8150   25.1540 C.3       6 GLP5        0.0000 
     55 CA         21.3006   13.7021   24.3447 C.3       3 GLC5        0.0000 
     56 CA         21.0020   12.2420   23.2730 C.3       9 GLL5        0.0000 
     57 CA         22.1940   14.3840   25.8890 C.3       6 GLP5        0.0000 
@<TRIPOS>BOND
@<TRIPOS>SUBSTRUCTURE
     1 ALC1       20 GROUP        1 X    ALC  0     ROOT ALC X 1
     2 SEC2       23 GROUP        1 X    SEC  0     **** SEC X 2
     3 GLC5        1 GROUP        1 X    GLC  0     **** GLC X 6
     4 ALP1       22 GROUP        1 Y    ALP  0     ROOT ALP Y 8
     5 SEP2       25 GROUP        1 Y    SEP  0     **** SEP Y 9
     6 GLP5        3 GROUP        1 Y    GLP  0     **** GLP Y 13
     7 ALL1       21 GROUP        1 Z    ALL  0     ROOT ALL Z 15
     8 SEL2       24 GROUP        1 Z    SEL  0     **** SEL Z 16
     9 GLL5        2 GROUP        1 Z    GLL  0     **** GLL Z 20
@<TRIPOS>SET

