#    Name: 3qjz_QJZ_1_ligand
#    Modification time : Tue Mar 25 09:54:37 2014

@<TRIPOS>MOLECULE
3qjz_QJZ_1_ligand
   33    35     1     0     0
SMALL
NO_CHARGES


@<TRIPOS>ATOM
      1 C4         18.9300   13.9370   22.5280 C.ar      1 QJZ1        0.0000 
      2 C5         18.6890   12.9440   23.4950 C.ar      1 QJZ1        0.0000 
      3 C6         19.7450   12.1060   23.8600 C.ar      1 QJZ1        0.0000 
      4 C8         16.6290   13.8770   23.4510 C.2       1 QJZ1        0.0000 
      5 C10        22.4830   13.3650   21.7110 C.ar      1 QJZ1        0.0000 
      6 C13        13.0650   14.8050   23.7370 C.3       1 QJZ1        0.0000 
      7 C15        23.6010   12.6580   22.1660 C.ar      1 QJZ1        0.0000 
      8 C21        22.3130   15.9890   18.2390 C.3       1 QJZ1        0.0000 
      9 C12        14.4930   14.8620   23.1950 C.2       1 QJZ1        0.0000 
     10 O14        14.7850   15.6470   22.2930 O.2       1 QJZ1        0.0000 
     11 N11        15.3440   14.0160   23.7810 N.am      1 QJZ1        0.0000 
     12 N9         17.4230   12.9400   23.9650 N.2       1 QJZ1        0.0000 
     13 S7         17.4960   14.7690   22.3300 S.3       1 QJZ1        0.0000 
     14 C3         20.1830   14.0830   21.9400 C.ar      1 QJZ1        0.0000 
     15 C1         21.0020   12.2420   23.2730 C.ar      1 QJZ1        0.0000 
     16 C2         21.2270   13.2310   22.3110 C.ar      1 QJZ1        0.0000 
     17 N19        22.6250   14.1780   20.6480 N.ar      1 QJZ1        0.0000 
     18 C16        24.8190   12.8370   21.5120 C.ar      1 QJZ1        0.0000 
     19 N17        24.8990   13.6620   20.4780 N.ar      1 QJZ1        0.0000 
     20 C18        23.8180   14.3320   20.0410 C.ar      1 QJZ1        0.0000 
     21 S20        23.9520   15.4190   18.6670 S.3       1 QJZ1        0.0000 
     22 H          19.5913   11.3761   24.5745 H         1 QJZ1        0.0000 
     23 H          23.5244   12.0256   22.9594 H         1 QJZ1        0.0000 
     24 H          14.9631   13.3990   24.5812 H         1 QJZ1        0.0000 
     25 H          20.3423   14.8120   21.2370 H         1 QJZ1        0.0000 
     26 H          21.7680   11.6132   23.5475 H         1 QJZ1        0.0000 
     27 H          25.6444   12.3105   21.8583 H         1 QJZ1        0.0000 
     28 H          12.9711   14.1264   24.4655 H         1 QJZ1        0.0000 
     29 H          12.7764   15.6841   24.1164 H         1 QJZ1        0.0000 
     30 H          12.4066   14.5630   23.0243 H         1 QJZ1        0.0000 
     31 H          22.3294   16.6155   17.4598 H         1 QJZ1        0.0000 
     32 H          21.7087   15.2312   17.9931 H         1 QJZ1        0.0000 
     33 H          21.8792   16.4757   18.9973 H         1 QJZ1        0.0000 
@<TRIPOS>BOND
     1    2    1 ar   
     2   13    1 1    
     3   14    1 ar   
     4    3    2 ar   
     5   12    2 1    
     6   15    3 ar   
     7   22    3 1    
     8   11    4 1    
     9   12    4 2    
    10   13    4 1    
    11    7    5 ar   
    12   16    5 1    
    13   17    5 ar   
    14    9    6 1    
    15   28    6 1    
    16   29    6 1    
    17   30    6 1    
    18   18    7 ar   
    19   23    7 1    
    20   21    8 1    
    21   31    8 1    
    22   32    8 1    
    23   33    8 1    
    24   10    9 2    
    25   11    9 am   
    26   24   11 1    
    27   16   14 ar   
    28   25   14 1    
    29   16   15 ar   
    30   26   15 1    
    31   20   17 ar   
    32   19   18 ar   
    33   27   18 1    
    34   20   19 ar   
    35   21   20 1    
@<TRIPOS>SUBSTRUCTURE
     1 QJZ1        1 GROUP   
@<TRIPOS>SET

