#    Name: 3vw1_CVI_1_INTS_M
#    Modification time : Tue Mar 25 01:43:43 2014

@<TRIPOS>MOLECULE
3vw1_CVI_1_INTS_M
   86     0     3     0     0
SMALL
NO_CHARGES


@<TRIPOS>ATOM
      1 CA        -12.5950    3.9280  -20.1695 C.3       1 GLC5        0.0000 
      2 CA        -13.4020    2.7860  -18.6720 C.3       3 GLL5        0.0000 
      3 CA        -11.7880    5.0700  -21.6670 C.3       2 GLP5        0.0000 
      4 CA        -17.8290    5.0360  -17.5175 C.3       1 GLC5        0.0000 
      5 CA        -17.6380    3.6340  -19.0460 C.3       3 GLL5        0.0000 
      6 CA        -18.0200    6.4380  -15.9890 C.3       2 GLP5        0.0000 
      7 CA        -15.6855    2.4960  -15.5165 C.3       1 GLC5        0.0000 
      8 CA        -15.7410    2.8780  -17.7030 C.3       3 GLL5        0.0000 
      9 CA        -15.6300    2.1140  -13.3300 C.3       2 GLP5        0.0000 
     10 CA        -10.3920    4.8030  -11.8230 C.3       1 GLC5        0.0000 
     11 CA         -9.4710    4.6310  -13.8240 C.3       3 GLL5        0.0000 
     12 CA        -11.3130    4.9750   -9.8220 C.3       2 GLP5        0.0000 
     13 CA         -8.4230    5.8510  -12.7235 C.3       1 GLC5        0.0000 
     14 CA         -7.3750    7.0710  -11.6230 C.3       2 GLP5        0.0000 
     15 CA         -8.9905    5.7515  -15.3370 C.3       1 GLC5        0.0000 
     16 CA         -8.5100    6.8720  -16.8500 C.3       2 GLP5        0.0000 
     17 CA        -11.1690    6.2405  -11.6235 C.3       1 GLC5        0.0000 
     18 CA        -11.3910    6.1790  -13.4840 C.3       3 GLL5        0.0000 
     19 CA        -10.9470    6.3020   -9.7630 C.3       2 GLP5        0.0000 
     20 CA        -12.1330    7.4840  -12.6340 C.3       1 GLC5        0.0000 
     21 CA        -12.8750    8.7890  -11.7840 C.3       2 GLP5        0.0000 
     22 CA         -9.9505    6.5255  -15.1670 C.3       1 GLC5        0.0000 
     23 CA        -18.9000    5.9755  -18.7095 C.3       1 GLC5        0.0000 
     24 CA        -19.5190    4.6360  -20.2470 C.3       3 GLL5        0.0000 
     25 CA        -18.2810    7.3150  -17.1720 C.3       2 GLP5        0.0000 
     26 CA        -20.9425    4.1105  -19.7645 C.3       1 GLC5        0.0000 
     27 CA        -22.3660    3.5850  -19.2820 C.3       2 GLP5        0.0000 
     28 CA        -20.3045    5.1870  -21.3135 C.3       1 GLC5        0.0000 
     29 CA        -21.0900    5.7380  -22.3800 C.3       2 GLP5        0.0000 
     30 CA        -18.3945    6.2490  -20.8665 C.3       1 GLC5        0.0000 
     31 CA        -17.2700    7.8620  -21.4860 C.3       2 GLP5        0.0000 
     32 CA        -18.8875    4.9420  -16.9870 C.3       1 GLC5        0.0000 
     33 CA        -19.7550    3.4460  -17.9850 C.3       3 GLL5        0.0000 
     34 CA        -20.5550    3.5110  -16.4360 C.3       1 GLC5        0.0000 
     35 CA        -21.3550    3.5760  -14.8870 C.3       2 GLP5        0.0000 
     36 CA        -21.0605    3.5155  -18.6335 C.3       1 GLC5        0.0000 
     37 CA        -20.2990    1.4940  -18.1655 C.3       1 GLC5        0.0000 
     38 CA        -20.8430   -0.4580  -18.3460 C.3       2 GLP5        0.0000 
     39 CA         -8.9555   -2.1640  -22.8865 C.3       1 GLC5        0.0000 
     40 CA         -9.2330   -0.1860  -22.7330 C.3       3 GLL5        0.0000 
     41 CA         -8.6780   -4.1420  -23.0400 C.3       2 GLP5        0.0000 
     42 CA         -9.7210    1.5905  -22.9740 C.3       1 GLC5        0.0000 
     43 CA        -10.2090    3.3670  -23.2150 C.3       2 GLP5        0.0000 
     44 CA         -7.7255    0.6410  -23.4335 C.3       1 GLC5        0.0000 
     45 CA         -6.2180    1.4680  -24.1340 C.3       2 GLP5        0.0000 
     46 CA        -12.5485   -0.7040  -25.2295 C.3       1 GLC5        0.0000 
     47 CA        -11.3620   -0.8560  -23.8100 C.3       3 GLL5        0.0000 
     48 CA        -13.7350   -0.5520  -26.6490 C.3       2 GLP5        0.0000 
     49 CA        -11.5950   -2.1840  -22.2345 C.3       1 GLC5        0.0000 
     50 CA        -11.8280   -3.5120  -20.6590 C.3       2 GLP5        0.0000 
     51 CA        -10.0200   -2.4990  -23.4250 C.3       1 GLC5        0.0000 
     52 CA        -11.4850    1.3025  -23.6245 C.3       1 GLC5        0.0000 
     53 CA        -11.6080    3.4610  -23.4390 C.3       2 GLP5        0.0000 
     54 CA        -10.4550    0.6185  -25.2250 C.3       1 GLC5        0.0000 
     55 CA         -9.5480    2.0930  -26.6400 C.3       2 GLP5        0.0000 
     56 CA         -9.8557    5.3827  -16.2302 C.3       1 GLC5        0.0000 
     57 CA        -10.9790    3.2650  -15.8490 C.3       3 GLL5        0.0000 
     58 CA        -14.6475    5.5065  -16.1692 C.3       1 GLC5        0.0000 
     59 CA        -12.4950    5.1980  -15.9950 C.3       3 GLL5        0.0000 
     60 CA        -16.4850    6.1080  -15.8020 C.3       2 GLP5        0.0000 
     61 CA        -11.5745    6.1060  -17.5358 C.3       1 GLC5        0.0000 
     62 CA        -13.1250    4.6120  -17.0780 C.3       3 GLL5        0.0000 
     63 CA        -10.3390    7.3070  -18.5350 C.3       2 GLP5        0.0000 
     64 CA        -15.8180    2.3897  -20.9545 C.3       1 GLC5        0.0000 
     65 CA        -14.8730    3.0700  -18.8150 C.3       3 GLL5        0.0000 
     66 CA        -16.5080    1.4600  -22.4910 C.3       2 GLP5        0.0000 
     67 CA        -16.0630    1.2885  -18.2340 C.3       1 GLC5        0.0000 
     68 CA        -16.8190   -0.3970  -18.2090 C.3       2 GLP5        0.0000 
     69 CA        -15.9760    5.4127  -20.8173 C.3       1 GLC5        0.0000 
     70 CA        -15.3830    3.5690  -20.0210 C.3       3 GLL5        0.0000 
     71 CA        -15.8710    7.1220  -21.5620 C.3       2 GLP5        0.0000 
     72 CA        -16.8582    2.5980  -21.0380 C.3       1 GLC5        0.0000 
     73 CA        -16.7790    3.8380  -20.1240 C.3       3 GLL5        0.0000 
     74 CA        -17.0990    1.5008  -18.3277 C.3       1 GLC5        0.0000 
     75 CA        -16.4578    4.5642  -16.7885 C.3       1 GLC5        0.0000 
     76 CA        -17.1200    3.1630  -17.8470 C.3       3 GLL5        0.0000 
     77 CA         -9.5332    2.8635  -21.1478 C.3       1 GLC5        0.0000 
     78 CA        -11.2440    2.1680  -19.7960 C.3       3 GLL5        0.0000 
     79 CA         -8.1380    3.9350  -21.9910 C.3       2 GLP5        0.0000 
     80 CA        -11.9213   -1.5210  -21.1022 C.3       1 GLC5        0.0000 
     81 CA        -11.3340    0.5240  -21.6340 C.3       3 GLL5        0.0000 
     82 CA        -14.7610    1.1267  -21.7315 C.3       1 GLC5        0.0000 
     83 CA        -12.6950    0.4160  -21.4570 C.3       3 GLL5        0.0000 
     84 CA        -14.2850   -0.4352  -20.4615 C.3       1 GLC5        0.0000 
     85 CA        -13.3330    1.1710  -20.4870 C.3       3 GLL5        0.0000 
     86 CA        -15.5560   -1.6640  -19.9510 C.3       2 GLP5        0.0000 
@<TRIPOS>BOND
@<TRIPOS>SUBSTRUCTURE
     1 GLC5        1 GROUP        1 X    GLC  0     ROOT GLC X 6
     2 GLP5        3 GROUP        1 Y    GLP  0     ROOT GLP Y 13
     3 GLL5        2 GROUP        1 Z    GLL  0     ROOT GLL Z 20
@<TRIPOS>SET

