#    Name: 3vw1_CVI_1_ligand
#    Modification time : Tue Mar 25 01:43:43 2014

@<TRIPOS>MOLECULE
3vw1_CVI_1_ligand
   58    60     1     0     0
SMALL
NO_CHARGES


@<TRIPOS>ATOM
      1 C1        -13.4020    2.7860  -18.6720 C.2       1 CVI301      0.0000 
      2 C2        -12.6860    3.3930  -17.5410 C.ar      1 CVI301      0.0000 
      3 C3        -11.6340    2.7120  -16.9750 C.ar      1 CVI301      0.0000 
      4 C4        -10.9790    3.2650  -15.8490 C.ar      1 CVI301      0.0000 
      5 C5        -11.4240    4.5220  -15.3720 C.ar      1 CVI301      0.0000 
      6 C6        -12.4950    5.1980  -15.9950 C.ar      1 CVI301      0.0000 
      7 C7        -13.1250    4.6120  -17.0780 C.ar      1 CVI301      0.0000 
      8 C8        -14.8730    3.0700  -18.8150 C.2       1 CVI301      0.0000 
      9 C9        -15.3830    3.5690  -20.0210 C.2       1 CVI301      0.0000 
     10 C10       -16.7790    3.8380  -20.1240 C.2       1 CVI301      0.0000 
     11 C11       -17.6380    3.6340  -19.0460 C.2       1 CVI301      0.0000 
     12 C12       -17.1200    3.1630  -17.8470 C.2       1 CVI301      0.0000 
     13 C13       -15.7410    2.8780  -17.7030 C.2       1 CVI301      0.0000 
     14 C14       -12.6310    2.0310  -19.6670 C.ar      1 CVI301      0.0000 
     15 C15       -11.2440    2.1680  -19.7960 C.ar      1 CVI301      0.0000 
     16 C16       -10.6130    1.4160  -20.8130 C.ar      1 CVI301      0.0000 
     17 C17       -11.3340    0.5240  -21.6340 C.ar      1 CVI301      0.0000 
     18 C18       -12.6950    0.4160  -21.4570 C.ar      1 CVI301      0.0000 
     19 C19       -13.3330    1.1710  -20.4870 C.ar      1 CVI301      0.0000 
     20 C20        -9.4710    4.6310  -13.8240 C.3       1 CVI301      0.0000 
     21 C21       -11.3910    6.1790  -13.4840 C.3       1 CVI301      0.0000 
     22 C22       -19.5190    4.6360  -20.2470 C.3       1 CVI301      0.0000 
     23 C23       -19.7550    3.4460  -17.9850 C.3       1 CVI301      0.0000 
     24 C24        -9.2330   -0.1860  -22.7330 C.3       1 CVI301      0.0000 
     25 C25       -11.3620   -0.8560  -23.8100 C.3       1 CVI301      0.0000 
     26 N1        -10.7970    5.0960  -14.2540 N.pl3     1 CVI301      0.0000 
     27 N2        -18.9750    3.9030  -19.1200 N.pl3     1 CVI301      0.0000 
     28 N3        -10.6850   -0.1980  -22.6840 N.pl3     1 CVI301      0.0000 
     29 H         -11.3154    1.8166  -17.3492 H         1 CVI301      0.0000 
     30 H         -10.2203    2.7804  -15.4007 H         1 CVI301      0.0000 
     31 H         -12.7916    6.1082  -15.6408 H         1 CVI301      0.0000 
     32 H         -13.9166    5.0873  -17.5322 H         1 CVI301      0.0000 
     33 H         -14.7765    3.7400  -20.8156 H         1 CVI301      0.0000 
     34 H         -17.1475    4.1906  -21.0208 H         1 CVI301      0.0000 
     35 H         -17.7442    3.0136  -17.0365 H         1 CVI301      0.0000 
     36 H         -15.3729    2.5416  -16.8216 H         1 CVI301      0.0000 
     37 H         -10.7145    2.7723  -19.1956 H         1 CVI301      0.0000 
     38 H          -9.5949    1.5236  -20.9581 H         1 CVI301      0.0000 
     39 H         -13.2450   -0.2287  -22.0473 H         1 CVI301      0.0000 
     40 H         -14.3646    1.0865  -20.3756 H         1 CVI301      0.0000 
     41 H          -8.7829    4.7589  -14.5383 H         1 CVI301      0.0000 
     42 H          -9.1490    5.1233  -13.0153 H         1 CVI301      0.0000 
     43 H          -9.4757    3.6582  -13.5923 H         1 CVI301      0.0000 
     44 H         -10.8031    6.4617  -12.7261 H         1 CVI301      0.0000 
     45 H         -11.5534    6.9893  -14.0470 H         1 CVI301      0.0000 
     46 H         -12.2712    5.9149  -13.0895 H         1 CVI301      0.0000 
     47 H         -19.1171    5.5483  -20.3255 H         1 CVI301      0.0000 
     48 H         -19.3493    4.1654  -21.1129 H         1 CVI301      0.0000 
     49 H         -20.5085    4.7574  -20.1684 H         1 CVI301      0.0000 
     50 H         -19.6935    2.4549  -17.8670 H         1 CVI301      0.0000 
     51 H         -19.4460    3.8626  -17.1301 H         1 CVI301      0.0000 
     52 H         -20.7244    3.6696  -18.0864 H         1 CVI301      0.0000 
     53 H          -8.8302   -0.5693  -21.9019 H         1 CVI301      0.0000 
     54 H          -8.8829   -0.7209  -23.5020 H         1 CVI301      0.0000 
     55 H          -8.8724    0.7414  -22.8327 H         1 CVI301      0.0000 
     56 H         -10.7116   -1.3009  -24.4257 H         1 CVI301      0.0000 
     57 H         -12.0003   -1.5603  -23.4993 H         1 CVI301      0.0000 
     58 H         -11.8874   -0.2057  -24.3588 H         1 CVI301      0.0000 
@<TRIPOS>BOND
     1    2    1 1    
     2    8    1 2    
     3   14    1 1    
     4    3    2 ar   
     5    7    2 ar   
     6    4    3 ar   
     7   29    3 1    
     8    5    4 ar   
     9   30    4 1    
    10    6    5 ar   
    11   26    5 1    
    12    7    6 ar   
    13   31    6 1    
    14   32    7 1    
    15    9    8 1    
    16   13    8 1    
    17   10    9 2    
    18   33    9 1    
    19   11   10 1    
    20   34   10 1    
    21   12   11 1    
    22   27   11 2    
    23   13   12 2    
    24   35   12 1    
    25   36   13 1    
    26   15   14 ar   
    27   19   14 ar   
    28   16   15 ar   
    29   37   15 1    
    30   17   16 ar   
    31   38   16 1    
    32   18   17 ar   
    33   28   17 1    
    34   19   18 ar   
    35   39   18 1    
    36   40   19 1    
    37   26   20 1    
    38   41   20 1    
    39   42   20 1    
    40   43   20 1    
    41   26   21 1    
    42   44   21 1    
    43   45   21 1    
    44   46   21 1    
    45   27   22 1    
    46   47   22 1    
    47   48   22 1    
    48   49   22 1    
    49   27   23 1    
    50   50   23 1    
    51   51   23 1    
    52   52   23 1    
    53   28   24 1    
    54   53   24 1    
    55   54   24 1    
    56   55   24 1    
    57   28   25 1    
    58   56   25 1    
    59   57   25 1    
    60   58   25 1    
@<TRIPOS>SUBSTRUCTURE
     1 CVI301      1 GROUP   
@<TRIPOS>SET

