#    Name: 4jnm_1LJ_1_INTS_M
#    Modification time : Tue Mar 25 06:09:14 2014

@<TRIPOS>MOLECULE
4jnm_1LJ_1_INTS_M
   53     0     6     0     0
SMALL
NO_CHARGES


@<TRIPOS>ATOM
      1 CA         13.6805    9.8425    3.6150 C.3       2 GLC5        0.0000 
      2 CA         14.5880   11.5080    3.1530 C.3       6 GLL5        0.0000 
      3 CA         12.7730    8.1770    4.0770 C.3       4 GLP5        0.0000 
      4 CA         15.8795   12.0245    1.8710 C.3       2 GLC5        0.0000 
      5 CA         17.1710   12.5410    0.5890 C.3       4 GLP5        0.0000 
      6 CA         12.7455   12.1280    2.6450 C.3       2 GLC5        0.0000 
      7 CA         10.9030   12.7480    2.1370 C.3       4 GLP5        0.0000 
      8 CA         16.0430   12.5090    3.7000 C.3       2 GLC5        0.0000 
      9 CA         17.4980   13.5100    4.2470 C.3       4 GLP5        0.0000 
     10 CA         17.6865   11.3125    4.2480 C.3       2 GLC5        0.0000 
     11 CA         15.8900   10.4680    5.0290 C.3       6 GLL5        0.0000 
     12 CA         19.4830   12.1570    3.4670 C.3       4 GLP5        0.0000 
     13 CA         13.9065    8.8850    7.7525 C.3       2 GLC5        0.0000 
     14 CA         14.9540   10.4250    7.2270 C.3       6 GLL5        0.0000 
     15 CA         12.8590    7.3450    8.2780 C.3       4 GLP5        0.0000 
     16 O          16.5920    9.0125    1.3695 O.2       1 ALC1        0.0000 
     17 O          15.4550    8.8020    0.8290 O.2       5 ALL1        0.0000 
     18 O          17.7290    9.2230    1.9100 O.2       3 ALP1        0.0000 
     19 O          16.5310    9.8700    2.1430 O.2       1 ALC1        0.0000 
     20 O          15.3330   10.5170    2.3760 O.2       5 ALL1        0.0000 
     21 CA         17.2730    8.6225    6.4180 C.3       2 GLC5        0.0000 
     22 CA         16.0010   10.1160    6.3620 C.3       6 GLL5        0.0000 
     23 CA         18.5450    7.1290    6.4740 C.3       4 GLP5        0.0000 
     24 CA         14.2580    6.9132   -5.2455 C.3       2 GLC5        0.0000 
     25 CA         14.4820    4.8960   -4.4990 C.3       6 GLL5        0.0000 
     26 CA         14.3670    8.7740   -5.4070 C.3       4 GLP5        0.0000 
     27 CA         14.9370    6.4895   -8.3505 C.3       2 GLC5        0.0000 
     28 CA         14.5250    5.3850   -6.8420 C.3       6 GLL5        0.0000 
     29 CA         14.6610    7.6630   -9.8580 C.3       4 GLP5        0.0000 
     30 CA         14.7900    7.0450   -6.1250 C.3       2 GLC5        0.0000 
     31 CA         12.4527    6.6837   -0.5085 C.3       2 GLC5        0.0000 
     32 CA         14.1080    5.9200   -1.8810 C.3       6 GLL5        0.0000 
     33 CA         11.1070    6.8300    0.8490 C.3       4 GLP5        0.0000 
     34 CA         16.1745    8.1760   -1.3323 C.3       2 GLC5        0.0000 
     35 CA         13.9180    8.1270   -0.9660 C.3       6 GLL5        0.0000 
     36 CA         17.9040    8.3570   -2.1330 C.3       4 GLP5        0.0000 
     37 CA         14.4570    9.8460   -1.0737 C.3       2 GLC5        0.0000 
     38 CA         14.9720    7.8630   -0.0970 C.3       6 GLL5        0.0000 
     39 CA         14.4690   11.6970   -1.6160 C.3       4 GLP5        0.0000 
     40 CA         12.7760    7.4125    0.1588 C.3       2 GLC5        0.0000 
     41 CA         15.2280    5.1450    1.1603 C.3       2 GLC5        0.0000 
     42 CA         15.5880    6.6180   -0.1360 C.3       6 GLL5        0.0000 
     43 CA         15.0830    4.1550    2.9000 C.3       4 GLP5        0.0000 
     44 CA         16.6385    7.2460   -1.3562 C.3       2 GLC5        0.0000 
     45 CA         17.2563    6.6020   -6.5202 C.3       2 GLC5        0.0000 
     46 CA         16.5680    4.9330   -5.6750 C.3       6 GLL5        0.0000 
     47 CA         18.2780    8.1140   -6.7810 C.3       4 GLP5        0.0000 
     48 CA         17.6885    5.7263   -4.2508 C.3       2 GLC5        0.0000 
     49 CA         19.1640    6.6070   -3.4130 C.3       4 GLP5        0.0000 
     50 CA         15.2900    6.8097   -5.2477 C.3       2 GLC5        0.0000 
     51 CA         12.4527    8.5720   -2.6987 C.3       2 GLC5        0.0000 
     52 CA         13.4890    7.1550   -1.8510 C.3       6 GLL5        0.0000 
     53 CA         11.2020    9.5030   -3.9890 C.3       4 GLP5        0.0000 
@<TRIPOS>BOND
@<TRIPOS>SUBSTRUCTURE
     1 ALC1       16 GROUP        1 X    ALC  0     ROOT ALC X 1
     2 GLC5        1 GROUP        1 X    GLC  0     **** GLC X 6
     3 ALP1       18 GROUP        1 Y    ALP  0     ROOT ALP Y 8
     4 GLP5        3 GROUP        1 Y    GLP  0     **** GLP Y 13
     5 ALL1       17 GROUP        1 Z    ALL  0     ROOT ALL Z 15
     6 GLL5        2 GROUP        1 Z    GLL  0     **** GLL Z 20
@<TRIPOS>SET

