#    Name: 4jnm_1LJ_1_ligand
#    Modification time : Tue Mar 25 06:09:14 2014

@<TRIPOS>MOLECULE
4jnm_1LJ_1_ligand
   45    47     1     0     0
SMALL
NO_CHARGES


@<TRIPOS>ATOM
      1 C4         14.4820    4.8960   -4.4990 C.ar      1 1LJ601      0.0000 
      2 C5         13.8160    5.2090   -5.6690 C.ar      1 1LJ601      0.0000 
      3 C6         14.5250    5.3850   -6.8420 C.ar      1 1LJ601      0.0000 
      4 C10        14.1080    5.9200   -1.8810 C.ar      1 1LJ601      0.0000 
      5 C13        14.9720    7.8630   -0.0970 C.ar      1 1LJ601      0.0000 
      6 C15        15.1580    5.6520   -1.0230 C.ar      1 1LJ601      0.0000 
      7 C17        14.7060    9.7080    1.5000 C.2       1 1LJ601      0.0000 
      8 C20        14.5880   11.5080    3.1530 C.3       1 1LJ601      0.0000 
      9 C21        14.7360   11.1190    4.6010 C.ar      1 1LJ601      0.0000 
     10 C22        15.8900   10.4680    5.0290 C.ar      1 1LJ601      0.0000 
     11 C24        14.9540   10.4250    7.2270 C.ar      1 1LJ601      0.0000 
     12 C26        13.7370   11.3900    5.5130 C.ar      1 1LJ601      0.0000 
     13 C1         15.9010    5.2470   -6.8440 C.ar      1 1LJ601      0.0000 
     14 C2         16.5680    4.9330   -5.6750 C.ar      1 1LJ601      0.0000 
     15 C3         15.8580    4.7580   -4.5020 C.ar      1 1LJ601      0.0000 
     16 S7         13.5710    4.6750   -3.0070 S.o2      1 1LJ601      0.0000 
     17 O8         12.2170    4.9590   -3.3290 O.2       1 1LJ601      0.0000 
     18 O9         13.9940    3.4430   -2.4410 O.2       1 1LJ601      0.0000 
     19 C11        13.4890    7.1550   -1.8510 C.ar      1 1LJ601      0.0000 
     20 C12        13.9180    8.1270   -0.9660 C.ar      1 1LJ601      0.0000 
     21 C14        15.5880    6.6180   -0.1360 C.ar      1 1LJ601      0.0000 
     22 N16        15.4550    8.8020    0.8290 N.am      1 1LJ601      0.0000 
     23 O18        13.5020    9.8190    1.3420 O.2       1 1LJ601      0.0000 
     24 N19        15.3330   10.5170    2.3760 N.am      1 1LJ601      0.0000 
     25 C23        16.0010   10.1160    6.3620 C.ar      1 1LJ601      0.0000 
     26 N25        13.8710   11.0440    6.7800 N.ar      1 1LJ601      0.0000 
     27 N27        15.0460   10.0820    8.5710 N.pl3     1 1LJ601      0.0000 
     28 H          12.7899    5.3112   -5.6665 H         1 1LJ601      0.0000 
     29 H          14.0293    5.6189   -7.7147 H         1 1LJ601      0.0000 
     30 H          15.6195    4.7300   -1.0463 H         1 1LJ601      0.0000 
     31 H          14.9969   12.4983    3.0085 H         1 1LJ601      0.0000 
     32 H          13.5398   11.4971    2.8884 H         1 1LJ601      0.0000 
     33 H          16.6382   10.2562    4.3676 H         1 1LJ601      0.0000 
     34 H          12.8752   11.8753    5.1712 H         1 1LJ601      0.0000 
     35 H          16.4302    5.3787   -7.7198 H         1 1LJ601      0.0000 
     36 H          17.5932    4.8295   -5.6777 H         1 1LJ601      0.0000 
     37 H          16.3542    4.5245   -3.6289 H         1 1LJ601      0.0000 
     38 H          12.7036    7.3531   -2.4913 H         1 1LJ601      0.0000 
     39 H          13.4591    9.0490   -0.9471 H         1 1LJ601      0.0000 
     40 H          16.3733    6.4181    0.5054 H         1 1LJ601      0.0000 
     41 H          16.5129    8.7837    1.0064 H         1 1LJ601      0.0000 
     42 H          16.3513   10.4766    2.5376 H         1 1LJ601      0.0000 
     43 H          16.8333    9.6383    6.7099 H         1 1LJ601      0.0000 
     44 H          14.2732   10.3484    9.1470 H         1 1LJ601      0.0000 
     45 H          15.8771    9.5984    8.8458 H         1 1LJ601      0.0000 
@<TRIPOS>BOND
     1    2    1 ar   
     2   15    1 ar   
     3   16    1 1    
     4    3    2 ar   
     5   28    2 1    
     6   13    3 ar   
     7   29    3 1    
     8    6    4 ar   
     9   16    4 1    
    10   19    4 ar   
    11   20    5 ar   
    12   21    5 ar   
    13   22    5 1    
    14   21    6 ar   
    15   30    6 1    
    16   22    7 am   
    17   23    7 2    
    18   24    7 am   
    19    9    8 1    
    20   24    8 1    
    21   31    8 1    
    22   32    8 1    
    23   10    9 ar   
    24   12    9 ar   
    25   25   10 ar   
    26   33   10 1    
    27   25   11 ar   
    28   26   11 ar   
    29   27   11 1    
    30   26   12 ar   
    31   34   12 1    
    32   14   13 ar   
    33   35   13 1    
    34   15   14 ar   
    35   36   14 1    
    36   37   15 1    
    37   17   16 2    
    38   18   16 2    
    39   20   19 ar   
    40   38   19 1    
    41   39   20 1    
    42   40   21 1    
    43   41   22 1    
    44   42   24 1    
    45   43   25 1    
    46   44   27 1    
    47   45   27 1    
@<TRIPOS>SUBSTRUCTURE
     1 1LJ601      1 GROUP   
@<TRIPOS>SET

