#    Name: 2xch_CKG_1_INTS_M
#    Modification time : Tue Mar 25 05:51:14 2014

@<TRIPOS>MOLECULE
2xch_CKG_1_INTS_M
   64     0     9     0     0
SMALL
NO_CHARGES


@<TRIPOS>ATOM
      1 N         -46.4970   17.7915   11.1215 N.am      1 SEC2        0.0000 
      2 N         -45.1620   17.3950   10.8320 N.am      7 SEL2        0.0000 
      3 N         -47.8320   18.1880   11.4110 N.am      4 SEP2        0.0000 
      4 CA        -43.3605   16.8175   13.6155 C.3       3 GLC5        0.0000 
      5 CA        -42.4930   16.4490   11.7980 C.3       9 GLL5        0.0000 
      6 CA        -44.2280   17.1860   15.4330 C.3       6 GLP5        0.0000 
      7 CA        -39.5360   17.3670   15.5440 C.3       3 GLC5        0.0000 
      8 CA        -40.1900   18.3530   13.8980 C.3       9 GLL5        0.0000 
      9 CA        -38.8820   16.3810   17.1900 C.3       6 GLP5        0.0000 
     10 CA        -41.6880   17.5380   15.1835 C.3       3 GLC5        0.0000 
     11 CA        -43.1860   16.7230   16.4690 C.3       6 GLP5        0.0000 
     12 CA        -36.7315   20.5080   10.3640 C.3       3 GLC5        0.0000 
     13 CA        -38.1290   19.9240   11.0470 C.3       9 GLL5        0.0000 
     14 CA        -35.3340   21.0920    9.6810 C.3       6 GLP5        0.0000 
     15 OD1       -37.6075   22.0610   10.9655 O.co2     2 ASC3        0.0000 
     16 OD1       -38.6790   21.2690   11.1590 O.co2     8 ASL3        0.0000 
     17 OD1       -36.5360   22.8530   10.7720 O.co2     5 ASP3        0.0000 
     18 CA        -38.5880   14.1690   14.8180 C.3       3 GLC5        0.0000 
     19 CA        -38.2640   14.4670   12.8250 C.3       9 GLL5        0.0000 
     20 CA        -38.9120   13.8710   16.8110 C.3       6 GLP5        0.0000 
     21 CA        -37.3985   13.3000   11.1880 C.3       3 GLC5        0.0000 
     22 CA        -36.5330   12.1330    9.5510 C.3       6 GLP5        0.0000 
     23 CA        -38.4735   14.9435   11.1360 C.3       3 GLC5        0.0000 
     24 CA        -38.6830   15.4200    9.4470 C.3       6 GLP5        0.0000 
     25 N         -38.0190   12.0440   11.9565 N.am      1 SEC2        0.0000 
     26 N         -38.7170   13.2550   12.4260 N.am      7 SEL2        0.0000 
     27 N         -37.3210   10.8330   11.4870 N.am      4 SEP2        0.0000 
     28 CA        -39.3830   11.3060   12.4980 C.3       3 GLC5        0.0000 
     29 CA        -39.9980   13.0930   12.0610 C.3       9 GLL5        0.0000 
     30 CA        -38.7680    9.5190   12.9350 C.3       6 GLP5        0.0000 
     31 CA        -38.2655   12.6130   10.8060 C.3       3 GLC5        0.0000 
     32 CA        -41.9485   12.9105   13.2895 C.3       3 GLC5        0.0000 
     33 CA        -42.3380   13.9620   11.7070 C.3       9 GLL5        0.0000 
     34 CA        -41.5590   11.8590   14.8720 C.3       6 GLP5        0.0000 
     35 CA        -41.8685   14.4925    9.6295 C.3       3 GLC5        0.0000 
     36 CA        -41.3990   15.0230    7.5520 C.3       6 GLP5        0.0000 
     37 CA        -42.5675   15.9953    9.4473 C.3       3 GLC5        0.0000 
     38 CA        -42.4070   16.1610    7.4660 C.3       6 GLP5        0.0000 
     39 CA        -43.2193   13.0810    9.9930 C.3       3 GLC5        0.0000 
     40 CA        -42.9630   15.2100   11.0590 C.3       9 GLL5        0.0000 
     41 CA        -43.7880   11.5760    8.6030 C.3       6 GLP5        0.0000 
     42 CA        -44.2687   13.8135   11.7100 C.3       3 GLC5        0.0000 
     43 CA        -45.8870   13.0410   12.0370 C.3       6 GLP5        0.0000 
     44 CA        -38.1050   18.4755    9.9793 C.3       3 GLC5        0.0000 
     45 CA        -38.9710   18.8840   11.7640 C.3       9 GLL5        0.0000 
     46 CA        -37.6600   17.5470    8.5530 C.3       6 GLP5        0.0000 
     47 CA        -40.2504   20.1796   15.2479 C.3       3 GLC5        0.0000 
     48 CA        -39.9840   20.7270   13.1480 C.3       9 GLL5        0.0000 
     49 CA        -40.6400   20.5690   17.1520 C.3       6 GLP5        0.0000 
     50 CA        -41.7750   15.6050   14.3320 C.3       3 GLC5        0.0000 
     51 CA        -41.2980   16.4620   12.5140 C.3       9 GLL5        0.0000 
     52 CA        -42.6900   15.2860   16.1380 C.3       6 GLP5        0.0000 
     53 CA        -39.7715   15.6720   10.9865 C.3       3 GLC5        0.0000 
     54 CA        -40.9421   12.8950   13.5319 C.3       3 GLC5        0.0000 
     55 CA        -39.5618   14.5212   10.7655 C.3       3 GLC5        0.0000 
     56 CA        -37.5772   16.8455   15.7043 C.3       3 GLC5        0.0000 
     57 CA        -36.7030   16.8210   13.9440 C.3       9 GLL5        0.0000 
     58 CA        -34.8663   16.9445   12.6433 C.3       3 GLC5        0.0000 
     59 CA        -33.4600   16.5790   11.0680 C.3       6 GLP5        0.0000 
     60 CA        -35.6405   15.3537   16.0490 C.3       3 GLC5        0.0000 
     61 CA        -34.0290   16.2070   14.5860 C.3       9 GLL5        0.0000 
     62 CA        -36.8180   14.9850   17.7780 C.3       6 GLP5        0.0000 
     63 CA        -34.0213   16.3122   12.7221 C.3       3 GLC5        0.0000 
     64 CA        -34.8970   15.2380   14.0540 C.3       9 GLL5        0.0000 
@<TRIPOS>BOND
@<TRIPOS>SUBSTRUCTURE
     1 SEC2        1 GROUP        1 X    SEC  0     ROOT SEC X 2
     2 ASC3       15 GROUP        1 X    ASC  0     **** ASC X 3
     3 GLC5        4 GROUP        1 X    GLC  0     **** GLC X 6
     4 SEP2        3 GROUP        1 Y    SEP  0     ROOT SEP Y 9
     5 ASP3       17 GROUP        1 Y    ASP  0     **** ASP Y 10
     6 GLP5        6 GROUP        1 Y    GLP  0     **** GLP Y 13
     7 SEL2        2 GROUP        1 Z    SEL  0     ROOT SEL Z 16
     8 ASL3       16 GROUP        1 Z    ASL  0     **** ASL Z 17
     9 GLL5        5 GROUP        1 Z    GLL  0     **** GLL Z 20
@<TRIPOS>SET

