#    Name: 2xch_CKG_1_ligand
#    Modification time : Tue Mar 25 05:51:14 2014

@<TRIPOS>MOLECULE
2xch_CKG_1_ligand
   54    58     1     0     0
SMALL
NO_CHARGES


@<TRIPOS>ATOM
      1 O9        -45.1620   17.3950   10.8320 O.2       1 CKG1360     0.0000 
      2 C8        -44.3920   18.1550   11.3860 C.2       1 CKG1360     0.0000 
      3 N24       -44.6700   19.4620   11.5330 N.am      1 CKG1360     0.0000 
      4 C5        -43.0880   17.7000   11.9450 C.2       1 CKG1360     0.0000 
      5 C4        -42.4930   16.4490   11.7980 C.2       1 CKG1360     0.0000 
      6 C2        -42.9630   15.2100   11.0590 C.3       1 CKG1360     0.0000 
      7 N6        -42.2970   18.4730   12.7020 N.2       1 CKG1360     0.0000 
      8 N7        -41.1770   17.7010   13.0310 N.pl3     1 CKG1360     0.0000 
      9 C17       -40.1900   18.3530   13.8980 C.3       1 CKG1360     0.0000 
     10 C25       -39.2850   19.3540   13.1810 C.3       1 CKG1360     0.0000 
     11 C30       -38.9710   18.8840   11.7640 C.3       1 CKG1360     0.0000 
     12 C29       -38.1290   19.9240   11.0470 C.3       1 CKG1360     0.0000 
     13 N28       -38.6790   21.2690   11.1590 N.4       1 CKG1360     0.0000 
     14 C27       -39.0910   21.7520   12.4720 C.3       1 CKG1360     0.0000 
     15 C26       -39.9840   20.7270   13.1480 C.3       1 CKG1360     0.0000 
     16 C3        -41.2980   16.4620   12.5140 C.2       1 CKG1360     0.0000 
     17 C11       -40.4220   15.3860   12.5380 C.ar      1 CKG1360     0.0000 
     18 N18       -39.1250   15.5270   12.8810 N.ar      1 CKG1360     0.0000 
     19 C12       -38.2640   14.4670   12.8250 C.ar      1 CKG1360     0.0000 
     20 N13       -38.7170   13.2550   12.4260 N.ar      1 CKG1360     0.0000 
     21 C14       -39.9980   13.0930   12.0610 C.ar      1 CKG1360     0.0000 
     22 C10       -40.8830   14.1520   12.1070 C.ar      1 CKG1360     0.0000 
     23 C1        -42.3380   13.9620   11.7070 C.3       1 CKG1360     0.0000 
     24 N15       -36.9650   14.5230   13.1860 N.2       1 CKG1360     0.0000 
     25 C16       -36.2230   15.5310   13.7280 C.2       1 CKG1360     0.0000 
     26 C23       -36.7030   16.8210   13.9440 C.2       1 CKG1360     0.0000 
     27 C22       -35.8420   17.7990   14.4930 C.2       1 CKG1360     0.0000 
     28 C21       -34.5070   17.4990   14.8110 C.3       1 CKG1360     0.0000 
     29 C20       -34.0290   16.2070   14.5860 C.2       1 CKG1360     0.0000 
     30 C19       -34.8970   15.2380   14.0540 C.2       1 CKG1360     0.0000 
     31 H         -45.5473   19.7694   11.1645 H         1 CKG1360     0.0000 
     32 H         -43.9747   20.0102   11.9978 H         1 CKG1360     0.0000 
     33 H         -42.6536   15.2608   10.0229 H         1 CKG1360     0.0000 
     34 H         -44.0413   15.1343   11.1176 H         1 CKG1360     0.0000 
     35 H         -39.5407   17.5927   14.3824 H         1 CKG1360     0.0000 
     36 H         -40.6997   18.8879   14.7278 H         1 CKG1360     0.0000 
     37 H         -38.3691   19.4538   13.7347 H         1 CKG1360     0.0000 
     38 H         -39.9008   18.7329   11.2225 H         1 CKG1360     0.0000 
     39 H         -38.4266   17.9449   11.8106 H         1 CKG1360     0.0000 
     40 H         -38.0444   19.6262    9.9851 H         1 CKG1360     0.0000 
     41 H         -37.1058   19.8868   11.4654 H         1 CKG1360     0.0000 
     42 H         -39.6462   22.6914   12.3851 H         1 CKG1360     0.0000 
     43 H         -38.2212   21.9297   13.1125 H         1 CKG1360     0.0000 
     44 H         -40.1945   21.0381   14.1664 H         1 CKG1360     0.0000 
     45 H         -40.9159   20.6332   12.5994 H         1 CKG1360     0.0000 
     46 H         -40.3457   12.1648   11.7368 H         1 CKG1360     0.0000 
     47 H         -42.4142   13.1237   10.9994 H         1 CKG1360     0.0000 
     48 H         -42.9279   13.6955   12.5960 H         1 CKG1360     0.0000 
     49 H         -37.6649   17.0669   13.7114 H         1 CKG1360     0.0000 
     50 H         -36.2046   18.7493   14.6617 H         1 CKG1360     0.0000 
     51 H         -34.3146   17.7861   15.9111 H         1 CKG1360     0.0000 
     52 H         -33.8197   18.2540   14.2752 H         1 CKG1360     0.0000 
     53 H         -33.0631   15.9649   14.8034 H         1 CKG1360     0.0000 
     54 H         -34.5375   14.2753   13.9000 H         1 CKG1360     0.0000 
@<TRIPOS>BOND
     1    2    1 2    
     2    3    2 am   
     3    4    2 1    
     4   31    3 1    
     5   32    3 1    
     6    5    4 1    
     7    7    4 2    
     8    6    5 1    
     9   16    5 2    
    10   23    6 1    
    11   33    6 1    
    12   34    6 1    
    13    8    7 1    
    14    9    8 1    
    15   16    8 1    
    16   10    9 1    
    17   35    9 1    
    18   36    9 1    
    19   11   10 1    
    20   15   10 1    
    21   37   10 1    
    22   12   11 1    
    23   38   11 1    
    24   39   11 1    
    25   13   12 1    
    26   40   12 1    
    27   41   12 1    
    28   14   13 1    
    29   15   14 1    
    30   42   14 1    
    31   43   14 1    
    32   44   15 1    
    33   45   15 1    
    34   17   16 1    
    35   18   17 ar   
    36   22   17 ar   
    37   19   18 ar   
    38   20   19 ar   
    39   24   19 1    
    40   21   20 ar   
    41   22   21 ar   
    42   46   21 1    
    43   23   22 1    
    44   47   23 1    
    45   48   23 1    
    46   25   24 2    
    47   26   25 1    
    48   30   25 1    
    49   27   26 2    
    50   49   26 1    
    51   28   27 1    
    52   50   27 1    
    53   29   28 1    
    54   51   28 1    
    55   52   28 1    
    56   30   29 2    
    57   53   29 1    
    58   54   30 1    
@<TRIPOS>SUBSTRUCTURE
     1 CKG1360     1 GROUP   
@<TRIPOS>SET

