#    Name: 3psy_RB9_1_INTS_M
#    Modification time : Tue Mar 25 08:26:44 2014

@<TRIPOS>MOLECULE
3psy_RB9_1_INTS_M
   74     0    12     0     0
SMALL
NO_CHARGES


@<TRIPOS>ATOM
      1 O          -0.3255    5.8525    6.7695 O.2       1 ALC1        0.0000 
      2 O          -1.0850    6.5270    7.7290 O.2       9 ALL1        0.0000 
      3 O           0.4340    5.1780    5.8100 O.2       5 ALP1        0.0000 
      4 N          -2.5370    8.1025   10.7160 N.am      2 SEC2        0.0000 
      5 N          -1.8340    7.6290    9.6300 N.am     10 SEL2        0.0000 
      6 N          -3.2400    8.5760   11.8020 N.am      6 SEP2        0.0000 
      7 CA          4.0240    8.7795    7.6040 C.3       4 GLC5        0.0000 
      8 CA          2.6170    9.0980    8.7720 C.3      12 GLL5        0.0000 
      9 CA          5.4310    8.4610    6.4360 C.3       8 GLP5        0.0000 
     10 O           2.4185    5.9880    7.6740 O.2       1 ALC1        0.0000 
     11 O           1.8630    6.5030    8.7680 O.2       9 ALL1        0.0000 
     12 O           2.9740    5.4730    6.5800 O.2       5 ALP1        0.0000 
     13 CA         -0.9905    5.1120    6.0890 C.3       4 GLC5        0.0000 
     14 CA         -2.3110    5.7190    7.6360 C.3      12 GLL5        0.0000 
     15 CA          0.3300    4.5050    4.5420 C.3       8 GLP5        0.0000 
     16 OD1         2.4660    2.6195   10.0545 O.co2     3 ASC3        0.0000 
     17 OD1         1.0920    3.4350   10.6040 O.co2    11 ASL3        0.0000 
     18 OD1         3.8400    1.8040    9.5050 O.co2     7 ASP3        0.0000 
     19 OD1         1.8955    2.5090   11.0040 O.co2     3 ASC3        0.0000 
     20 OD1         2.6990    1.5830   11.4040 O.co2     7 ASP3        0.0000 
     21 O          -5.9370    3.3720   10.7145 O.2       1 ALC1        0.0000 
     22 O          -4.7690    2.5020   10.7710 O.2       9 ALL1        0.0000 
     23 O          -7.1050    4.2420   10.6580 O.2       5 ALP1        0.0000 
     24 CA          2.4080   11.5880    7.3720 C.3       4 GLC5        0.0000 
     25 CA          1.3870   10.3040    8.7350 C.3      12 GLL5        0.0000 
     26 CA          3.4290   12.8720    6.0090 C.3       8 GLP5        0.0000 
     27 CA          3.7825    4.3470    9.4825 C.3       4 GLC5        0.0000 
     28 CA          1.8150    4.1580    9.5280 C.3      12 GLL5        0.0000 
     29 CA          5.7500    4.5360    9.4370 C.3       8 GLP5        0.0000 
     30 CA          1.8920    2.4580    8.2790 C.3       4 GLC5        0.0000 
     31 CA          1.9690    0.7580    7.0300 C.3       8 GLP5        0.0000 
     32 CA         -0.3110    1.0350   12.3010 C.3       4 GLC5        0.0000 
     33 CA         -1.0940    2.3900   11.1770 C.3      12 GLL5        0.0000 
     34 CA          0.4720   -0.3200   13.4250 C.3       8 GLP5        0.0000 
     35 CA         -1.2770   11.7935    6.8990 C.3       4 GLC5        0.0000 
     36 CA         -2.1600   10.3610    7.7980 C.3      12 GLL5        0.0000 
     37 CA         -0.3940   13.2260    6.0000 C.3       8 GLP5        0.0000 
     38 CA         -1.9710    6.2150    4.7535 C.3       4 GLC5        0.0000 
     39 CA         -3.2520    7.1980    5.7890 C.3      12 GLL5        0.0000 
     40 CA         -0.6900    5.2320    3.7180 C.3       8 GLP5        0.0000 
     41 CA         -4.2375    8.2325    9.4190 C.3       4 GLC5        0.0000 
     42 CA         -4.5960    6.8190    7.7610 C.3      12 GLL5        0.0000 
     43 CA         -3.8790    9.6460   11.0770 C.3       8 GLP5        0.0000 
     44 CA         -1.6715   -1.4300   11.8430 C.3       4 GLC5        0.0000 
     45 CA         -2.6610   -0.3140   10.1920 C.3      12 GLL5        0.0000 
     46 CA         -0.6820   -2.5460   13.4940 C.3       8 GLP5        0.0000 
     47 CA         -2.7510   10.0645    9.6585 C.3       4 GLC5        0.0000 
     48 CA         -1.0860   10.6050    8.6820 C.3      12 GLL5        0.0000 
     49 CA         -0.3845    9.9010    6.6115 C.3       4 GLC5        0.0000 
     50 CA          0.8540    9.3190    4.9830 C.3       8 GLP5        0.0000 
     51 CA          0.0277   11.7350    7.3581 C.3       4 GLC5        0.0000 
     52 CA          0.1100    9.7630    8.7130 C.3      12 GLL5        0.0000 
     53 CA         -0.5470    3.7967   12.2275 C.3       4 GLC5        0.0000 
     54 CA         -0.2820    3.1130   10.1570 C.3      12 GLL5        0.0000 
     55 CA         -0.4060    4.8420   13.7880 C.3       8 GLP5        0.0000 
     56 CA         -2.8133    4.3153   12.0657 C.3       4 GLC5        0.0000 
     57 CA         -2.5540    2.1850   10.9330 C.3      12 GLL5        0.0000 
     58 CA         -2.5620    5.9850   13.1330 C.3       8 GLP5        0.0000 
     59 CA         -3.6138   10.6843    9.5927 C.3       4 GLC5        0.0000 
     60 CA         -3.3250   11.1590    7.6960 C.3      12 GLL5        0.0000 
     61 CA         -2.9558   12.4512    6.4078 C.3       4 GLC5        0.0000 
     62 CA         -3.3720   12.2860    8.5210 C.3      12 GLL5        0.0000 
     63 CA         -2.5630   13.1800    4.7070 C.3       8 GLP5        0.0000 
     64 CA         -2.8165   10.9180   10.2485 C.3       4 GLC5        0.0000 
     65 CA         -2.3210   12.5940    9.3820 C.3      12 GLL5        0.0000 
     66 CA         -1.0740   12.7080    7.7100 C.3       4 GLC5        0.0000 
     67 CA         -6.2720    6.8758    8.8248 C.3       4 GLC5        0.0000 
     68 CA         -5.5720    7.6100    7.1920 C.3      12 GLL5        0.0000 
     69 CA         -7.4600    6.5370   10.1730 C.3       8 GLP5        0.0000 
     70 CA         -4.2248   -3.1580    9.6388 C.3       4 GLC5        0.0000 
     71 CA         -4.9370   -1.0780    9.7120 C.3      12 GLL5        0.0000 
     72 CA         -4.2030   -5.1220    9.5210 C.3       8 GLP5        0.0000 
     73 CA          1.1275    9.1952    6.8634 C.3       4 GLC5        0.0000 
     74 CA          0.1720    8.3240    8.7240 C.3      12 GLL5        0.0000 
@<TRIPOS>BOND
@<TRIPOS>SUBSTRUCTURE
     1 ALC1        1 GROUP        1 X    ALC  0     ROOT ALC X 1
     2 SEC2        4 GROUP        1 X    SEC  0     **** SEC X 2
     3 ASC3       16 GROUP        1 X    ASC  0     **** ASC X 3
     4 GLC5        7 GROUP        1 X    GLC  0     **** GLC X 6
     5 ALP1        3 GROUP        1 Y    ALP  0     ROOT ALP Y 8
     6 SEP2        6 GROUP        1 Y    SEP  0     **** SEP Y 9
     7 ASP3       18 GROUP        1 Y    ASP  0     **** ASP Y 10
     8 GLP5        9 GROUP        1 Y    GLP  0     **** GLP Y 13
     9 ALL1        2 GROUP        1 Z    ALL  0     ROOT ALL Z 15
    10 SEL2        5 GROUP        1 Z    SEL  0     **** SEL Z 16
    11 ASL3       17 GROUP        1 Z    ASL  0     **** ASL Z 17
    12 GLL5        8 GROUP        1 Z    GLL  0     **** GLL Z 20
@<TRIPOS>SET

