#    Name: 3psy_RB9_1_ligand
#    Modification time : Tue Mar 25 08:26:44 2014

@<TRIPOS>MOLECULE
3psy_RB9_1_ligand
   64    68     1     0     0
SMALL
NO_CHARGES


@<TRIPOS>ATOM
      1 C1          0.1720    8.3240    8.7240 C.2       1 RB91001     0.0000 
      2 N1         -1.0850    6.5270    7.7290 N.am      1 RB91001     0.0000 
      3 O1         -1.8340    7.6290    9.6300 O.2       1 RB91001     0.0000 
      4 S1          2.6170    9.0980    8.7720 S.3       1 RB91001     0.0000 
      5 C2         -1.0110    7.4540    8.7110 C.2       1 RB91001     0.0000 
      6 N2          1.8630    6.5030    8.7680 N.am      1 RB91001     0.0000 
      7 O2          0.8010    5.9970   10.7270 O.2       1 RB91001     0.0000 
      8 C3         -2.3110    5.7190    7.6360 C.3       1 RB91001     0.0000 
      9 N3          1.0920    3.4350   10.6040 N.4       1 RB91001     0.0000 
     10 C4         -3.4080    6.5950    7.0430 C.ar      1 RB91001     0.0000 
     11 N4         -4.7690    2.5020   10.7710 N.pl3     1 RB91001     0.0000 
     12 C5          0.1100    9.7630    8.7130 C.2       1 RB91001     0.0000 
     13 C6         -1.0860   10.6050    8.6820 C.ar      1 RB91001     0.0000 
     14 C7          1.3870   10.3040    8.7350 C.2       1 RB91001     0.0000 
     15 C8          1.4590    7.8400    8.7500 C.2       1 RB91001     0.0000 
     16 C9          1.4590    5.6080    9.7410 C.2       1 RB91001     0.0000 
     17 C10         1.8150    4.1580    9.5280 C.3       1 RB91001     0.0000 
     18 C11        -0.2820    3.1130   10.1570 C.3       1 RB91001     0.0000 
     19 C12        -1.0940    2.3900   11.1770 C.3       1 RB91001     0.0000 
     20 C13        -2.5540    2.1850   10.9330 C.2       1 RB91001     0.0000 
     21 C14        -2.1600   10.3610    7.7980 C.ar      1 RB91001     0.0000 
     22 C15        -3.3250   11.1590    7.6960 C.ar      1 RB91001     0.0000 
     23 C16        -3.3720   12.2860    8.5210 C.ar      1 RB91001     0.0000 
     24 C17        -2.3210   12.5940    9.3820 C.ar      1 RB91001     0.0000 
     25 C18        -1.1870   11.7860    9.4580 C.ar      1 RB91001     0.0000 
     26 C19        -3.2520    7.1980    5.7890 C.ar      1 RB91001     0.0000 
     27 C20        -4.2510    7.9790    5.2080 C.ar      1 RB91001     0.0000 
     28 C21        -5.4200    8.1850    5.9200 C.ar      1 RB91001     0.0000 
     29 C22        -5.5720    7.6100    7.1920 C.ar      1 RB91001     0.0000 
     30 C23        -4.5960    6.8190    7.7610 C.ar      1 RB91001     0.0000 
     31 C24        -3.5750    3.1060   11.0640 C.2       1 RB91001     0.0000 
     32 C25        -4.5270    1.1940   10.4180 C.ar      1 RB91001     0.0000 
     33 C26        -3.1460    0.9690   10.5040 C.ar      1 RB91001     0.0000 
     34 C27        -2.6610   -0.3140   10.1920 C.ar      1 RB91001     0.0000 
     35 C28        -3.5560   -1.3100    9.8010 C.ar      1 RB91001     0.0000 
     36 C29        -4.9370   -1.0780    9.7120 C.ar      1 RB91001     0.0000 
     37 C30        -5.4400    0.1900   10.0250 C.ar      1 RB91001     0.0000 
     38 H          -0.3551    6.3531    7.0562 H         1 RB91001     0.0000 
     39 H           2.5023    6.1686    8.0057 H         1 RB91001     0.0000 
     40 H          -2.6267    5.3826    8.6168 H         1 RB91001     0.0000 
     41 H          -2.1609    4.8633    6.9879 H         1 RB91001     0.0000 
     42 H          -5.6317    2.9180   10.8051 H         1 RB91001     0.0000 
     43 H           1.7155   11.1732    8.7340 H         1 RB91001     0.0000 
     44 H           1.4706    3.8416    8.5652 H         1 RB91001     0.0000 
     45 H           2.8723    4.0289    9.6330 H         1 RB91001     0.0000 
     46 H          -0.2355    2.5008    9.2309 H         1 RB91001     0.0000 
     47 H          -0.8076    4.0500    9.8735 H         1 RB91001     0.0000 
     48 H          -0.9692    2.9150   12.1738 H         1 RB91001     0.0000 
     49 H          -0.6181    1.3784   11.3641 H         1 RB91001     0.0000 
     50 H          -2.0901    9.5190    7.1638 H         1 RB91001     0.0000 
     51 H          -4.0627   10.9235    7.0704 H         1 RB91001     0.0000 
     52 H          -4.2034   12.9017    8.4904 H         1 RB91001     0.0000 
     53 H          -2.3825   13.4396    9.9776 H         1 RB91001     0.0000 
     54 H          -0.4100   12.0419   10.0815 H         1 RB91001     0.0000 
     55 H          -2.3572    7.0570    5.2734 H         1 RB91001     0.0000 
     56 H          -4.1192    8.3844    4.2849 H         1 RB91001     0.0000 
     57 H          -6.1776    8.7541    5.5278 H         1 RB91001     0.0000 
     58 H          -6.4556    7.7934    7.7150 H         1 RB91001     0.0000 
     59 H          -4.7211    6.4006    8.6804 H         1 RB91001     0.0000 
     60 H          -3.4591    4.0249   11.3208 H         1 RB91001     0.0000 
     61 H          -1.6605   -0.5095   10.2529 H         1 RB91001     0.0000 
     62 H          -3.1915   -2.2558    9.5673 H         1 RB91001     0.0000 
     63 H          -5.5661   -1.8264    9.4222 H         1 RB91001     0.0000 
     64 H          -6.4299    0.3885    9.9731 H         1 RB91001     0.0000 
@<TRIPOS>BOND
     1    5    1 1    
     2   12    1 1    
     3   15    1 2    
     4    5    2 am   
     5    8    2 1    
     6   38    2 1    
     7    5    3 2    
     8   14    4 1    
     9   15    4 1    
    10   15    6 1    
    11   16    6 am   
    12   39    6 1    
    13   16    7 2    
    14   10    8 1    
    15   40    8 1    
    16   41    8 1    
    17   17    9 1    
    18   18    9 1    
    19   26   10 ar   
    20   30   10 ar   
    21   31   11 1    
    22   32   11 1    
    23   42   11 1    
    24   13   12 1    
    25   14   12 2    
    26   21   13 ar   
    27   25   13 ar   
    28   43   14 1    
    29   17   16 1    
    30   44   17 1    
    31   45   17 1    
    32   19   18 1    
    33   46   18 1    
    34   47   18 1    
    35   20   19 1    
    36   48   19 1    
    37   49   19 1    
    38   31   20 2    
    39   33   20 1    
    40   22   21 ar   
    41   50   21 1    
    42   23   22 ar   
    43   51   22 1    
    44   24   23 ar   
    45   52   23 1    
    46   25   24 ar   
    47   53   24 1    
    48   54   25 1    
    49   27   26 ar   
    50   55   26 1    
    51   28   27 ar   
    52   56   27 1    
    53   29   28 ar   
    54   57   28 1    
    55   30   29 ar   
    56   58   29 1    
    57   59   30 1    
    58   60   31 1    
    59   33   32 ar   
    60   37   32 ar   
    61   34   33 ar   
    62   35   34 ar   
    63   61   34 1    
    64   36   35 ar   
    65   62   35 1    
    66   37   36 ar   
    67   63   36 1    
    68   64   37 1    
@<TRIPOS>SUBSTRUCTURE
     1 RB91001     1 GROUP   
@<TRIPOS>SET

