#    Name: 3ti1_B49_1_INTS_M
#    Modification time : Mon Mar 24 20:09:15 2014

@<TRIPOS>MOLECULE
3ti1_B49_1_INTS_M
   90     0    12     0     0
SMALL
NO_CHARGES


@<TRIPOS>ATOM
      1 CA        -89.1425  -13.3235  -84.6945 C.3       4 GLC5        0.0000 
      2 CA        -88.6640  -11.7370  -83.7510 C.3      12 GLL5        0.0000 
      3 CA        -89.6210  -14.9100  -85.6380 C.3       8 GLP5        0.0000 
      4 CA        -87.4065  -12.1090  -85.1520 C.3       4 GLC5        0.0000 
      5 CA        -86.1490  -12.4810  -86.5530 C.3       8 GLP5        0.0000 
      6 CA        -87.0220  -10.5895  -84.1030 C.3       4 GLC5        0.0000 
      7 CA        -85.3800   -9.4420  -84.4550 C.3       8 GLP5        0.0000 
      8 CA        -96.8365   -4.9470  -87.2580 C.3       4 GLC5        0.0000 
      9 CA        -96.3790   -7.0050  -87.8600 C.3      12 GLL5        0.0000 
     10 CA        -97.2940   -2.8890  -86.6560 C.3       8 GLP5        0.0000 
     11 CA        -92.9370   -8.3335  -80.1050 C.3       4 GLC5        0.0000 
     12 CA        -91.4170   -7.8530  -81.6910 C.3      12 GLL5        0.0000 
     13 CA        -94.4570   -8.8140  -78.5190 C.3       8 GLP5        0.0000 
     14 CA        -91.5390  -11.6180  -83.3750 C.3       4 GLC5        0.0000 
     15 CA        -89.7260  -10.6570  -83.5080 C.3      12 GLL5        0.0000 
     16 CA        -93.3520  -12.5790  -83.2420 C.3       8 GLP5        0.0000 
     17 CA        -91.1305  -11.1005  -81.6275 C.3       4 GLC5        0.0000 
     18 CA        -89.7870   -9.7480  -82.4050 C.3      12 GLL5        0.0000 
     19 CA        -92.4740  -12.4530  -80.8500 C.3       8 GLP5        0.0000 
     20 O         -93.6120  -10.1815  -89.2305 O.2       1 ALC1        0.0000 
     21 O         -93.4160   -9.4650  -87.9550 O.2       9 ALL1        0.0000 
     22 O         -93.8080  -10.8980  -90.5060 O.2       5 ALP1        0.0000 
     23 O         -90.7070   -9.7055  -79.5550 O.2       1 ALC1        0.0000 
     24 O         -89.3410   -9.4500  -79.8490 O.2       9 ALL1        0.0000 
     25 O         -92.0730   -9.9610  -79.2610 O.2       5 ALP1        0.0000 
     26 N         -90.8210  -11.0625  -87.8965 N.am      2 SEC2        0.0000 
     27 N         -91.5900  -10.5590  -86.7520 N.am     10 SEL2        0.0000 
     28 N         -90.0520  -11.5660  -89.0410 N.am      6 SEP2        0.0000 
     29 N         -86.9010   -8.5890  -82.4380 N.am      2 SEC2        0.0000 
     30 N         -87.5780   -9.7840  -81.3780 N.am     10 SEL2        0.0000 
     31 N         -86.2240   -7.3940  -83.4980 N.am      6 SEP2        0.0000 
     32 CA        -97.3400   -7.1205  -84.1040 C.3       4 GLC5        0.0000 
     33 CA        -97.0350   -5.8140  -85.9080 C.3      12 GLL5        0.0000 
     34 CA        -97.6450   -8.4270  -82.3000 C.3       8 GLP5        0.0000 
     35 CA        -99.0380   -5.7320  -84.8890 C.3       4 GLC5        0.0000 
     36 CA       -101.0410   -5.6500  -83.8700 C.3       8 GLP5        0.0000 
     37 CA        -98.4970   -6.7195  -87.2945 C.3       4 GLC5        0.0000 
     38 CA        -99.9590   -7.6250  -88.6810 C.3       8 GLP5        0.0000 
     39 OD1       -87.9240   -5.9720  -79.3470 O.co2     3 ASC3        0.0000 
     40 OD1       -88.8810   -6.9440  -78.0590 O.co2    11 ASL3        0.0000 
     41 OD1       -86.9670   -5.0000  -80.6350 O.co2     7 ASP3        0.0000 
     42 OD1       -88.4940   -6.8980  -79.2770 O.co2     3 ASC3        0.0000 
     43 OD1       -88.1070   -6.8520  -80.4950 O.co2     7 ASP3        0.0000 
     44 O         -88.4940   -6.8980  -79.2770 O.2       1 ALC1        0.0000 
     45 O         -88.8810   -6.9440  -78.0590 O.2       9 ALL1        0.0000 
     46 O         -88.1070   -6.8520  -80.4950 O.2       5 ALP1        0.0000 
     47 CA        -90.3060   -4.4145  -77.9915 C.3       4 GLC5        0.0000 
     48 CA        -90.1050   -6.4500  -77.4910 C.3      12 GLL5        0.0000 
     49 CA        -90.5070   -2.3790  -78.4920 C.3       8 GLP5        0.0000 
     50 CA        -85.9935   -6.6665  -78.5320 C.3       4 GLC5        0.0000 
     51 CA        -87.7840   -6.1150  -77.6800 C.3      12 GLL5        0.0000 
     52 CA        -84.2030   -7.2180  -79.3840 C.3       8 GLP5        0.0000 
     53 CA        -92.6770   -8.0670  -77.5455 C.3       4 GLC5        0.0000 
     54 CA        -90.8970   -7.3200  -76.5720 C.3      12 GLL5        0.0000 
     55 CA        -95.2425  -10.0735  -87.5915 C.3       4 GLC5        0.0000 
     56 CA        -95.4980   -7.9290  -88.4510 C.3      12 GLL5        0.0000 
     57 CA        -95.5100  -11.9210  -87.1240 C.3       8 GLP5        0.0000 
     58 CA        -93.1465   -7.5825  -87.9360 C.3       4 GLC5        0.0000 
     59 CA        -94.4520   -8.5230  -87.6670 C.3      12 GLL5        0.0000 
     60 CA        -91.3180   -6.9390  -87.8130 C.3       8 GLP5        0.0000 
     61 CA        -95.6455   -9.0553  -84.7330 C.3       4 GLC5        0.0000 
     62 CA        -94.3290   -8.1800  -86.3510 C.3      12 GLL5        0.0000 
     63 CA        -96.5280  -10.3930  -83.4140 C.3       8 GLP5        0.0000 
     64 CA        -94.6000   -5.5645  -87.1785 C.3       4 GLC5        0.0000 
     65 CA        -95.1970   -7.2550  -85.7530 C.3      12 GLL5        0.0000 
     66 CA        -93.4870   -4.1660  -88.2250 C.3       8 GLP5        0.0000 
     67 CA        -92.3512  -10.5288  -82.5320 C.3       4 GLC5        0.0000 
     68 CA        -91.5340   -9.3570  -83.7920 C.3      12 GLL5        0.0000 
     69 CA        -93.4730  -11.9020  -81.8710 C.3       8 GLP5        0.0000 
     70 CA        -94.6385  -10.2325  -86.6002 C.3       4 GLC5        0.0000 
     71 CA        -93.2050   -8.9080  -85.8020 C.3      12 GLL5        0.0000 
     72 CA        -93.1800  -10.6968  -84.1520 C.3       4 GLC5        0.0000 
     73 CA        -94.7680   -9.6038  -84.2380 C.3       4 GLC5        0.0000 
     74 CA        -92.8110   -8.7210  -84.3220 C.3      12 GLL5        0.0000 
     75 CA        -92.6510   -7.6259  -86.8700 C.3       4 GLC5        0.0000 
     76 CA        -90.9816   -7.6391  -84.7777 C.3       4 GLC5        0.0000 
     77 CA        -89.9430   -6.3400  -85.7980 C.3       8 GLP5        0.0000 
     78 CA        -94.5646   -7.7160  -89.7221 C.3       4 GLC5        0.0000 
     79 CA        -93.9340   -7.4370  -91.5330 C.3       8 GLP5        0.0000 
     80 CA        -96.2381   -8.9395  -89.0546 C.3       4 GLC5        0.0000 
     81 CA        -97.2810   -9.8840  -90.1980 C.3       8 GLP5        0.0000 
     82 CA        -94.3411   -6.0805  -88.0681 C.3       4 GLC5        0.0000 
     83 CA        -89.2230   -7.4559  -82.4524 C.3       4 GLC5        0.0000 
     84 CA        -90.9250   -8.9540  -82.5940 C.3      12 GLL5        0.0000 
     85 CA        -87.9670   -5.8360  -82.6310 C.3       8 GLP5        0.0000 
     86 CA        -96.5340   -4.7558  -85.6420 C.3       4 GLC5        0.0000 
     87 CA        -96.2290   -6.6710  -86.5110 C.3      12 GLL5        0.0000 
     88 CA        -96.6940   -3.1230  -85.2640 C.3       8 GLP5        0.0000 
     89 CA        -87.0795   -4.2670  -77.1643 C.3       4 GLC5        0.0000 
     90 CA        -86.4350   -2.6240  -77.3840 C.3       8 GLP5        0.0000 
@<TRIPOS>BOND
@<TRIPOS>SUBSTRUCTURE
     1 ALC1       20 GROUP        1 X    ALC  0     ROOT ALC X 1
     2 SEC2       26 GROUP        1 X    SEC  0     **** SEC X 2
     3 ASC3       39 GROUP        1 X    ASC  0     **** ASC X 3
     4 GLC5        1 GROUP        1 X    GLC  0     **** GLC X 6
     5 ALP1       22 GROUP        1 Y    ALP  0     ROOT ALP Y 8
     6 SEP2       28 GROUP        1 Y    SEP  0     **** SEP Y 9
     7 ASP3       41 GROUP        1 Y    ASP  0     **** ASP Y 10
     8 GLP5        3 GROUP        1 Y    GLP  0     **** GLP Y 13
     9 ALL1       21 GROUP        1 Z    ALL  0     ROOT ALL Z 15
    10 SEL2       27 GROUP        1 Z    SEL  0     **** SEL Z 16
    11 ASL3       40 GROUP        1 Z    ASL  0     **** ASL Z 17
    12 GLL5        2 GROUP        1 Z    GLL  0     **** GLL Z 20
@<TRIPOS>SET

