#    Name: 3ti1_B49_1_ligand
#    Modification time : Mon Mar 24 20:09:15 2014

@<TRIPOS>MOLECULE
3ti1_B49_1_ligand
   57    59     1     0     0
SMALL
NO_CHARGES


@<TRIPOS>ATOM
      1 C4        -88.6640  -11.7370  -83.7510 C.3       1 B49299      0.0000 
      2 C5        -96.3790   -7.0050  -87.8600 C.ar      1 B49299      0.0000 
      3 C6        -95.4980   -7.9290  -88.4510 C.ar      1 B49299      0.0000 
      4 C7        -95.1970   -7.2550  -85.7530 C.ar      1 B49299      0.0000 
      5 C13       -90.9250   -8.9540  -82.5940 C.2       1 B49299      0.0000 
      6 C15       -96.2290   -6.6710  -86.5110 C.ar      1 B49299      0.0000 
      7 C17       -94.3290   -8.1800  -86.3510 C.ar      1 B49299      0.0000 
      8 C20       -93.2050   -8.9080  -85.8020 C.2       1 B49299      0.0000 
      9 C21       -92.6690   -9.7020  -86.8320 C.2       1 B49299      0.0000 
     10 C22       -88.8190   -9.6600  -81.2000 C.2       1 B49299      0.0000 
     11 C3        -91.4170   -7.8530  -81.6910 C.3       1 B49299      0.0000 
     12 C12       -92.8110   -8.7210  -84.3220 C.2       1 B49299      0.0000 
     13 C14       -89.7260  -10.6570  -83.5080 C.2       1 B49299      0.0000 
     14 C16       -94.4520   -8.5230  -87.6670 C.ar      1 B49299      0.0000 
     15 C18       -91.5340   -9.3570  -83.7920 C.2       1 B49299      0.0000 
     16 C19       -89.7870   -9.7480  -82.4050 C.2       1 B49299      0.0000 
     17 N23       -90.7910  -10.4010  -84.3350 N.pl3     1 B49299      0.0000 
     18 N24       -93.4160   -9.4650  -87.9550 N.am      1 B49299      0.0000 
     19 N25       -89.3410   -9.4500  -79.8490 N.am      1 B49299      0.0000 
     20 O27       -91.5900  -10.5590  -86.7520 O.2       1 B49299      0.0000 
     21 O28       -87.5780   -9.7840  -81.3780 O.2       1 B49299      0.0000 
     22 F29       -97.0350   -5.8140  -85.9080 F         1 B49299      0.0000 
     23 C37       -88.4410   -9.3820  -78.7420 C.3       1 B49299      0.0000 
     24 C38       -88.6380   -8.3370  -77.6700 C.3       1 B49299      0.0000 
     25 N4        -88.8810   -6.9440  -78.0590 N.4       1 B49299      0.0000 
     26 C39       -90.1050   -6.4500  -77.4910 C.3       1 B49299      0.0000 
     27 C40       -87.7840   -6.1150  -77.6800 C.3       1 B49299      0.0000 
     28 C41       -87.6640   -5.7050  -76.2090 C.3       1 B49299      0.0000 
     29 C42       -90.8970   -7.3200  -76.5720 C.3       1 B49299      0.0000 
     30 H         -97.1239   -6.5822  -88.4178 H         1 B49299      0.0000 
     31 H         -95.5912   -8.1844  -89.4314 H         1 B49299      0.0000 
     32 H         -95.0821   -7.0039  -84.7684 H         1 B49299      0.0000 
     33 H         -93.3877   -8.1924  -83.7320 H         1 B49299      0.0000 
     34 H         -90.9970  -10.8561  -85.1480 H         1 B49299      0.0000 
     35 H         -93.2900   -9.8556  -88.8206 H         1 B49299      0.0000 
     36 H         -90.3365   -9.3553  -79.7161 H         1 B49299      0.0000 
     37 H         -87.3672   -9.2714  -79.1184 H         1 B49299      0.0000 
     38 H         -88.3962  -10.3944  -78.2129 H         1 B49299      0.0000 
     39 H         -87.7378   -8.3808  -76.9791 H         1 B49299      0.0000 
     40 H         -89.4824   -8.6904  -76.9979 H         1 B49299      0.0000 
     41 H         -88.9753   -6.9190  -79.1655 H         1 B49299      0.0000 
     42 H         -90.8046   -6.1103  -78.3272 H         1 B49299      0.0000 
     43 H         -89.9033   -5.4686  -76.9430 H         1 B49299      0.0000 
     44 H         -87.7785   -5.1574  -78.2844 H         1 B49299      0.0000 
     45 H         -86.8002   -6.5993  -77.9623 H         1 B49299      0.0000 
     46 H         -87.7478  -11.3449  -83.8339 H         1 B49299      0.0000 
     47 H         -88.6321  -12.4012  -83.0041 H         1 B49299      0.0000 
     48 H         -88.8408  -12.2493  -84.5914 H         1 B49299      0.0000 
     49 H         -90.8296   -7.7395  -80.8897 H         1 B49299      0.0000 
     50 H         -91.4444   -6.9711  -82.1616 H         1 B49299      0.0000 
     51 H         -92.3409   -8.0342  -81.3539 H         1 B49299      0.0000 
     52 H         -87.5794   -6.4995  -75.6077 H         1 B49299      0.0000 
     53 H         -86.8625   -5.1291  -76.0482 H         1 B49299      0.0000 
     54 H         -88.4628   -5.1882  -75.9011 H         1 B49299      0.0000 
     55 H         -90.3689   -7.5864  -75.7657 H         1 B49299      0.0000 
     56 H         -91.7215   -6.8595  -76.2433 H         1 B49299      0.0000 
     57 H         -91.1917   -8.1635  -77.0211 H         1 B49299      0.0000 
@<TRIPOS>BOND
     1   13    1 1    
     2   46    1 1    
     3   47    1 1    
     4   48    1 1    
     5    3    2 ar   
     6    6    2 ar   
     7   30    2 1    
     8   14    3 ar   
     9   31    3 1    
    10    6    4 ar   
    11    7    4 ar   
    12   32    4 1    
    13   11    5 1    
    14   15    5 2    
    15   16    5 1    
    16   22    6 1    
    17    8    7 1    
    18   14    7 ar   
    19    9    8 1    
    20   12    8 2    
    21   18    9 am   
    22   20    9 2    
    23   16   10 1    
    24   19   10 am   
    25   21   10 2    
    26   49   11 1    
    27   50   11 1    
    28   51   11 1    
    29   15   12 1    
    30   33   12 1    
    31   16   13 2    
    32   17   13 1    
    33   18   14 1    
    34   17   15 1    
    35   34   17 1    
    36   35   18 1    
    37   23   19 1    
    38   36   19 1    
    39   24   23 1    
    40   37   23 1    
    41   38   23 1    
    42   25   24 1    
    43   39   24 1    
    44   40   24 1    
    45   26   25 1    
    46   27   25 1    
    47   41   25 1    
    48   29   26 1    
    49   42   26 1    
    50   43   26 1    
    51   28   27 1    
    52   44   27 1    
    53   45   27 1    
    54   52   28 1    
    55   53   28 1    
    56   54   28 1    
    57   55   29 1    
    58   56   29 1    
    59   57   29 1    
@<TRIPOS>SUBSTRUCTURE
     1 B49299      1 GROUP   
@<TRIPOS>SET

