#    Name: 4e2d_FMN_2_INTS_M
#    Modification time : Tue Mar 25 10:31:48 2014

@<TRIPOS>MOLECULE
4e2d_FMN_2_INTS_M
   73     0     9     0     0
SMALL
NO_CHARGES


@<TRIPOS>ATOM
      1 N          22.3640    0.9005   56.7550 N.am      2 SEC2        0.0000 
      2 N          21.5740    2.1190   56.6210 N.am      8 SEL2        0.0000 
      3 N          23.1540   -0.3180   56.8890 N.am      5 SEP2        0.0000 
      4 N          20.4915    2.2550   57.4060 N.am      2 SEC2        0.0000 
      5 N          19.4090    2.3910   58.1910 N.am      5 SEP2        0.0000 
      6 O          24.2825    2.1355   56.8150 O.2       1 ALC1        0.0000 
      7 O          23.5350    3.2840   56.8750 O.2       7 ALL1        0.0000 
      8 O          25.0300    0.9870   56.7550 O.2       4 ALP1        0.0000 
      9 N          25.8610    5.7395   58.2305 N.am      2 SEC2        0.0000 
     10 N          25.4160    4.5200   57.2160 N.am      8 SEL2        0.0000 
     11 N          26.3060    6.9590   59.2450 N.am      5 SEP2        0.0000 
     12 N          26.2585    5.4815   56.8550 N.am      2 SEC2        0.0000 
     13 N          27.1010    6.4430   56.4940 N.am      5 SEP2        0.0000 
     14 N          26.6210    3.5145   57.4895 N.am      2 SEC2        0.0000 
     15 N          27.8260    2.5090   57.7630 N.am      5 SEP2        0.0000 
     16 N          25.1155    6.8660   58.6535 N.am      2 SEC2        0.0000 
     17 N          23.9250    6.7730   58.0620 N.am      8 SEL2        0.0000 
     18 CA         25.1495    7.7910   57.8090 C.3       3 GLC5        0.0000 
     19 CA         23.1710    7.8300   58.5230 C.3       9 GLL5        0.0000 
     20 CA         27.1280    7.7520   57.0950 C.3       6 GLP5        0.0000 
     21 CA         25.6050    8.3090   58.7540 C.3       3 GLC5        0.0000 
     22 CA         23.7910    9.0250   58.9080 C.3       9 GLL5        0.0000 
     23 CA         27.4190    7.5930   58.6000 C.3       6 GLP5        0.0000 
     24 CA         23.3320   11.1995   61.8550 C.3       3 GLC5        0.0000 
     25 CA         23.7370   11.3710   59.7910 C.3       9 GLL5        0.0000 
     26 CA         22.9270   11.0280   63.9190 C.3       6 GLP5        0.0000 
     27 CA         22.9940   12.9630   60.4545 C.3       3 GLC5        0.0000 
     28 CA         22.2510   14.5550   61.1180 C.3       6 GLP5        0.0000 
     29 CA         24.2130   12.1720   58.4810 C.3       3 GLC5        0.0000 
     30 CA         24.6890   12.9730   57.1710 C.3       6 GLP5        0.0000 
     31 CA         20.8730   12.8000   60.8565 C.3       3 GLC5        0.0000 
     32 CA         20.7070   11.1210   59.9360 C.3       9 GLL5        0.0000 
     33 CA         21.0390   14.4790   61.7770 C.3       6 GLP5        0.0000 
     34 CA         20.7990    6.6620   61.1575 C.3       3 GLC5        0.0000 
     35 CA         19.4590    5.9050   59.8160 C.3       9 GLL5        0.0000 
     36 CA         22.1390    7.4190   62.4990 C.3       6 GLP5        0.0000 
     37 N          19.0770    3.2730   60.0170 N.am      2 SEC2        0.0000 
     38 N          20.0940    4.6470   60.0400 N.am      8 SEL2        0.0000 
     39 N          18.0600    1.8990   59.9940 N.am      5 SEP2        0.0000 
     40 N          19.7515    3.5190   59.1155 N.am      2 SEC2        0.0000 
     41 O          21.5245    4.5415   60.1960 O.2       1 ALC1        0.0000 
     42 O          20.0940    4.6470   60.0400 O.2       7 ALL1        0.0000 
     43 O          22.9550    4.4360   60.3520 O.2       4 ALP1        0.0000 
     44 N          17.6615    3.3935   59.7260 N.am      2 SEC2        0.0000 
     45 N          17.2630    4.8880   59.4580 N.am      8 SEL2        0.0000 
     46 O          16.2880    4.2860   59.9035 O.2       1 ALC1        0.0000 
     47 O          17.2630    4.8880   59.4580 O.2       7 ALL1        0.0000 
     48 O          15.3130    3.6840   60.3490 O.2       4 ALP1        0.0000 
     49 CA         14.2470    7.3740   59.8215 C.3       3 GLC5        0.0000 
     50 CA         15.8760    7.1800   60.5660 C.3       9 GLL5        0.0000 
     51 CA         12.6180    7.5680   59.0770 C.3       6 GLP5        0.0000 
     52 N          15.7905    5.2530   62.2260 N.am      2 SEC2        0.0000 
     53 N          15.7500    6.7180   61.9090 N.am      8 SEL2        0.0000 
     54 N          15.8310    3.7880   62.5430 N.am      5 SEP2        0.0000 
     55 N          12.8440    7.7280   62.9230 N.am      2 SEC2        0.0000 
     56 N          14.1160    8.2140   62.7960 N.am      8 SEL2        0.0000 
     57 N          11.5720    7.2420   63.0500 N.am      5 SEP2        0.0000 
     58 N          17.7005    8.9310   64.0705 N.am      2 SEC2        0.0000 
     59 N          16.6370    8.6890   63.1240 N.am      8 SEL2        0.0000 
     60 N          18.7640    9.1730   65.0170 N.am      5 SEP2        0.0000 
     61 N          16.8965    6.4735   64.8430 N.am      2 SEC2        0.0000 
     62 N          15.6590    6.9120   64.4320 N.am      8 SEL2        0.0000 
     63 N          18.1340    6.0350   65.2540 N.am      5 SEP2        0.0000 
     64 N          14.6290    5.8730   64.6730 N.am      2 SEC2        0.0000 
     65 N          13.5990    4.8340   64.9140 N.am      5 SEP2        0.0000 
     66 CA         24.2090    7.3202   59.9062 C.3       3 GLC5        0.0000 
     67 CA         24.9370    6.2130   61.0970 C.3       6 GLP5        0.0000 
     68 CA         22.2170    8.7302   60.9550 C.3       3 GLC5        0.0000 
     69 CA         23.0290   10.1040   59.3660 C.3       9 GLL5        0.0000 
     70 CA         21.7223    7.8347   60.6740 C.3       3 GLC5        0.0000 
     71 CA         20.9280    8.7880   59.0830 C.3       9 GLL5        0.0000 
     72 CA         19.2795    4.5107   61.6463 C.3       3 GLC5        0.0000 
     73 CA         19.8290    3.1520   63.2440 C.3       6 GLP5        0.0000 
@<TRIPOS>BOND
@<TRIPOS>SUBSTRUCTURE
     1 ALC1        6 GROUP        1 X    ALC  0     ROOT ALC X 1
     2 SEC2        1 GROUP        1 X    SEC  0     **** SEC X 2
     3 GLC5       18 GROUP        1 X    GLC  0     **** GLC X 6
     4 ALP1        8 GROUP        1 Y    ALP  0     ROOT ALP Y 8
     5 SEP2        3 GROUP        1 Y    SEP  0     **** SEP Y 9
     6 GLP5       20 GROUP        1 Y    GLP  0     **** GLP Y 13
     7 ALL1        7 GROUP        1 Z    ALL  0     ROOT ALL Z 15
     8 SEL2        2 GROUP        1 Z    SEL  0     **** SEL Z 16
     9 GLL5       19 GROUP        1 Z    GLL  0     **** GLL Z 20
@<TRIPOS>SET

