#    Name: 4e2d_FMN_2_ligand
#    Modification time : Tue Mar 25 10:31:48 2014

@<TRIPOS>MOLECULE
4e2d_FMN_2_ligand
   50    52     1     0     0
SMALL
NO_CHARGES


@<TRIPOS>ATOM
      1 N1         21.3760    4.2390   57.3720 N.2       1 FMN401      0.0000 
      2 C2         22.1600    3.1980   56.9380 C.2       1 FMN401      0.0000 
      3 O2         21.5740    2.1190   56.6210 O.2       1 FMN401      0.0000 
      4 N3         23.5350    3.2840   56.8750 N.am      1 FMN401      0.0000 
      5 C4         24.1670    4.4250   57.2450 C.2       1 FMN401      0.0000 
      6 O4         25.4160    4.5200   57.2160 O.2       1 FMN401      0.0000 
      7 C4A        23.3640    5.5840   57.6990 C.2       1 FMN401      0.0000 
      8 N5         23.9250    6.7730   58.0620 N.2       1 FMN401      0.0000 
      9 C5A        23.1710    7.8300   58.5230 C.ar      1 FMN401      0.0000 
     10 C6         23.7910    9.0250   58.9080 C.ar      1 FMN401      0.0000 
     11 C7         23.0290   10.1040   59.3660 C.ar      1 FMN401      0.0000 
     12 C7M        23.7370   11.3710   59.7910 C.3       1 FMN401      0.0000 
     13 C8         21.5610    9.9790   59.4560 C.ar      1 FMN401      0.0000 
     14 C8M        20.7070   11.1210   59.9360 C.3       1 FMN401      0.0000 
     15 C9         20.9280    8.7880   59.0830 C.ar      1 FMN401      0.0000 
     16 C9A        21.6830    7.7130   58.6150 C.ar      1 FMN401      0.0000 
     17 N10        21.0800    6.5040   58.2080 N.pl3     1 FMN401      0.0000 
     18 C10        21.8970    5.4240   57.7540 C.2       1 FMN401      0.0000 
     19 C1'        19.6150    6.3130   58.3270 C.3       1 FMN401      0.0000 
     20 C2'        19.4590    5.9050   59.8160 C.3       1 FMN401      0.0000 
     21 O2'        20.0940    4.6470   60.0400 O.3       1 FMN401      0.0000 
     22 C3'        18.0010    5.8340   60.2810 C.3       1 FMN401      0.0000 
     23 O3'        17.2630    4.8880   59.4580 O.3       1 FMN401      0.0000 
     24 C4'        17.3620    7.2100   60.1150 C.3       1 FMN401      0.0000 
     25 O4'        18.0980    8.1710   60.9050 O.3       1 FMN401      0.0000 
     26 C5'        15.8760    7.1800   60.5660 C.3       1 FMN401      0.0000 
     27 O5'        15.7500    6.7180   61.9090 O.3       1 FMN401      0.0000 
     28 P          15.4820    7.7060   63.1680 P.3       1 FMN401      0.0000 
     29 O1P        14.1160    8.2140   62.7960 O.co2     1 FMN401      0.0000 
     30 O2P        16.6370    8.6890   63.1240 O.co2     1 FMN401      0.0000 
     31 O3P        15.6590    6.9120   64.4320 O.co2     1 FMN401      0.0000 
     32 H          24.0794    2.4654   56.5412 H         1 FMN401      0.0000 
     33 H          24.8150    9.1087   58.8531 H         1 FMN401      0.0000 
     34 H          19.9072    8.7078   59.1547 H         1 FMN401      0.0000 
     35 H          19.2791    5.5141   57.7220 H         1 FMN401      0.0000 
     36 H          19.0933    7.2186   58.1695 H         1 FMN401      0.0000 
     37 H          19.9577    6.6813   60.4135 H         1 FMN401      0.0000 
     38 H          17.9742    5.5631   61.3078 H         1 FMN401      0.0000 
     39 H          17.3851    7.4733   59.0706 H         1 FMN401      0.0000 
     40 H          15.3379    6.5346   59.8549 H         1 FMN401      0.0000 
     41 H          15.4823    8.2004   60.4416 H         1 FMN401      0.0000 
     42 H          24.3741   11.2058   60.5438 H         1 FMN401      0.0000 
     43 H          24.2657   11.7702   59.0419 H         1 FMN401      0.0000 
     44 H          23.0928   12.0705   60.1004 H         1 FMN401      0.0000 
     45 H          20.9466   11.3984   60.8664 H         1 FMN401      0.0000 
     46 H          20.8060   11.9286   59.3547 H         1 FMN401      0.0000 
     47 H          19.7361   10.8816   59.9423 H         1 FMN401      0.0000 
     48 H          21.0669    4.8604   60.1284 H         1 FMN401      0.0000 
     49 H          16.3968    4.7485   59.9378 H         1 FMN401      0.0000 
     50 H          17.5378    8.3191   61.7200 H         1 FMN401      0.0000 
@<TRIPOS>BOND
     1    2    1 1    
     2   18    1 2    
     3    3    2 2    
     4    4    2 am   
     5    5    4 am   
     6   32    4 1    
     7    6    5 2    
     8    7    5 1    
     9    8    7 2    
    10   18    7 1    
    11    9    8 1    
    12   10    9 ar   
    13   16    9 ar   
    14   11   10 ar   
    15   33   10 1    
    16   12   11 1    
    17   13   11 ar   
    18   42   12 1    
    19   43   12 1    
    20   44   12 1    
    21   14   13 1    
    22   15   13 ar   
    23   45   14 1    
    24   46   14 1    
    25   47   14 1    
    26   16   15 ar   
    27   34   15 1    
    28   17   16 1    
    29   18   17 1    
    30   19   17 1    
    31   20   19 1    
    32   35   19 1    
    33   36   19 1    
    34   21   20 1    
    35   22   20 1    
    36   37   20 1    
    37   48   21 1    
    38   23   22 1    
    39   24   22 1    
    40   38   22 1    
    41   49   23 1    
    42   25   24 1    
    43   26   24 1    
    44   39   24 1    
    45   50   25 1    
    46   27   26 1    
    47   40   26 1    
    48   41   26 1    
    49   28   27 1    
    50   29   28 ar   
    51   30   28 ar   
    52   31   28 ar   
@<TRIPOS>SUBSTRUCTURE
     1 FMN401      1 GROUP   
@<TRIPOS>SET

