#    Name: 3qoa_3QO_1_INTS_M
#    Modification time : Mon Apr  7 19:44:28 2014

@<TRIPOS>MOLECULE
3qoa_3QO_1_INTS_M
   24     0     3     0     0
SMALL
NO_CHARGES


@<TRIPOS>ATOM
      1 CA        -42.2405   18.0455  -21.9730 C.3       1 GLC5        0.0000 
      2 CA        -41.4610   17.1490  -23.8650 C.3       3 GLL5        0.0000 
      3 CA        -43.0200   18.9420  -20.0810 C.3       2 GLP5        0.0000 
      4 CA        -39.6705   13.6250  -23.2050 C.3       1 GLC5        0.0000 
      5 CA        -41.7970   13.4910  -23.1650 C.3       3 GLL5        0.0000 
      6 CA        -37.5440   13.7590  -23.2450 C.3       2 GLP5        0.0000 
      7 CA        -44.1120   11.9885  -23.1625 C.3       1 GLC5        0.0000 
      8 CA        -42.9440   13.4610  -22.2430 C.3       3 GLL5        0.0000 
      9 CA        -45.2800   10.5160  -24.0820 C.3       2 GLP5        0.0000 
     10 CA        -40.7680   19.0045  -24.3528 C.3       1 GLC5        0.0000 
     11 CA        -40.1590   20.8650  -24.1540 C.3       2 GLP5        0.0000 
     12 CA        -45.5748   14.6560  -23.7120 C.3       1 GLC5        0.0000 
     13 CA        -44.2030   13.6000  -22.7090 C.3       3 GLL5        0.0000 
     14 CA        -46.4390   15.7320  -25.1660 C.3       2 GLP5        0.0000 
     15 CA        -45.5658   12.4920  -22.9460 C.3       1 GLC5        0.0000 
     16 CA        -46.4210   11.4040  -23.6340 C.3       2 GLP5        0.0000 
     17 CA        -43.7313   12.0025  -21.4840 C.3       1 GLC5        0.0000 
     18 CA        -45.2180   13.5600  -21.8070 C.3       3 GLL5        0.0000 
     19 CA        -42.7520   10.4250  -20.7100 C.3       2 GLP5        0.0000 
     20 CA        -42.9973   11.8328  -20.6133 C.3       1 GLC5        0.0000 
     21 CA        -42.7120   13.2720  -20.9410 C.3       3 GLL5        0.0000 
     22 CA        -42.2913   14.5903  -19.4467 C.3       1 GLC5        0.0000 
     23 CA        -41.3400   15.9400  -18.3770 C.3       2 GLP5        0.0000 
     24 CA        -42.5613   11.9505  -21.7070 C.3       1 GLC5        0.0000 
@<TRIPOS>BOND
@<TRIPOS>SUBSTRUCTURE
     1 GLC5        1 GROUP        1 X    GLC  0     ROOT GLC X 6
     2 GLP5        3 GROUP        1 Y    GLP  0     ROOT GLP Y 13
     3 GLL5        2 GROUP        1 Z    GLL  0     ROOT GLL Z 20
@<TRIPOS>SET

