#    Name: 3qoa_3QO_1_ligand
#    Modification time : Mon Apr  7 19:44:28 2014

@<TRIPOS>MOLECULE
3qoa_3QO_1_ligand
   24    25     1     0     0
SMALL
NO_CHARGES


@<TRIPOS>ATOM
      1 CAA       -41.2930   17.1390  -25.2380 C.ar      1 3QO501      0.0000 
      2 CAB       -41.2980   15.9520  -25.9220 C.ar      1 3QO501      0.0000 
      3 CAC       -41.4610   17.1490  -23.8650 C.ar      1 3QO501      0.0000 
      4 CAD       -45.2180   13.5600  -21.8070 C.ar      1 3QO501      0.0000 
      5 CAE       -43.7730   13.2090  -20.0920 C.ar      1 3QO501      0.0000 
      6 CAF       -41.4880   14.7610  -25.2250 C.ar      1 3QO501      0.0000 
      7 CAG       -41.6180   15.9590  -23.1880 C.ar      1 3QO501      0.0000 
      8 CAH       -44.2030   13.6000  -22.7090 C.ar      1 3QO501      0.0000 
      9 CAI       -42.7120   13.2720  -20.9410 C.ar      1 3QO501      0.0000 
     10 CAJ       -41.7970   13.4910  -23.1650 C.3       1 3QO501      0.0000 
     11 NAK       -44.9680   13.3630  -20.5640 N.ar      1 3QO501      0.0000 
     12 CAL       -41.6490   14.7840  -23.8610 C.ar      1 3QO501      0.0000 
     13 CAM       -42.9440   13.4610  -22.2430 C.ar      1 3QO501      0.0000 
     14 H         -41.1640   18.0315  -25.7431 H         1 3QO501      0.0000 
     15 H         -41.1637   15.9294  -26.9404 H         1 3QO501      0.0000 
     16 H         -41.4684   18.0423  -23.3535 H         1 3QO501      0.0000 
     17 H         -46.1999   13.6947  -22.1628 H         1 3QO501      0.0000 
     18 H         -43.5933   13.0373  -19.0778 H         1 3QO501      0.0000 
     19 H         -41.5064   13.8689  -25.7395 H         1 3QO501      0.0000 
     20 H         -41.7125   15.9744  -22.1525 H         1 3QO501      0.0000 
     21 H         -44.3911   13.7313  -23.7078 H         1 3QO501      0.0000 
     22 H         -41.7506   13.1744  -20.5751 H         1 3QO501      0.0000 
     23 H         -40.8654   13.2665  -22.6046 H         1 3QO501      0.0000 
     24 H         -41.9036   12.6798  -23.9153 H         1 3QO501      0.0000 
@<TRIPOS>BOND
     1    2    1 ar   
     2    3    1 ar   
     3   14    1 1    
     4    6    2 ar   
     5   15    2 1    
     6    7    3 ar   
     7   16    3 1    
     8    8    4 ar   
     9   11    4 ar   
    10   17    4 1    
    11    9    5 ar   
    12   11    5 ar   
    13   18    5 1    
    14   12    6 ar   
    15   19    6 1    
    16   12    7 ar   
    17   20    7 1    
    18   13    8 ar   
    19   21    8 1    
    20   13    9 ar   
    21   22    9 1    
    22   12   10 1    
    23   13   10 1    
    24   23   10 1    
    25   24   10 1    
@<TRIPOS>SUBSTRUCTURE
     1 3QO501      1 GROUP   
@<TRIPOS>SET

