#    Name: 3ewj_642_2_INTS_M
#    Modification time : Tue Mar 25 02:36:19 2014

@<TRIPOS>MOLECULE
3ewj_642_2_INTS_M
   85     0     9     0     0
SMALL
NO_CHARGES


@<TRIPOS>ATOM
      1 CA         46.2100   33.2845   37.9435 C.3       3 GLC5        0.0000 
      2 CA         48.3980   33.4070   38.2620 C.3       9 GLL5        0.0000 
      3 CA         44.0220   33.1620   37.6250 C.3       6 GLP5        0.0000 
      4 Zn         51.2545   34.7425   40.5420 Zn        2 ZIC7        0.0000 
      5 Zn         50.6700   34.3040   39.9480 Zn        8 ZIL7        0.0000 
      6 Zn         51.8390   35.1810   41.1360 Zn        5 ZIP7        0.0000 
      7 Zn         50.6370   35.5740   40.9960 Zn        2 ZIC7        0.0000 
      8 Zn         49.4350   35.9670   40.8560 Zn        8 ZIL7        0.0000 
      9 N          48.3485   36.0790   41.7150 N.am      1 SEC2        0.0000 
     10 N          49.4350   35.9670   40.8560 N.am      7 SEL2        0.0000 
     11 N          47.2620   36.1910   42.5740 N.am      4 SEP2        0.0000 
     12 N          44.7585   32.0185   39.9805 N.am      1 SEC2        0.0000 
     13 N          46.0630   32.1100   39.5240 N.am      7 SEL2        0.0000 
     14 N          43.4540   31.9270   40.4370 N.am      4 SEP2        0.0000 
     15 CA         50.3490   28.9360   41.2535 C.3       3 GLC5        0.0000 
     16 CA         48.9610   30.6530   40.8380 C.3       9 GLL5        0.0000 
     17 CA         51.7370   27.2190   41.6690 C.3       6 GLP5        0.0000 
     18 CA         52.1835   30.2705   42.1250 C.3       3 GLC5        0.0000 
     19 CA         50.1630   30.4550   43.0890 C.3       9 GLL5        0.0000 
     20 CA         54.2040   30.0860   41.1610 C.3       6 GLP5        0.0000 
     21 CA         50.9500   28.8370   42.3790 C.3       3 GLC5        0.0000 
     22 CA         47.1590   33.1175   45.8660 C.3       3 GLC5        0.0000 
     23 CA         48.2280   32.1270   44.3000 C.3       9 GLL5        0.0000 
     24 CA         46.0900   34.1080   47.4320 C.3       6 GLP5        0.0000 
     25 CA         49.4125   33.5030   43.4145 C.3       3 GLC5        0.0000 
     26 CA         48.1490   31.8260   42.9370 C.3       9 GLL5        0.0000 
     27 CA         50.6760   35.1800   43.8920 C.3       6 GLP5        0.0000 
     28 CA         50.2060   33.1105   46.8450 C.3       3 GLC5        0.0000 
     29 CA         50.2610   31.1670   47.2500 C.3       9 GLL5        0.0000 
     30 CA         50.1510   35.0540   46.4400 C.3       6 GLP5        0.0000 
     31 CA         51.1360   32.3215   48.6250 C.3       3 GLC5        0.0000 
     32 CA         52.0110   33.4760   50.0000 C.3       6 GLP5        0.0000 
     33 CA         49.3300   28.4195   45.7630 C.3       3 GLC5        0.0000 
     34 CA         49.8780   29.6820   47.4790 C.3       9 GLL5        0.0000 
     35 CA         48.7820   27.1570   44.0470 C.3       6 GLP5        0.0000 
     36 CA         48.4890   27.5400   45.8045 C.3       3 GLC5        0.0000 
     37 CA         48.1960   27.9230   47.5620 C.3       9 GLL5        0.0000 
     38 CA         48.1035   28.7535   45.6390 C.3       3 GLC5        0.0000 
     39 CA         48.5380   29.3010   47.3140 C.3       9 GLL5        0.0000 
     40 CA         47.6690   28.2060   43.9640 C.3       6 GLP5        0.0000 
     41 CA         49.5835   27.2410   46.0310 C.3       3 GLC5        0.0000 
     42 CA         50.3850   27.3250   48.0150 C.3       9 GLL5        0.0000 
     43 CA         48.9350   29.4023   43.8675 C.3       3 GLC5        0.0000 
     44 CA         48.2057   30.0282   44.3272 C.3       3 GLC5        0.0000 
     45 CA         49.2570   31.5740   45.0810 C.3       9 GLL5        0.0000 
     46 CA         49.9340   33.1972   44.8498 C.3       3 GLC5        0.0000 
     47 CA         50.8800   34.7520   45.1660 C.3       6 GLP5        0.0000 
     48 CA         48.1309   29.7635   43.1112 C.3       3 GLC5        0.0000 
     49 CA         47.7528   28.2955   49.2855 C.3       3 GLC5        0.0000 
     50 CA         48.0080   28.8730   51.1170 C.3       6 GLP5        0.0000 
     51 CA         48.5164   30.5824   48.9061 C.3       3 GLC5        0.0000 
     52 CA         47.7290   31.3020   50.4730 C.3       6 GLP5        0.0000 
     53 CA         49.3035   28.4333   49.5205 C.3       3 GLC5        0.0000 
     54 CA         50.8130   28.6620   47.8330 C.3       9 GLL5        0.0000 
     55 CA         49.7822   26.0628   49.4632 C.3       3 GLC5        0.0000 
     56 CA         48.7020   25.2850   50.7390 C.3       6 GLP5        0.0000 
     57 CA         53.3672   30.3072   48.7818 C.3       3 GLC5        0.0000 
     58 CA         53.1150   27.9380   48.3400 C.3       9 GLL5        0.0000 
     59 CA         54.0770   32.1800   49.3900 C.3       6 GLP5        0.0000 
     60 CA         54.0558   28.5422   46.8088 C.3       3 GLC5        0.0000 
     61 CA         52.2000   28.9310   48.0070 C.3       9 GLL5        0.0000 
     62 CA         55.4540   28.6500   45.4440 C.3       6 GLP5        0.0000 
     63 CA         54.7745   26.7305   48.2188 C.3       3 GLC5        0.0000 
     64 CA         56.6360   26.1730   48.0180 C.3       6 GLP5        0.0000 
     65 CA         52.2073   27.1505   50.3644 C.3       3 GLC5        0.0000 
     66 CA         52.2880   27.4790   52.3390 C.3       6 GLP5        0.0000 
     67 CA         45.0823   26.8440   48.7990 C.3       3 GLC5        0.0000 
     68 CA         46.7990   27.5130   47.3460 C.3       9 GLL5        0.0000 
     69 CA         43.5650   26.8480   50.2640 C.3       6 GLP5        0.0000 
     70 CA         47.1342   27.5230   45.6490 C.3       3 GLC5        0.0000 
     71 CA         46.4000   26.1670   47.3220 C.3       9 GLL5        0.0000 
     72 CA         47.0165   24.8088   46.2760 C.3       3 GLC5        0.0000 
     73 CA         48.3140   23.6080   45.3460 C.3       6 GLP5        0.0000 
     74 CA         47.8254   26.1137   49.0635 C.3       3 GLC5        0.0000 
     75 CA         44.0665   26.6013   48.6145 C.3       3 GLC5        0.0000 
     76 CA         45.0380   25.8520   47.0900 C.3       9 GLL5        0.0000 
     77 CA         44.1142   28.3115   48.4925 C.3       3 GLC5        0.0000 
     78 CA         44.4950   28.1810   46.8370 C.3       9 GLL5        0.0000 
     79 CA         43.0680   28.2740   50.0200 C.3       6 GLP5        0.0000 
     80 CA         44.8483   30.3415   46.7255 C.3       3 GLC5        0.0000 
     81 CA         44.5360   32.3340   46.4860 C.3       6 GLP5        0.0000 
     82 CA         46.4147   28.2775   45.4645 C.3       3 GLC5        0.0000 
     83 CA         45.8260   28.5170   47.0930 C.3       9 GLL5        0.0000 
     84 CA         44.6381   28.8715   45.4529 C.3       3 GLC5        0.0000 
     85 CA         44.2150   29.7250   43.9400 C.3       6 GLP5        0.0000 
@<TRIPOS>BOND
@<TRIPOS>SUBSTRUCTURE
     1 SEC2        9 GROUP        1 X    SEC  0     ROOT SEC X 2
     2 ZIC7        4 GROUP        1 X    ZIC  0     **** ZIC X 5
     3 GLC5        1 GROUP        1 X    GLC  0     **** GLC X 6
     4 SEP2       11 GROUP        1 Y    SEP  0     ROOT SEP Y 9
     5 ZIP7        6 GROUP        1 Y    ZIP  0     **** ZIP Y 12
     6 GLP5        3 GROUP        1 Y    GLP  0     **** GLP Y 13
     7 SEL2       10 GROUP        1 Z    SEL  0     ROOT SEL Z 16
     8 ZIL7        5 GROUP        1 Z    ZIL  0     **** ZIL Z 19
     9 GLL5        2 GROUP        1 Z    GLL  0     **** GLL Z 20
@<TRIPOS>SET

