#    Name: 3ewj_642_2_ligand
#    Modification time : Tue Mar 25 02:36:19 2014

@<TRIPOS>MOLECULE
3ewj_642_2_ligand
   58    63     1     0     0
SMALL
NO_CHARGES


@<TRIPOS>ATOM
      1 C1         48.3220   34.1510   39.5790 C.3       1 6421        0.0000 
      2 C2         48.3980   32.6310   39.5670 C.3       1 6421        0.0000 
      3 C3         48.3980   33.4070   38.2620 C.3       1 6421        0.0000 
      4 C4         49.4750   34.9150   40.1700 C.2       1 6421        0.0000 
      5 O1         50.6700   34.3040   39.9480 O.co2     1 6421        0.0000 
      6 O2         49.4350   35.9670   40.8560 O.co2     1 6421        0.0000 
      7 C5         47.1830   31.8040   39.8720 C.2       1 6421        0.0000 
      8 N1         47.5150   30.6990   40.5540 N.am      1 6421        0.0000 
      9 O3         46.0630   32.1100   39.5240 O.2       1 6421        0.0000 
     10 C6         48.9610   30.6530   40.8380 C.3       1 6421        0.0000 
     11 C7         49.5960   31.7490   39.9430 C.3       1 6421        0.0000 
     12 C8         49.1120   30.9790   42.3220 C.ar      1 6421        0.0000 
     13 C9         50.1630   30.4550   43.0890 C.ar      1 6421        0.0000 
     14 C10        50.2390   30.7420   44.4530 C.ar      1 6421        0.0000 
     15 C11        49.2570   31.5740   45.0810 C.ar      1 6421        0.0000 
     16 C12        48.2280   32.1270   44.3000 C.ar      1 6421        0.0000 
     17 C13        48.1490   31.8260   42.9370 C.ar      1 6421        0.0000 
     18 O4         49.2970   31.8520   46.4360 O.3       1 6421        0.0000 
     19 C14        50.2610   31.1670   47.2500 C.3       1 6421        0.0000 
     20 C15        49.8780   29.6820   47.4790 C.ar      1 6421        0.0000 
     21 N2         49.1090   26.9690   47.9050 N.ar      1 6421        0.0000 
     22 C16        48.1960   27.9230   47.5620 C.ar      1 6421        0.0000 
     23 C17        48.5380   29.3010   47.3140 C.ar      1 6421        0.0000 
     24 C18        50.3850   27.3250   48.0150 C.ar      1 6421        0.0000 
     25 C19        50.8130   28.6620   47.8330 C.ar      1 6421        0.0000 
     26 C20        52.2000   28.9310   48.0070 C.ar      1 6421        0.0000 
     27 C21        53.1150   27.9380   48.3400 C.ar      1 6421        0.0000 
     28 C22        52.7110   26.6380   48.4990 C.ar      1 6421        0.0000 
     29 C23        51.3400   26.3560   48.3600 C.ar      1 6421        0.0000 
     30 C24        46.7990   27.5130   47.3460 C.ar      1 6421        0.0000 
     31 C25        46.4000   26.1670   47.3220 C.ar      1 6421        0.0000 
     32 C26        45.0380   25.8520   47.0900 C.ar      1 6421        0.0000 
     33 C27        44.0980   26.8570   46.8400 C.ar      1 6421        0.0000 
     34 C28        44.4950   28.1810   46.8370 C.ar      1 6421        0.0000 
     35 C29        45.8260   28.5170   47.0930 C.ar      1 6421        0.0000 
     36 H          47.3595   34.3465   39.7194 H         1 6421        0.0000 
     37 H          49.2924   33.4526   37.9518 H         1 6421        0.0000 
     38 H          47.5234   33.3646   37.8995 H         1 6421        0.0000 
     39 H          46.9376   29.9849   40.8534 H         1 6421        0.0000 
     40 H          49.3617   29.7237   40.6115 H         1 6421        0.0000 
     41 H          50.2898   32.3048   40.5103 H         1 6421        0.0000 
     42 H          50.0013   31.3023   39.0779 H         1 6421        0.0000 
     43 H          50.8722   29.8629   42.6461 H         1 6421        0.0000 
     44 H          51.0000   30.3606   45.0251 H         1 6421        0.0000 
     45 H          47.5387   32.7491   44.7315 H         1 6421        0.0000 
     46 H          47.3907   32.2158   42.3640 H         1 6421        0.0000 
     47 H          50.3596   31.6334   48.2441 H         1 6421        0.0000 
     48 H          51.2628   31.1762   46.7898 H         1 6421        0.0000 
     49 H          47.8291   29.9515   47.0337 H         1 6421        0.0000 
     50 H          52.5271   29.9094   47.8775 H         1 6421        0.0000 
     51 H          54.1118   28.1929   48.4675 H         1 6421        0.0000 
     52 H          53.3649   25.8928   48.7098 H         1 6421        0.0000 
     53 H          51.0169   25.3734   48.5223 H         1 6421        0.0000 
     54 H          47.0762   25.4224   47.4688 H         1 6421        0.0000 
     55 H          44.7437   24.8652   47.1074 H         1 6421        0.0000 
     56 H          43.1194   26.6049   46.6604 H         1 6421        0.0000 
     57 H          43.8109   28.9276   46.6458 H         1 6421        0.0000 
     58 H          46.1173   29.5045   47.1009 H         1 6421        0.0000 
@<TRIPOS>BOND
     1    2    1 1    
     2    3    1 1    
     3    4    1 1    
     4   36    1 1    
     5    3    2 1    
     6    7    2 1    
     7   11    2 1    
     8   37    3 1    
     9   38    3 1    
    10    5    4 ar   
    11    6    4 ar   
    12    8    7 am   
    13    9    7 2    
    14   10    8 1    
    15   39    8 1    
    16   11   10 1    
    17   12   10 1    
    18   40   10 1    
    19   41   11 1    
    20   42   11 1    
    21   13   12 ar   
    22   17   12 ar   
    23   14   13 ar   
    24   43   13 1    
    25   15   14 ar   
    26   44   14 1    
    27   16   15 ar   
    28   18   15 1    
    29   17   16 ar   
    30   45   16 1    
    31   46   17 1    
    32   19   18 1    
    33   20   19 1    
    34   47   19 1    
    35   48   19 1    
    36   23   20 ar   
    37   25   20 ar   
    38   22   21 ar   
    39   24   21 ar   
    40   23   22 ar   
    41   30   22 1    
    42   49   23 1    
    43   25   24 ar   
    44   29   24 ar   
    45   26   25 ar   
    46   27   26 ar   
    47   50   26 1    
    48   28   27 ar   
    49   51   27 1    
    50   29   28 ar   
    51   52   28 1    
    52   53   29 1    
    53   31   30 ar   
    54   35   30 ar   
    55   32   31 ar   
    56   54   31 1    
    57   33   32 ar   
    58   55   32 1    
    59   34   33 ar   
    60   56   33 1    
    61   35   34 ar   
    62   57   34 1    
    63   58   35 1    
@<TRIPOS>SUBSTRUCTURE
     1 6421        1 GROUP   
@<TRIPOS>SET

