#    Name: 1tqf_32P_1_INTS_M
#    Modification time : Tue Mar 25 05:34:53 2014

@<TRIPOS>MOLECULE
1tqf_32P_1_INTS_M
   96     0     9     0     0
SMALL
NO_CHARGES


@<TRIPOS>ATOM
      1 N          26.0825   45.7045    3.6910 N.am      2 SEC2        0.0000 
      2 N          26.3500   45.5060    2.1580 N.am      8 SEL2        0.0000 
      3 N          25.8150   45.9030    5.2240 N.am      5 SEP2        0.0000 
      4 CA         27.3360   41.2755   -0.7650 C.3       3 GLC5        0.0000 
      5 CA         27.9110   42.4880    0.5710 C.3       9 GLL5        0.0000 
      6 CA         26.7610   40.0630   -2.1010 C.3       6 GLP5        0.0000 
      7 CA         28.4185   40.4055   -0.2710 C.3       3 GLC5        0.0000 
      8 CA         29.0410   41.7640    1.0760 C.3       9 GLL5        0.0000 
      9 CA         27.7960   39.0470   -1.6180 C.3       6 GLP5        0.0000 
     10 CA         28.7755   45.8285    2.7855 C.3       3 GLC5        0.0000 
     11 CA         29.0560   44.6430    1.0390 C.3       9 GLL5        0.0000 
     12 CA         28.4950   47.0140    4.5320 C.3       6 GLP5        0.0000 
     13 N          27.4650   39.9525    1.4105 N.am      2 SEC2        0.0000 
     14 N          28.9570   40.3800    0.9750 N.am      8 SEL2        0.0000 
     15 N          25.9730   39.5250    1.8460 N.am      5 SEP2        0.0000 
     16 CA         28.8255   39.2680    0.0310 C.3       3 GLC5        0.0000 
     17 CA         29.8550   39.4890    1.6800 C.3       9 GLL5        0.0000 
     18 CA         28.6305   40.4390    3.2795 C.3       3 GLC5        0.0000 
     19 CA         27.4060   41.3890    4.8790 C.3       6 GLP5        0.0000 
     20 O          31.4970   38.3765    2.9785 O.2       1 ALC1        0.0000 
     21 O          32.1790   38.9480    1.8100 O.2       7 ALL1        0.0000 
     22 O          30.8150   37.8050    4.1470 O.2       4 ALP1        0.0000 
     23 N          30.9230   39.9395   -1.5920 N.am      2 SEC2        0.0000 
     24 N          31.3680   39.8700   -0.1400 N.am      8 SEL2        0.0000 
     25 N          30.4780   40.0090   -3.0440 N.am      5 SEP2        0.0000 
     26 O          31.7405   42.9455    3.7225 O.2       1 ALC1        0.0000 
     27 O          32.0960   44.1180    3.0160 O.2       7 ALL1        0.0000 
     28 O          31.3850   41.7730    4.4290 O.2       4 ALP1        0.0000 
     29 CA         35.4345   42.4170    4.3485 C.3       3 GLC5        0.0000 
     30 CA         34.3680   44.0050    3.8410 C.3       9 GLL5        0.0000 
     31 CA         36.5010   40.8290    4.8560 C.3       6 GLP5        0.0000 
     32 CA         36.2000   43.7910    3.0550 C.3       3 GLC5        0.0000 
     33 CA         38.0320   43.5770    2.2690 C.3       6 GLP5        0.0000 
     34 CA         35.9780   39.7915   -0.2030 C.3       3 GLC5        0.0000 
     35 CA         34.6720   41.2220    0.1430 C.3       9 GLL5        0.0000 
     36 CA         37.2840   38.3610   -0.5490 C.3       6 GLP5        0.0000 
     37 CA         33.5440   37.1390    0.8065 C.3       3 GLC5        0.0000 
     38 CA         33.5440   38.6830    1.3730 C.3       9 GLL5        0.0000 
     39 CA         33.5440   35.5950    0.2400 C.3       6 GLP5        0.0000 
     40 O          34.1540   41.7685   -2.5155 O.2       1 ALC1        0.0000 
     41 O          34.7350   42.7940   -1.7160 O.2       7 ALL1        0.0000 
     42 O          33.5730   40.7430   -3.3150 O.2       4 ALP1        0.0000 
     43 O          36.1565   42.8065   -1.7990 O.2       1 ALC1        0.0000 
     44 O          37.5780   42.8190   -1.8820 O.2       4 ALP1        0.0000 
     45 CA         35.0955   44.4690    0.2535 C.3       3 GLC5        0.0000 
     46 CA         34.4590   42.6720   -0.2750 C.3       9 GLL5        0.0000 
     47 CA         35.7320   46.2660    0.7820 C.3       6 GLP5        0.0000 
     48 CA         32.0825   42.4940    6.2595 C.3       3 GLC5        0.0000 
     49 CA         32.2830   44.4750    6.1330 C.3       9 GLL5        0.0000 
     50 CA         31.8820   40.5130    6.3860 C.3       6 GLP5        0.0000 
     51 CA         30.5000   43.3340    5.6050 C.3       3 GLC5        0.0000 
     52 CA         28.7170   42.1930    5.0770 C.3       6 GLP5        0.0000 
     53 CA         30.5670   46.9245    4.8385 C.3       3 GLC5        0.0000 
     54 CA         32.6390   46.8350    5.1450 C.3       9 GLL5        0.0000 
     55 CA         30.3240   47.9010    5.7720 C.3       3 GLC5        0.0000 
     56 CA         32.2320   47.4130    6.3880 C.3       9 GLL5        0.0000 
     57 CA         28.4160   48.3890    5.1560 C.3       6 GLP5        0.0000 
     58 CA         32.2890   46.9820   10.1040 C.3       3 GLC5        0.0000 
     59 CA         31.5670   47.0590    8.6200 C.3       9 GLL5        0.0000 
     60 CA         33.0110   46.9050   11.5880 C.3       6 GLP5        0.0000 
     61 CA         28.3863   47.8208    2.7620 C.3       3 GLC5        0.0000 
     62 CA         28.9440   48.9120    0.9340 C.3       9 GLL5        0.0000 
     63 CA         28.9773   43.0230   -0.8185 C.3       3 GLC5        0.0000 
     64 CA         27.9080   43.9220    0.5350 C.3       9 GLL5        0.0000 
     65 CA         30.0450   42.8410   -2.1900 C.3       6 GLP5        0.0000 
     66 CA         27.1047   42.7420    2.4320 C.3       3 GLC5        0.0000 
     67 CA         26.3000   42.2790    4.3110 C.3       6 GLP5        0.0000 
     68 CA         29.8253   42.4887   -0.4335 C.3       3 GLC5        0.0000 
     69 CA         29.8353   43.5670   -0.4432 C.3       3 GLC5        0.0000 
     70 CA         30.1950   43.9430    1.5680 C.3       9 GLL5        0.0000 
     71 CA         29.3086   42.6164    3.2612 C.3       3 GLC5        0.0000 
     72 CA         34.7960   45.2085    5.4057 C.3       3 GLC5        0.0000 
     73 CA         33.1220   44.8870    3.7140 C.3       9 GLL5        0.0000 
     74 CA         35.8470   45.9710    7.0340 C.3       6 GLP5        0.0000 
     75 CA         34.7385   45.3560    2.2797 C.3       3 GLC5        0.0000 
     76 CA         32.9652   42.0970   -1.3460 C.3       3 GLC5        0.0000 
     77 CA         31.3650   42.2470   -2.6260 C.3       6 GLP5        0.0000 
     78 CA         35.4870   40.5710    3.3512 C.3       3 GLC5        0.0000 
     79 CA         34.3900   41.0360    1.6310 C.3       9 GLL5        0.0000 
     80 CA         35.6670   38.7488    0.5842 C.3       3 GLC5        0.0000 
     81 CA         34.5560   39.5900    2.0620 C.3       9 GLL5        0.0000 
     82 CA         35.3695   38.0547    2.6113 C.3       3 GLC5        0.0000 
     83 CA         36.6890   36.9730    3.5050 C.3       6 GLP5        0.0000 
     84 CA         36.4720   42.1757    0.9530 C.3       3 GLC5        0.0000 
     85 CA         38.4490   42.4510    1.6000 C.3       6 GLP5        0.0000 
     86 CA         34.1612   45.4505    6.3097 C.3       3 GLC5        0.0000 
     87 CA         32.6680   45.3850    5.0380 C.3       9 GLL5        0.0000 
     88 CA         33.9828   48.1115    5.3387 C.3       3 GLC5        0.0000 
     89 CA         35.5300   49.0990    4.9110 C.3       6 GLP5        0.0000 
     90 CA         34.1412   46.5475    6.4002 C.3       3 GLC5        0.0000 
     91 CA         33.8792   45.8760    7.2325 C.3       3 GLC5        0.0000 
     92 CA         31.9080   46.5040    7.4680 C.3       9 GLL5        0.0000 
     93 CA         30.1043   45.7786    6.3524 C.3       3 GLC5        0.0000 
     94 CA         28.2050   45.9220    5.5890 C.3       6 GLP5        0.0000 
     95 CA         30.2916   46.2730    8.8632 C.3       3 GLC5        0.0000 
     96 CA         28.8440   46.1260    9.7010 C.3       6 GLP5        0.0000 
@<TRIPOS>BOND
@<TRIPOS>SUBSTRUCTURE
     1 ALC1       20 GROUP        1 X    ALC  0     ROOT ALC X 1
     2 SEC2        1 GROUP        1 X    SEC  0     **** SEC X 2
     3 GLC5        4 GROUP        1 X    GLC  0     **** GLC X 6
     4 ALP1       22 GROUP        1 Y    ALP  0     ROOT ALP Y 8
     5 SEP2        3 GROUP        1 Y    SEP  0     **** SEP Y 9
     6 GLP5        6 GROUP        1 Y    GLP  0     **** GLP Y 13
     7 ALL1       21 GROUP        1 Z    ALL  0     ROOT ALL Z 15
     8 SEL2        2 GROUP        1 Z    SEL  0     **** SEL Z 16
     9 GLL5        5 GROUP        1 Z    GLL  0     **** GLL Z 20
@<TRIPOS>SET

