#    Name: 1tqf_32P_1_ligand
#    Modification time : Tue Mar 25 05:34:53 2014

@<TRIPOS>MOLECULE
1tqf_32P_1_ligand
   75    77     1     0     0
SMALL
NO_CHARGES


@<TRIPOS>ATOM
      1 C1         29.1450   47.9380   -1.4330 C.ar      1 32P401      0.0000 
      2 C2         29.6830   48.6860   -0.3040 C.ar      1 32P401      0.0000 
      3 C3         28.9440   48.9120    0.9340 C.ar      1 32P401      0.0000 
      4 C4         27.6110   48.3430    1.0500 C.ar      1 32P401      0.0000 
      5 C5         27.0730   47.5700   -0.0740 C.ar      1 32P401      0.0000 
      6 C6         27.8150   47.3690   -1.3180 C.ar      1 32P401      0.0000 
      7 S1         25.7840   45.3610    0.8680 S.o2      1 32P401      0.0000 
      8 O1         26.8070   44.5430   -0.0520 O.3       1 32P401      0.0000 
      9 O2         24.4800   44.7680    0.7460 O.2       1 32P401      0.0000 
     10 O3         26.3500   45.5060    2.1580 O.2       1 32P401      0.0000 
     11 C7         25.7000   46.9510    0.0570 C.3       1 32P401      0.0000 
     12 C8         27.9080   43.9220    0.5350 C.ar      1 32P401      0.0000 
     13 C9         27.9110   42.4880    0.5710 C.ar      1 32P401      0.0000 
     14 C10        29.0410   41.7640    1.0760 C.ar      1 32P401      0.0000 
     15 C11        30.1700   42.5090    1.5700 C.ar      1 32P401      0.0000 
     16 C12        30.1950   43.9430    1.5680 C.ar      1 32P401      0.0000 
     17 C13        29.0560   44.6430    1.0390 C.ar      1 32P401      0.0000 
     18 O4         28.9570   40.3800    0.9750 O.3       1 32P401      0.0000 
     19 C14        31.3560   44.7110    2.0600 C.2       1 32P401      0.0000 
     20 C15        29.8550   39.4890    1.6800 C.3       1 32P401      0.0000 
     21 C16        31.2210   39.4660    1.0150 C.2       1 32P401      0.0000 
     22 N1         32.1790   38.9480    1.8100 N.am      1 32P401      0.0000 
     23 O5         31.3680   39.8700   -0.1400 O.2       1 32P401      0.0000 
     24 N2         32.0960   44.1180    3.0160 N.am      1 32P401      0.0000 
     25 O6         31.6650   45.8270    1.6380 O.2       1 32P401      0.0000 
     26 C17        33.1220   44.8870    3.7140 C.3       1 32P401      0.0000 
     27 C18        34.3680   44.0050    3.8410 C.3       1 32P401      0.0000 
     28 C19        34.6720   41.2220    0.1430 C.3       1 32P401      0.0000 
     29 C20        34.3900   41.0360    1.6310 C.3       1 32P401      0.0000 
     30 C21        34.5560   39.5900    2.0620 C.3       1 32P401      0.0000 
     31 C22        33.5440   38.6830    1.3730 C.3       1 32P401      0.0000 
     32 N3         34.7350   42.7940   -1.7160 N.4       1 32P401      0.0000 
     33 C23        34.4590   42.6720   -0.2750 C.3       1 32P401      0.0000 
     34 C24        32.2830   44.4750    6.1330 C.ar      1 32P401      0.0000 
     35 C25        32.6680   45.3850    5.0380 C.ar      1 32P401      0.0000 
     36 C26        32.6390   46.8350    5.1450 C.ar      1 32P401      0.0000 
     37 C27        32.2320   47.4130    6.3880 C.ar      1 32P401      0.0000 
     38 C28        31.9080   46.5040    7.4680 C.ar      1 32P401      0.0000 
     39 C29        31.9150   45.0580    7.3940 C.ar      1 32P401      0.0000 
     40 F1         31.5670   47.0590    8.6200 F         1 32P401      0.0000 
     41 H          29.6811   47.8213   -2.2650 H         1 32P401      0.0000 
     42 H          30.6337   49.0756   -0.3830 H         1 32P401      0.0000 
     43 H          29.3422   49.4395    1.6744 H         1 32P401      0.0000 
     44 H          27.0687   48.4727    1.8755 H         1 32P401      0.0000 
     45 H          27.4117   46.8518   -2.0674 H         1 32P401      0.0000 
     46 H          25.2451   46.7140   -0.8822 H         1 32P401      0.0000 
     47 H          25.0385   47.5050    0.6900 H         1 32P401      0.0000 
     48 H          27.0958   41.9751    0.2318 H         1 32P401      0.0000 
     49 H          30.9816   41.9951    1.9347 H         1 32P401      0.0000 
     50 H          29.0540   45.6608    1.0173 H         1 32P401      0.0000 
     51 H          29.4628   38.4630    1.6932 H         1 32P401      0.0000 
     52 H          29.9869   39.8063    2.7233 H         1 32P401      0.0000 
     53 H          31.9726   38.7054    2.8141 H         1 32P401      0.0000 
     54 H          31.9795   43.1394    3.2882 H         1 32P401      0.0000 
     55 H          33.4109   45.7431    3.0886 H         1 32P401      0.0000 
     56 H          34.0052   40.5795   -0.4319 H         1 32P401      0.0000 
     57 H          35.7023   40.9343   -0.0659 H         1 32P401      0.0000 
     58 H          33.3674   41.3630    1.8443 H         1 32P401      0.0000 
     59 H          35.0753   41.6668    2.2059 H         1 32P401      0.0000 
     60 H          34.4239   39.5170    3.1446 H         1 32P401      0.0000 
     61 H          35.5659   39.2521    1.8158 H         1 32P401      0.0000 
     62 H          33.6401   38.8284    0.2836 H         1 32P401      0.0000 
     63 H          33.8243   37.6366    1.5819 H         1 32P401      0.0000 
     64 H          35.1316   43.3023    0.3007 H         1 32P401      0.0000 
     65 H          33.4317   42.9502   -0.0547 H         1 32P401      0.0000 
     66 H          32.2836   43.4946    5.9864 H         1 32P401      0.0000 
     67 H          32.8983   47.4019    4.3654 H         1 32P401      0.0000 
     68 H          32.1713   48.3955    6.5141 H         1 32P401      0.0000 
     69 H          31.6773   44.5030    8.1761 H         1 32P401      0.0000 
     70 H          34.7186   43.7266    2.9468 H         1 32P401      0.0000 
     71 H          35.1117   44.4785    4.3130 H         1 32P401      0.0000 
     72 H          34.1800   43.1684    4.3556 H         1 32P401      0.0000 
     73 H          34.5271   41.9479   -2.2069 H         1 32P401      0.0000 
     74 H          34.1910   43.5191   -2.1382 H         1 32P401      0.0000 
     75 H          35.6958   43.0073   -1.8934 H         1 32P401      0.0000 
@<TRIPOS>BOND
     1    2    1 ar   
     2    6    1 ar   
     3   41    1 1    
     4    3    2 ar   
     5   42    2 1    
     6    4    3 ar   
     7   43    3 1    
     8    5    4 ar   
     9   44    4 1    
    10    6    5 ar   
    11   11    5 1    
    12   45    6 1    
    13    8    7 1    
    14    9    7 2    
    15   10    7 2    
    16   11    7 1    
    17   12    8 1    
    18   46   11 1    
    19   47   11 1    
    20   13   12 ar   
    21   17   12 ar   
    22   14   13 ar   
    23   48   13 1    
    24   15   14 ar   
    25   18   14 1    
    26   16   15 ar   
    27   49   15 1    
    28   17   16 ar   
    29   19   16 1    
    30   50   17 1    
    31   20   18 1    
    32   24   19 am   
    33   25   19 2    
    34   21   20 1    
    35   51   20 1    
    36   52   20 1    
    37   22   21 am   
    38   23   21 2    
    39   31   22 1    
    40   53   22 1    
    41   26   24 1    
    42   54   24 1    
    43   27   26 1    
    44   35   26 1    
    45   55   26 1    
    46   70   27 1    
    47   71   27 1    
    48   72   27 1    
    49   29   28 1    
    50   33   28 1    
    51   56   28 1    
    52   57   28 1    
    53   30   29 1    
    54   58   29 1    
    55   59   29 1    
    56   31   30 1    
    57   60   30 1    
    58   61   30 1    
    59   62   31 1    
    60   63   31 1    
    61   33   32 1    
    62   73   32 1    
    63   74   32 1    
    64   75   32 1    
    65   64   33 1    
    66   65   33 1    
    67   35   34 ar   
    68   39   34 ar   
    69   66   34 1    
    70   36   35 ar   
    71   37   36 ar   
    72   67   36 1    
    73   38   37 ar   
    74   68   37 1    
    75   39   38 ar   
    76   40   38 1    
    77   69   39 1    
@<TRIPOS>SUBSTRUCTURE
     1 32P401      1 GROUP   
@<TRIPOS>SET

