#    Name: 2y5k_YCU_2_INTS_M
#    Modification time : Tue Mar 25 07:37:19 2014

@<TRIPOS>MOLECULE
2y5k_YCU_2_INTS_M
   67     0     9     0     0
SMALL
NO_CHARGES


@<TRIPOS>ATOM
      1 CA         34.7650    5.0565   35.6905 C.3       3 GLC5        0.0000 
      2 CA         33.5660    3.6160   35.3590 C.3       9 GLL5        0.0000 
      3 CA         35.9640    6.4970   36.0220 C.3       6 GLP5        0.0000 
      4 O          32.1780    1.1900   38.5935 O.2       1 ALC1        0.0000 
      5 O          32.5790    2.5490   37.7060 O.2       7 ALL1        0.0000 
      6 O          31.7770   -0.1690   39.4810 O.2       4 ALP1        0.0000 
      7 CA         29.7425    2.2550   36.6680 C.3       3 GLC5        0.0000 
      8 CA         29.1500    2.1390   38.7950 C.3       9 GLL5        0.0000 
      9 CA         30.3350    2.3710   34.5410 C.3       6 GLP5        0.0000 
     10 CA         30.7925    3.2835   39.7090 C.3       3 GLC5        0.0000 
     11 CA         32.4350    4.4280   40.6230 C.3       6 GLP5        0.0000 
     12 O          31.1390    0.9320   38.9660 O.2       1 ALC1        0.0000 
     13 O          30.5010    2.0330   38.4510 O.2       7 ALL1        0.0000 
     14 O          25.4370   -0.1460   40.1085 O.2       1 ALC1        0.0000 
     15 O          26.7210   -0.1630   40.0540 O.2       7 ALL1        0.0000 
     16 O          24.1530   -0.1290   40.1630 O.2       4 ALP1        0.0000 
     17 CA         24.8060    2.1645   40.4615 C.3       3 GLC5        0.0000 
     18 CA         26.5320    2.1810   39.5870 C.3       9 GLL5        0.0000 
     19 CA         23.0800    2.1480   41.3360 C.3       6 GLP5        0.0000 
     20 N          33.4360    6.2085   37.4635 N.am      2 SEC2        0.0000 
     21 N          33.5790    4.7790   37.6390 N.am      8 SEL2        0.0000 
     22 N          33.2930    7.6380   37.2880 N.am      5 SEP2        0.0000 
     23 N          30.7330    5.3135   37.0770 N.am      2 SEC2        0.0000 
     24 N          30.9180    4.0860   37.5970 N.am      8 SEL2        0.0000 
     25 N          30.5480    6.5410   36.5570 N.am      5 SEP2        0.0000 
     26 O          30.2635   -0.7715   39.8845 O.2       1 ALC1        0.0000 
     27 O          28.7500   -1.3740   40.2880 O.2       7 ALL1        0.0000 
     28 CA         31.7450    3.3325   30.8825 C.3       3 GLC5        0.0000 
     29 CA         33.7140    3.0050   31.4440 C.3       9 GLL5        0.0000 
     30 CA         29.7760    3.6600   30.3210 C.3       6 GLP5        0.0000 
     31 CA         34.1215    4.8810   30.4750 C.3       3 GLC5        0.0000 
     32 CA         34.5290    6.7570   29.5060 C.3       6 GLP5        0.0000 
     33 CA         31.3380    6.8865   33.0730 C.3       3 GLC5        0.0000 
     34 CA         32.0720    5.3530   32.4580 C.3       9 GLL5        0.0000 
     35 CA         30.6040    8.4200   33.6880 C.3       6 GLP5        0.0000 
     36 CA         32.4580    6.1080   30.6505 C.3       3 GLC5        0.0000 
     37 CA         32.8440    6.8630   28.8430 C.3       6 GLP5        0.0000 
     38 CA         30.3915   -2.9690   38.6570 C.3       3 GLC5        0.0000 
     39 CA         29.4530   -2.6180   40.6350 C.3       9 GLL5        0.0000 
     40 CA         31.3300   -3.3200   36.6790 C.3       6 GLP5        0.0000 
     41 CA         24.7905    6.2780   38.8005 C.3       3 GLC5        0.0000 
     42 CA         25.1770    4.6100   39.7900 C.3       9 GLL5        0.0000 
     43 CA         24.4040    7.9460   37.8110 C.3       6 GLP5        0.0000 
     44 CA         24.1285    3.3790   40.5630 C.3       3 GLC5        0.0000 
     45 CA         24.2540    6.0355   40.5560 C.3       3 GLC5        0.0000 
     46 CA         23.3310    7.4610   41.3220 C.3       6 GLP5        0.0000 
     47 CA         36.3240    4.6550   28.4510 C.3       3 GLC5        0.0000 
     48 CA         36.9310    3.2000   29.7310 C.3       9 GLL5        0.0000 
     49 CA         35.7170    6.1100   27.1710 C.3       6 GLP5        0.0000 
     50 CA         37.2045    2.4120   27.7005 C.3       3 GLC5        0.0000 
     51 CA         37.4780    1.6240   25.6700 C.3       6 GLP5        0.0000 
     52 CA         33.5800    0.9855   33.3412 C.3       3 GLC5        0.0000 
     53 CA         34.2930    2.5060   34.2230 C.3       9 GLL5        0.0000 
     54 CA         33.2430   -0.9700   33.1260 C.3       6 GLP5        0.0000 
     55 CA         35.0785    4.4815   33.5553 C.3       3 GLC5        0.0000 
     56 CA         36.2400    6.0220   33.5540 C.3       6 GLP5        0.0000 
     57 CA         32.0351    2.7948   34.1907 C.3       3 GLC5        0.0000 
     58 CA         33.5410    3.3760   32.8900 C.3       9 GLL5        0.0000 
     59 CA         31.1115    4.2698   31.6122 C.3       3 GLC5        0.0000 
     60 CA         32.8220    4.4060   33.3490 C.3       9 GLL5        0.0000 
     61 CA         33.8417    0.9133   32.2338 C.3       3 GLC5        0.0000 
     62 CA         35.3403    4.4093   32.4477 C.3       3 GLC5        0.0000 
     63 CA         31.3923    3.6419   33.8942 C.3       3 GLC5        0.0000 
     64 CA         32.8320    4.5390   34.7250 C.3       9 GLL5        0.0000 
     65 CA         34.3448    5.4674   33.4008 C.3       3 GLC5        0.0000 
     66 CA         26.5899    1.4908   38.0697 C.3       3 GLC5        0.0000 
     67 CA         25.7430    0.6550   36.8610 C.3       6 GLP5        0.0000 
@<TRIPOS>BOND
@<TRIPOS>SUBSTRUCTURE
     1 ALC1        4 GROUP        1 X    ALC  0     ROOT ALC X 1
     2 SEC2       20 GROUP        1 X    SEC  0     **** SEC X 2
     3 GLC5        1 GROUP        1 X    GLC  0     **** GLC X 6
     4 ALP1        6 GROUP        1 Y    ALP  0     ROOT ALP Y 8
     5 SEP2       22 GROUP        1 Y    SEP  0     **** SEP Y 9
     6 GLP5        3 GROUP        1 Y    GLP  0     **** GLP Y 13
     7 ALL1        5 GROUP        1 Z    ALL  0     ROOT ALL Z 15
     8 SEL2       21 GROUP        1 Z    SEL  0     **** SEL Z 16
     9 GLL5        2 GROUP        1 Z    GLL  0     **** GLL Z 20
@<TRIPOS>SET

