#    Name: 2y5k_YCU_2_ligand
#    Modification time : Tue Mar 25 07:37:19 2014

@<TRIPOS>MOLECULE
2y5k_YCU_2_ligand
   53    54     1     0     0
SMALL
NO_CHARGES


@<TRIPOS>ATOM
      1 S1         33.7890    3.4800   37.0860 S.o2      1 YCU1336     0.0000 
      2 C2         33.5660    3.6160   35.3590 C.2       1 YCU1336     0.0000 
      3 N3         32.5790    2.5490   37.7060 N.am      1 YCU1336     0.0000 
      4 S4         34.2930    2.5060   34.2230 S.3       1 YCU1336     0.0000 
      5 C5         31.3120    2.9660   37.9010 C.2       1 YCU1336     0.0000 
      6 C6         29.1500    2.1390   38.7950 C.ar      1 YCU1336     0.0000 
      7 C7         27.2970    1.0260   39.6240 C.ar      1 YCU1336     0.0000 
      8 C8         32.8320    4.5390   34.7250 C.2       1 YCU1336     0.0000 
      9 N9         28.5570    1.0420   39.2380 N.ar      1 YCU1336     0.0000 
     10 C10        33.5410    3.3760   32.8900 C.2       1 YCU1336     0.0000 
     11 N11        30.5010    2.0330   38.4510 N.am      1 YCU1336     0.0000 
     12 N12        26.7210   -0.1630   40.0540 N.am      1 YCU1336     0.0000 
     13 C13        32.8220    4.4060   33.3490 C.2       1 YCU1336     0.0000 
     14 C14        27.4070   -1.2880   40.3560 C.2       1 YCU1336     0.0000 
     15 C15        28.4560    3.3350   38.7370 C.ar      1 YCU1336     0.0000 
     16 C16        26.5320    2.1810   39.5870 C.ar      1 YCU1336     0.0000 
     17 O17        34.9950    2.7470   37.2920 O.2       1 YCU1336     0.0000 
     18 O18        33.5790    4.7790   37.6390 O.2       1 YCU1336     0.0000 
     19 C19        27.1150    3.3620   39.1370 C.ar      1 YCU1336     0.0000 
     20 O20        30.9180    4.0860   37.5970 O.2       1 YCU1336     0.0000 
     21 O21        26.7780   -2.2560   40.7090 O.2       1 YCU1336     0.0000 
     22 N22        28.7500   -1.3740   40.2880 N.am      1 YCU1336     0.0000 
     23 C23        33.7140    3.0050   31.4440 C.3       1 YCU1336     0.0000 
     24 O24        26.4030    4.5230   39.0730 O.3       1 YCU1336     0.0000 
     25 C25        32.0720    5.3530   32.4580 C.3       1 YCU1336     0.0000 
     26 O26        35.5370    2.9070   29.8940 O.3       1 YCU1336     0.0000 
     27 C27        35.1670    2.5880   31.2390 C.3       1 YCU1336     0.0000 
     28 C28        29.4530   -2.6180   40.6350 C.3       1 YCU1336     0.0000 
     29 C29        25.1770    4.6100   39.7900 C.3       1 YCU1336     0.0000 
     30 C30        36.9310    3.2000   29.7310 C.3       1 YCU1336     0.0000 
     31 H          32.9329    1.5992   37.9235 H         1 YCU1336     0.0000 
     32 H          32.3279    5.2683   35.1852 H         1 YCU1336     0.0000 
     33 H          30.9490    1.0553   38.6618 H         1 YCU1336     0.0000 
     34 H          25.6565   -0.1738   40.1481 H         1 YCU1336     0.0000 
     35 H          28.9091    4.1889   38.4083 H         1 YCU1336     0.0000 
     36 H          25.5547    2.1686   39.8849 H         1 YCU1336     0.0000 
     37 H          29.3435   -0.5823   39.9932 H         1 YCU1336     0.0000 
     38 H          33.4963    3.8542   30.8143 H         1 YCU1336     0.0000 
     39 H          33.0684    2.1770   31.1934 H         1 YCU1336     0.0000 
     40 H          35.2420    1.5194   31.4375 H         1 YCU1336     0.0000 
     41 H          35.7770    3.1241   31.9653 H         1 YCU1336     0.0000 
     42 H          32.3984    6.2931   32.5567 H         1 YCU1336     0.0000 
     43 H          32.1677    5.1094   31.4929 H         1 YCU1336     0.0000 
     44 H          31.0933    5.3595   32.6631 H         1 YCU1336     0.0000 
     45 H          30.4434   -2.5262   40.5316 H         1 YCU1336     0.0000 
     46 H          29.2811   -2.8900   41.5818 H         1 YCU1336     0.0000 
     47 H          29.1671   -3.3804   40.0545 H         1 YCU1336     0.0000 
     48 H          25.3111    4.4790   40.7723 H         1 YCU1336     0.0000 
     49 H          24.7391    5.5010   39.6702 H         1 YCU1336     0.0000 
     50 H          24.5208    3.9181   39.4889 H         1 YCU1336     0.0000 
     51 H          37.5068    2.4287   30.0022 H         1 YCU1336     0.0000 
     52 H          37.1568    3.4145   28.7807 H         1 YCU1336     0.0000 
     53 H          37.2127    3.9845   30.2834 H         1 YCU1336     0.0000 
@<TRIPOS>BOND
     1    2    1 1    
     2    3    1 1    
     3   17    1 2    
     4   18    1 2    
     5    4    2 1    
     6    8    2 2    
     7    5    3 am   
     8   31    3 1    
     9   10    4 1    
    10   11    5 am   
    11   20    5 2    
    12    9    6 ar   
    13   11    6 1    
    14   15    6 ar   
    15    9    7 ar   
    16   12    7 1    
    17   16    7 ar   
    18   13    8 1    
    19   32    8 1    
    20   13   10 2    
    21   23   10 1    
    22   33   11 1    
    23   14   12 am   
    24   34   12 1    
    25   25   13 1    
    26   21   14 2    
    27   22   14 am   
    28   19   15 ar   
    29   35   15 1    
    30   19   16 ar   
    31   36   16 1    
    32   24   19 1    
    33   28   22 1    
    34   37   22 1    
    35   27   23 1    
    36   38   23 1    
    37   39   23 1    
    38   29   24 1    
    39   42   25 1    
    40   43   25 1    
    41   44   25 1    
    42   27   26 1    
    43   30   26 1    
    44   40   27 1    
    45   41   27 1    
    46   45   28 1    
    47   46   28 1    
    48   47   28 1    
    49   48   29 1    
    50   49   29 1    
    51   50   29 1    
    52   51   30 1    
    53   52   30 1    
    54   53   30 1    
@<TRIPOS>SUBSTRUCTURE
     1 YCU1336     1 GROUP   
@<TRIPOS>SET

