#    Name: 2y37_A54_1_INTS_M
#    Modification time : Tue Mar 25 07:27:23 2014

@<TRIPOS>MOLECULE
2y37_A54_1_INTS_M
   47     0    12     0     0
SMALL
NO_CHARGES


@<TRIPOS>ATOM
      1 CA         22.4725  -65.9950   32.5810 C.3       4 GLC5        0.0000 
      2 CA         22.5950  -67.7000   32.0150 C.3      12 GLL5        0.0000 
      3 CA         22.3500  -64.2900   33.1470 C.3       8 GLP5        0.0000 
      4 OD1        23.8825  -65.8090   30.7755 O.co2     3 ASC3        0.0000 
      5 OD1        23.5240  -67.1760   29.8170 O.co2    11 ASL3        0.0000 
      6 OD1        24.2410  -64.4420   31.7340 O.co2     7 ASP3        0.0000 
      7 O          23.8825  -65.8090   30.7755 O.2       1 ALC1        0.0000 
      8 O          23.5240  -67.1760   29.8170 O.2       9 ALL1        0.0000 
      9 O          24.2410  -64.4420   31.7340 O.2       5 ALP1        0.0000 
     10 CA         17.2600  -70.8385   37.5865 C.3       4 GLC5        0.0000 
     11 CA         19.0130  -70.3450   36.6620 C.3      12 GLL5        0.0000 
     12 CA         15.5070  -71.3320   38.5110 C.3       8 GLP5        0.0000 
     13 CA         19.0325  -65.5215   35.0980 C.3       4 GLC5        0.0000 
     14 CA         20.1050  -66.8950   36.0210 C.3      12 GLL5        0.0000 
     15 CA         17.9600  -64.1480   34.1750 C.3       8 GLP5        0.0000 
     16 CA         21.2275  -65.5925   34.5840 C.3       4 GLC5        0.0000 
     17 N          19.4590  -64.6865   37.0235 N.am      2 SEC2        0.0000 
     18 N          20.2000  -65.7420   36.1080 N.am     10 SEL2        0.0000 
     19 N          18.7180  -63.6310   37.9390 N.am      6 SEP2        0.0000 
     20 CA         20.1575  -73.2395   33.9245 C.3       4 GLC5        0.0000 
     21 CA         19.4610  -72.6900   35.5090 C.3      12 GLL5        0.0000 
     22 CA         20.8540  -73.7890   32.3400 C.3       8 GLP5        0.0000 
     23 CA         19.8895  -74.3985   35.3555 C.3       4 GLC5        0.0000 
     24 CA         20.3180  -76.1070   35.2020 C.3       8 GLP5        0.0000 
     25 CA         17.3675  -73.2485   35.5940 C.3       4 GLC5        0.0000 
     26 CA         15.2740  -73.8070   35.6790 C.3       8 GLP5        0.0000 
     27 CA         18.9342  -70.1090   28.8710 C.3       4 GLC5        0.0000 
     28 CA         18.4430  -69.9030   30.3590 C.3      12 GLL5        0.0000 
     29 CA         19.3800  -70.9650   27.1640 C.3       8 GLP5        0.0000 
     30 CA         17.2058  -69.1230   31.6975 C.3       4 GLC5        0.0000 
     31 CA         15.9230  -68.9930   32.8170 C.3       8 GLP5        0.0000 
     32 CA         17.3940  -71.5120   31.1725 C.3       4 GLC5        0.0000 
     33 CA         15.8460  -72.6690   31.8310 C.3       8 GLP5        0.0000 
     34 CA         18.4378  -68.4863   32.8160 C.3       4 GLC5        0.0000 
     35 CA         19.6140  -68.2310   31.5740 C.3      12 GLL5        0.0000 
     36 CA         16.7650  -68.2900   33.8900 C.3       8 GLP5        0.0000 
     37 CA         19.6818  -70.7903   29.1077 C.3       4 GLC5        0.0000 
     38 CA         20.5260  -70.4240   31.4340 C.3      12 GLL5        0.0000 
     39 CA         20.4187  -72.2023   31.6958 C.3       4 GLC5        0.0000 
     40 CA         19.4410  -70.8070   30.6690 C.3      12 GLL5        0.0000 
     41 CA         18.6658  -68.9758   34.3525 C.3       4 GLC5        0.0000 
     42 CA         20.4920  -70.3490   34.7630 C.3      12 GLL5        0.0000 
     43 CA         20.4672  -72.2332   33.7733 C.3       4 GLC5        0.0000 
     44 CA         18.0530  -69.4827   35.0230 C.3       4 GLC5        0.0000 
     45 CA         19.6690  -71.0060   35.6500 C.3      12 GLL5        0.0000 
     46 CA         18.3039  -68.0293   35.0321 C.3       4 GLC5        0.0000 
     47 CA         19.1760  -68.9800   36.7680 C.3      12 GLL5        0.0000 
@<TRIPOS>BOND
@<TRIPOS>SUBSTRUCTURE
     1 ALC1        7 GROUP        1 X    ALC  0     ROOT ALC X 1
     2 SEC2       17 GROUP        1 X    SEC  0     **** SEC X 2
     3 ASC3        4 GROUP        1 X    ASC  0     **** ASC X 3
     4 GLC5        1 GROUP        1 X    GLC  0     **** GLC X 6
     5 ALP1        9 GROUP        1 Y    ALP  0     ROOT ALP Y 8
     6 SEP2       19 GROUP        1 Y    SEP  0     **** SEP Y 9
     7 ASP3        6 GROUP        1 Y    ASP  0     **** ASP Y 10
     8 GLP5        3 GROUP        1 Y    GLP  0     **** GLP Y 13
     9 ALL1        8 GROUP        1 Z    ALL  0     ROOT ALL Z 15
    10 SEL2       18 GROUP        1 Z    SEL  0     **** SEL Z 16
    11 ASL3        5 GROUP        1 Z    ASL  0     **** ASL Z 17
    12 GLL5        2 GROUP        1 Z    GLL  0     **** GLL Z 20
@<TRIPOS>SET

