#    Name: 2y37_A54_1_ligand
#    Modification time : Tue Mar 25 07:27:23 2014

@<TRIPOS>MOLECULE
2y37_A54_1_ligand
   36    37     1     0     0
SMALL
NO_CHARGES


@<TRIPOS>ATOM
      1 C1         18.4430  -69.9030   30.3590 C.ar      1 A541500     0.0000 
      2 C2         18.5340  -68.6030   30.7970 C.ar      1 A541500     0.0000 
      3 C3         19.6140  -68.2310   31.5740 C.ar      1 A541500     0.0000 
      4 C4         20.6070  -69.1340   31.9100 C.ar      1 A541500     0.0000 
      5 C5         20.5260  -70.4240   31.4340 C.ar      1 A541500     0.0000 
      6 C6         19.4410  -70.8070   30.6690 C.ar      1 A541500     0.0000 
      7 C7         21.7860  -68.7520   32.7470 C.3       1 A541500     0.0000 
      8 C8         22.5950  -67.7000   32.0150 C.3       1 A541500     0.0000 
      9 C9         23.2740  -68.2410   30.7710 C.3       1 A541500     0.0000 
     10 N10        23.5240  -67.1760   29.8170 N.4       1 A541500     0.0000 
     11 O11        21.4250  -68.1830   34.0060 O.3       1 A541500     0.0000 
     12 C12        20.6410  -68.9740   34.8670 C.ar      1 A541500     0.0000 
     13 C13        20.4920  -70.3490   34.7630 C.ar      1 A541500     0.0000 
     14 C14        19.6690  -71.0060   35.6500 C.ar      1 A541500     0.0000 
     15 C15        19.0130  -70.3450   36.6620 C.ar      1 A541500     0.0000 
     16 C16        19.1760  -68.9800   36.7680 C.ar      1 A541500     0.0000 
     17 C17        19.9850  -68.3040   35.8870 C.ar      1 A541500     0.0000 
     18 C18        20.1050  -66.8950   36.0210 C.1       1 A541500     0.0000 
     19 N19        20.2000  -65.7420   36.1080 N.1       1 A541500     0.0000 
     20 CL2        19.4610  -72.6900   35.5090 Cl        1 A541500     0.0000 
     21 H          17.6311  -70.2066   29.7988 H         1 A541500     0.0000 
     22 H          17.8119  -67.9168   30.5520 H         1 A541500     0.0000 
     23 H          19.6831  -67.2496   31.9148 H         1 A541500     0.0000 
     24 H          21.2715  -71.1030   31.6468 H         1 A541500     0.0000 
     25 H          19.3751  -71.7816   30.3244 H         1 A541500     0.0000 
     26 H          22.4280  -69.6116   32.8801 H         1 A541500     0.0000 
     27 H          23.3587  -67.2943   32.6944 H         1 A541500     0.0000 
     28 H          21.9335  -66.8685   31.7314 H         1 A541500     0.0000 
     29 H          22.6282  -69.0150   30.3346 H         1 A541500     0.0000 
     30 H          24.2125  -68.7251   31.0733 H         1 A541500     0.0000 
     31 H          20.9916  -70.8668   34.0314 H         1 A541500     0.0000 
     32 H          18.4185  -70.8520   37.3206 H         1 A541500     0.0000 
     33 H          18.6836  -68.4620   37.5186 H         1 A541500     0.0000 
     34 H          24.1119  -66.4640   30.2009 H         1 A541500     0.0000 
     35 H          23.9752  -67.5152   28.9915 H         1 A541500     0.0000 
     36 H          22.6768  -66.7314   29.5263 H         1 A541500     0.0000 
@<TRIPOS>BOND
     1    2    1 ar   
     2    6    1 ar   
     3   21    1 1    
     4    3    2 ar   
     5   22    2 1    
     6    4    3 ar   
     7   23    3 1    
     8    5    4 ar   
     9    7    4 1    
    10    6    5 ar   
    11   24    5 1    
    12   25    6 1    
    13    8    7 1    
    14   11    7 1    
    15   26    7 1    
    16    9    8 1    
    17   27    8 1    
    18   28    8 1    
    19   10    9 1    
    20   29    9 1    
    21   30    9 1    
    22   34   10 1    
    23   35   10 1    
    24   36   10 1    
    25   12   11 1    
    26   13   12 ar   
    27   17   12 ar   
    28   14   13 ar   
    29   31   13 1    
    30   15   14 ar   
    31   20   14 1    
    32   16   15 ar   
    33   32   15 1    
    34   17   16 ar   
    35   33   16 1    
    36   18   17 1    
    37   19   18 3    
@<TRIPOS>SUBSTRUCTURE
     1 A541500     1 GROUP   
@<TRIPOS>SET

