#    Name: 4INE_3_CAVITY_N1_ALL.mol2
#    Modification time : Tue Mar 11 05:56:06 2014

@<TRIPOS>MOLECULE
4INE_3_CAVITY_N1_ALL.mol2
   52     0     5     0     0
SMALL
NO_CHARGES


@<TRIPOS>ATOM
      1 N          38.6387    3.9787   22.8141 N.2       2 ALA2        0.0000 
      2 OG         37.8317    4.1294   24.0695 O.2       1 SER1        0.0000 
      3 N          37.3746    3.8487   22.0171 N.2       2 ALA2        0.0000 
      4 N          36.5676    3.9994   23.2726 N.2       2 ALA2        0.0000 
      5 OG         35.7606    4.1500   24.5280 O.2       1 SER1        0.0000 
      6 CA         43.3819   -3.2155   24.9342 C.3       5 GLY6        0.0000 
      7 O          42.9248   -3.4962   22.8818 O.2       2 ALA2        0.0000 
      8 O          42.1178   -3.3455   24.1373 O.2       2 ALA2        0.0000 
      9 CA         46.6595   -0.1326   24.8789 C.3       5 GLY6        0.0000 
     10 CA         45.3954   -0.2626   24.0819 C.3       5 GLY6        0.0000 
     11 CZ         44.5884   -0.1120   25.3373 C.ar      4 PHE5        0.0000 
     12 CA         44.1313   -0.3927   23.2849 C.3       5 GLY6        0.0000 
     13 CA         43.3243   -0.2420   24.5404 C.3       5 GLY6        0.0000 
     14 CA         42.5173   -0.0914   25.7958 C.3       5 GLY6        0.0000 
     15 CA         42.8672   -0.5227   22.4880 C.3       5 GLY6        0.0000 
     16 CA         42.0602   -0.3721   23.7434 C.3       5 GLY6        0.0000 
     17 CA         41.2532   -0.2214   24.9988 C.3       5 GLY6        0.0000 
     18 CA         40.4462   -0.0707   26.2542 C.3       5 GLY6        0.0000 
     19 CA         40.7961   -0.5021   22.9464 C.3       5 GLY6        0.0000 
     20 NZ         39.9891   -0.3514   24.2019 N.2       3 LYS4        0.0000 
     21 NZ         39.1821   -0.2008   25.4573 N.2       3 LYS4        0.0000 
     22 NZ         45.4242   -1.7494   24.2788 N.2       3 LYS4        0.0000 
     23 CA         44.6172   -1.5987   25.5343 C.3       5 GLY6        0.0000 
     24 O          44.1601   -1.8794   23.4819 O.2       2 ALA2        0.0000 
     25 CA         43.3531   -1.7288   24.7373 C.3       5 GLY6        0.0000 
     26 CA         42.5461   -1.5781   25.9927 C.3       5 GLY6        0.0000 
     27 CA         42.8960   -2.0095   22.6849 C.3       5 GLY6        0.0000 
     28 O          42.0890   -1.8588   23.9403 O.2       2 ALA2        0.0000 
     29 O          41.2820   -1.7081   25.1957 O.2       2 ALA2        0.0000 
     30 O          41.6319   -2.1395   21.8880 O.2       2 ALA2        0.0000 
     31 CA         40.8249   -1.9888   23.1434 C.3       5 GLY6        0.0000 
     32 O          40.0179   -1.8382   24.3988 O.2       2 ALA2        0.0000 
     33 CA         39.9315    2.6220   23.8080 C.3       5 GLY6        0.0000 
     34 CA         39.1246    2.7727   25.0634 C.3       5 GLY6        0.0000 
     35 CA         38.6674    2.4920   23.0110 C.3       5 GLY6        0.0000 
     36 OG         37.8605    2.6427   24.2664 O.2       1 SER1        0.0000 
     37 CZ         37.0535    2.7933   25.5219 C.ar      4 PHE5        0.0000 
     38 N          37.4033    2.3620   22.2141 N.2       2 ALA2        0.0000 
     39 CA         36.5964    2.5126   23.4695 C.3       5 GLY6        0.0000 
     40 N          36.5388    5.4861   23.0756 N.2       2 ALA2        0.0000 
     41 CA         43.2955    1.2447   24.3434 C.3       5 GLY6        0.0000 
     42 CA         42.4885    1.3954   25.5988 C.3       5 GLY6        0.0000 
     43 CA         42.0314    1.1147   23.5465 C.3       5 GLY6        0.0000 
     44 CA         41.2244    1.2653   24.8019 C.3       5 GLY6        0.0000 
     45 CA         40.4174    1.4160   26.0573 C.3       5 GLY6        0.0000 
     46 CA         39.9603    1.1353   24.0049 C.3       5 GLY6        0.0000 
     47 NZ         39.1533    1.2860   25.2603 N.2       3 LYS4        0.0000 
     48 CZ         38.3464    1.4366   26.5158 C.ar      4 PHE5        0.0000 
     49 CA         38.6962    1.0053   23.2080 C.3       5 GLY6        0.0000 
     50 NZ         37.8892    1.1559   24.4634 N.2       3 LYS4        0.0000 
     51 CA         37.0823    1.3066   25.7188 C.3       5 GLY6        0.0000 
     52 NZ         36.6251    1.0259   23.6664 N.2       3 LYS4        0.0000 
@<TRIPOS>BOND
@<TRIPOS>SUBSTRUCTURE
     1 SER1        2 GROUP   
     2 ALA2        1 GROUP   
     3 LYS4       20 GROUP   
     4 PHE5       11 GROUP   
     5 GLY6        6 GROUP   
@<TRIPOS>SET

