#    Name: 4ine_SAH_3_INTS_M
#    Modification time : Tue Mar 25 04:13:03 2014

@<TRIPOS>MOLECULE
4ine_SAH_3_INTS_M
   85     0     9     0     0
SMALL
NO_CHARGES


@<TRIPOS>ATOM
      1 O          36.0200    1.1485   19.7015 O.2       1 ALC1        0.0000 
      2 O          35.2240    2.0740   19.0270 O.2       7 ALL1        0.0000 
      3 O          36.8160    0.2230   20.3760 O.2       4 ALP1        0.0000 
      4 O          36.1005    3.2350   18.7970 O.2       1 ALC1        0.0000 
      5 O          36.9770    4.3960   18.5670 O.2       4 ALP1        0.0000 
      6 O          34.6995    1.2880   17.8750 O.2       1 ALC1        0.0000 
      7 O          34.1750    0.5020   16.7230 O.2       4 ALP1        0.0000 
      8 CA         34.7755    0.0015   19.8890 C.3       3 GLC5        0.0000 
      9 CA         34.1600    2.1280   20.0280 C.3       9 GLL5        0.0000 
     10 CA         35.3910   -2.1250   19.7500 C.3       6 GLP5        0.0000 
     11 CA         34.1345    4.6560   24.1300 C.3       3 GLC5        0.0000 
     12 CA         35.9490    4.0050   23.3140 C.3       9 GLL5        0.0000 
     13 CA         32.3200    5.3070   24.9460 C.3       6 GLP5        0.0000 
     14 CA         34.8610    2.9555   24.6045 C.3       3 GLC5        0.0000 
     15 CA         33.7730    1.9060   25.8950 C.3       6 GLP5        0.0000 
     16 N          32.6830    4.9120   18.3680 N.am      2 SEC2        0.0000 
     17 N          33.2730    3.6980   18.4760 N.am      8 SEL2        0.0000 
     18 N          32.0930    6.1260   18.2600 N.am      5 SEP2        0.0000 
     19 N          31.1555    3.9310   20.9935 N.am      2 SEC2        0.0000 
     20 N          32.0750    3.2210   20.1890 N.am      8 SEL2        0.0000 
     21 N          30.2360    4.6410   21.7980 N.am      5 SEP2        0.0000 
     22 CA         39.0960    3.8895   22.0620 C.3       3 GLC5        0.0000 
     23 CA         37.6440    3.4410   23.3120 C.3       9 GLL5        0.0000 
     24 CA         40.5480    4.3380   20.8120 C.3       6 GLP5        0.0000 
     25 CA         39.3575    4.2350   24.2205 C.3       3 GLC5        0.0000 
     26 CA         41.0710    5.0290   25.1290 C.3       6 GLP5        0.0000 
     27 CA         38.3345    0.4925   22.1980 C.3       3 GLC5        0.0000 
     28 CA         37.8270    1.9360   23.5990 C.3       9 GLL5        0.0000 
     29 CA         38.8420   -0.9510   20.7970 C.3       6 GLP5        0.0000 
     30 CA         39.1405    2.4015   21.9645 C.3       3 GLC5        0.0000 
     31 CA         40.4540    2.8670   20.3300 C.3       6 GLP5        0.0000 
     32 CA         35.6235    1.7340   25.4640 C.3       3 GLC5        0.0000 
     33 CA         37.4740    1.5620   25.0330 C.3       9 GLL5        0.0000 
     34 O          36.6940   -0.5055   24.2955 O.2       1 ALC1        0.0000 
     35 O          36.4290    0.5680   25.0130 O.2       7 ALL1        0.0000 
     36 O          36.9590   -1.5790   23.5780 O.2       4 ALP1        0.0000 
     37 CA         39.8885    1.4830   27.4940 C.3       3 GLC5        0.0000 
     38 CA         38.7850    1.0280   25.6150 C.3       9 GLL5        0.0000 
     39 CA         40.9920    1.9380   29.3730 C.3       6 GLP5        0.0000 
     40 O          38.1585   -1.1175   26.0765 O.2       1 ALC1        0.0000 
     41 O          38.6140    0.0230   26.6350 O.2       7 ALL1        0.0000 
     42 O          37.7030   -2.2580   25.5180 O.2       4 ALP1        0.0000 
     43 CA         39.1625   -0.2125   22.5810 C.3       3 GLC5        0.0000 
     44 CA         39.4830    0.5260   24.3650 C.3       9 GLL5        0.0000 
     45 CA         40.5625    1.1085   22.7205 C.3       3 GLC5        0.0000 
     46 CA         41.6420    1.6910   21.0760 C.3       6 GLP5        0.0000 
     47 CA         44.5835    0.6285   23.5495 C.3       3 GLC5        0.0000 
     48 CA         43.0270   -0.4460   24.5210 C.3       9 GLL5        0.0000 
     49 CA         46.1400    1.7030   22.5780 C.3       6 GLP5        0.0000 
     50 CA         44.5540   -3.6700   24.4745 C.3       3 GLC5        0.0000 
     51 CA         43.9990   -1.5080   24.2240 C.3       9 GLL5        0.0000 
     52 CA         45.1090   -5.8320   24.7250 C.3       6 GLP5        0.0000 
     53 CA         44.6895   -2.4205   22.3870 C.3       3 GLC5        0.0000 
     54 CA         45.3800   -3.3330   20.5500 C.3       6 GLP5        0.0000 
     55 CA         44.8780   -0.3495   22.8155 C.3       3 GLC5        0.0000 
     56 CA         45.7570    0.8090   21.4070 C.3       6 GLP5        0.0000 
     57 O          46.2295   -2.5615   24.5475 O.2       1 ALC1        0.0000 
     58 O          45.3260   -1.3620   24.4960 O.2       7 ALL1        0.0000 
     59 O          47.1330   -3.7610   24.5990 O.2       4 ALP1        0.0000 
     60 N          44.4185   -3.7110   23.0935 N.am      2 SEC2        0.0000 
     61 N          43.5270   -2.6420   23.6640 N.am      8 SEL2        0.0000 
     62 N          45.3100   -4.7800   22.5230 N.am      5 SEP2        0.0000 
     63 CA         40.5030   -3.6345   23.5365 C.3       3 GLC5        0.0000 
     64 CA         42.2240   -2.8120   23.4030 C.3       9 GLL5        0.0000 
     65 CA         38.7820   -4.4570   23.6700 C.3       6 GLP5        0.0000 
     66 CA         42.1315   -3.3060   25.2605 C.3       3 GLC5        0.0000 
     67 CA         42.0390   -3.8000   27.1180 C.3       6 GLP5        0.0000 
     68 CA         43.6665   -4.3220   24.0640 C.3       3 GLC5        0.0000 
     69 CA         43.8020   -3.0725   21.9765 C.3       3 GLC5        0.0000 
     70 N          40.6810   -2.9900   24.6575 N.am      2 SEC2        0.0000 
     71 N          41.2700   -1.8920   23.6410 N.am      8 SEL2        0.0000 
     72 N          40.0920   -4.0880   25.6740 N.am      5 SEP2        0.0000 
     73 CA         40.2320   -0.8305   22.4900 C.3       3 GLC5        0.0000 
     74 CA         41.6220   -0.7100   24.1830 C.3       9 GLL5        0.0000 
     75 CA         34.0585    0.6970   21.8495 C.3       3 GLC5        0.0000 
     76 CA         34.6520    2.4160   21.4620 C.3       9 GLL5        0.0000 
     77 CA         33.7110   -0.8780   22.9540 C.3       6 GLP5        0.0000 
     78 CA         33.3727    3.7902   22.6760 C.3       3 GLC5        0.0000 
     79 CA         31.7150    4.4990   23.8040 C.3       6 GLP5        0.0000 
     80 CA         36.8183    4.1135   25.3580 C.3       3 GLC5        0.0000 
     81 CA         36.8400    4.5040   27.4030 C.3       6 GLP5        0.0000 
     82 CA         37.9307    2.5135   26.7190 C.3       3 GLC5        0.0000 
     83 CA         37.7320    3.7320   28.1140 C.3       6 GLP5        0.0000 
     84 CA         41.9833    0.5565   22.7140 C.3       3 GLC5        0.0000 
     85 CA         42.3033   -2.3217   25.6979 C.3       3 GLC5        0.0000 
@<TRIPOS>BOND
@<TRIPOS>SUBSTRUCTURE
     1 ALC1        1 GROUP        1 X    ALC  0     ROOT ALC X 1
     2 SEC2       16 GROUP        1 X    SEC  0     **** SEC X 2
     3 GLC5        8 GROUP        1 X    GLC  0     **** GLC X 6
     4 ALP1        3 GROUP        1 Y    ALP  0     ROOT ALP Y 8
     5 SEP2       18 GROUP        1 Y    SEP  0     **** SEP Y 9
     6 GLP5       10 GROUP        1 Y    GLP  0     **** GLP Y 13
     7 ALL1        2 GROUP        1 Z    ALL  0     ROOT ALL Z 15
     8 SEL2       17 GROUP        1 Z    SEL  0     **** SEL Z 16
     9 GLL5        9 GROUP        1 Z    GLL  0     **** GLL Z 20
@<TRIPOS>SET

