#    Name: 4ine_SAH_3_ligand
#    Modification time : Tue Mar 25 04:13:03 2014

@<TRIPOS>MOLECULE
4ine_SAH_3_ligand
   46    48     1     0     0
SMALL
NO_CHARGES


@<TRIPOS>ATOM
      1 N          35.2240    2.0740   19.0270 N.4       1 SAH501      0.0000 
      2 CA         34.1600    2.1280   20.0280 C.3       1 SAH501      0.0000 
      3 CB         34.6520    2.4160   21.4620 C.3       1 SAH501      0.0000 
      4 CG         35.4090    3.7470   21.6340 C.3       1 SAH501      0.0000 
      5 SD         35.9490    4.0050   23.3140 S.3       1 SAH501      0.0000 
      6 C          33.1130    3.0870   19.5370 C.2       1 SAH501      0.0000 
      7 O          33.2730    3.6980   18.4760 O.co2     1 SAH501      0.0000 
      8 OXT        32.0750    3.2210   20.1890 O.co2     1 SAH501      0.0000 
      9 C5'        37.6440    3.4410   23.3120 C.3       1 SAH501      0.0000 
     10 C4'        37.8270    1.9360   23.5990 C.3       1 SAH501      0.0000 
     11 O4'        39.2140    1.5760   23.4070 O.3       1 SAH501      0.0000 
     12 C3'        37.4740    1.5620   25.0330 C.3       1 SAH501      0.0000 
     13 O3'        36.4290    0.5680   25.0130 O.3       1 SAH501      0.0000 
     14 C2'        38.7850    1.0280   25.6150 C.3       1 SAH501      0.0000 
     15 O2'        38.6140    0.0230   26.6350 O.3       1 SAH501      0.0000 
     16 C1'        39.4830    0.5260   24.3650 C.3       1 SAH501      0.0000 
     17 N9         40.9410    0.3860   24.5220 N.pl3     1 SAH501      0.0000 
     18 C8         41.7840    1.2830   25.0640 C.2       1 SAH501      0.0000 
     19 N7         43.0570    0.8040   25.0430 N.2       1 SAH501      0.0000 
     20 C5         43.0270   -0.4460   24.5210 C.ar      1 SAH501      0.0000 
     21 C6         43.9990   -1.5080   24.2240 C.ar      1 SAH501      0.0000 
     22 N6         45.3260   -1.3620   24.4960 N.pl3     1 SAH501      0.0000 
     23 N1         43.5270   -2.6420   23.6640 N.ar      1 SAH501      0.0000 
     24 C2         42.2240   -2.8120   23.4030 C.ar      1 SAH501      0.0000 
     25 N3         41.2700   -1.8920   23.6410 N.ar      1 SAH501      0.0000 
     26 C4         41.6220   -0.7100   24.1830 C.ar      1 SAH501      0.0000 
     27 H          33.6716    1.1180   20.0530 H         1 SAH501      0.0000 
     28 H          35.3100    1.5898   21.7822 H         1 SAH501      0.0000 
     29 H          33.7821    2.4124   22.1412 H         1 SAH501      0.0000 
     30 H          34.7944    4.6021   21.4392 H         1 SAH501      0.0000 
     31 H          36.3215    3.7806   21.0745 H         1 SAH501      0.0000 
     32 H          38.1112    4.0661   24.0615 H         1 SAH501      0.0000 
     33 H          37.9944    3.7212   22.3273 H         1 SAH501      0.0000 
     34 H          37.2007    1.3759   22.9315 H         1 SAH501      0.0000 
     35 H          37.2039    2.4458   25.5480 H         1 SAH501      0.0000 
     36 H          39.3424    1.8911   25.9602 H         1 SAH501      0.0000 
     37 H          39.0248   -0.3758   24.0530 H         1 SAH501      0.0000 
     38 H          41.5280    2.1538   25.4228 H         1 SAH501      0.0000 
     39 H          45.6006   -0.4846   24.8895 H         1 SAH501      0.0000 
     40 H          45.9086   -2.1451   24.2782 H         1 SAH501      0.0000 
     41 H          41.9154   -3.7484   22.9730 H         1 SAH501      0.0000 
     42 H          34.8651    1.8825   18.1135 H         1 SAH501      0.0000 
     43 H          35.7245    2.9378   18.9700 H         1 SAH501      0.0000 
     44 H          35.8932    1.3605   19.2345 H         1 SAH501      0.0000 
     45 H          36.7631   -0.1463   24.3981 H         1 SAH501      0.0000 
     46 H          38.3153   -0.7955   26.1442 H         1 SAH501      0.0000 
@<TRIPOS>BOND
     1    2    1 1    
     2   42    1 1    
     3   43    1 1    
     4   44    1 1    
     5    3    2 1    
     6    6    2 1    
     7   27    2 1    
     8    4    3 1    
     9   28    3 1    
    10   29    3 1    
    11    5    4 1    
    12   30    4 1    
    13   31    4 1    
    14    9    5 1    
    15    7    6 ar   
    16    8    6 ar   
    17   10    9 1    
    18   32    9 1    
    19   33    9 1    
    20   11   10 1    
    21   12   10 1    
    22   34   10 1    
    23   16   11 1    
    24   13   12 1    
    25   14   12 1    
    26   35   12 1    
    27   45   13 1    
    28   15   14 1    
    29   16   14 1    
    30   36   14 1    
    31   46   15 1    
    32   17   16 1    
    33   37   16 1    
    34   18   17 1    
    35   26   17 1    
    36   19   18 2    
    37   38   18 1    
    38   20   19 1    
    39   21   20 ar   
    40   26   20 ar   
    41   22   21 1    
    42   23   21 ar   
    43   39   22 1    
    44   40   22 1    
    45   24   23 ar   
    46   25   24 ar   
    47   41   24 1    
    48   26   25 ar   
@<TRIPOS>SUBSTRUCTURE
     1 SAH501      1 GROUP   
@<TRIPOS>SET

