#    Name: 3kq7_KQ7_1_INTS_M
#    Modification time : Mon Mar 24 20:07:04 2014

@<TRIPOS>MOLECULE
3kq7_KQ7_1_INTS_M
  114     0     9     0     0
SMALL
NO_CHARGES


@<TRIPOS>ATOM
      1 CA         19.0015   17.1170   20.8955 C.3       3 GLC5        0.0000 
      2 CA         17.0650   16.4170   21.7330 C.3       9 GLL5        0.0000 
      3 CA         20.9380   17.8170   20.0580 C.3       6 GLP5        0.0000 
      4 CA         16.0120   13.5100   22.2300 C.3       3 GLC5        0.0000 
      5 CA         17.9100   14.1630   22.2750 C.3       9 GLL5        0.0000 
      6 CA         14.1140   12.8570   22.1850 C.3       6 GLP5        0.0000 
      7 CA         17.5595   12.4070   23.5075 C.3       3 GLC5        0.0000 
      8 CA         17.2090   10.6510   24.7400 C.3       6 GLP5        0.0000 
      9 CA         19.3950   13.3310   23.2365 C.3       3 GLC5        0.0000 
     10 CA         20.8800   12.4990   24.1980 C.3       6 GLP5        0.0000 
     11 CA         15.8570   13.5080   20.5835 C.3       3 GLC5        0.0000 
     12 CA         17.6930   13.8180   20.7930 C.3       9 GLL5        0.0000 
     13 CA         14.0210   13.1980   20.3740 C.3       6 GLP5        0.0000 
     14 CA         17.0980   12.1325   20.3740 C.3       3 GLC5        0.0000 
     15 CA         16.5030   10.4470   19.9550 C.3       6 GLP5        0.0000 
     16 CA         16.8215   13.4440   18.8410 C.3       3 GLC5        0.0000 
     17 CA         15.9500   13.0700   16.8890 C.3       6 GLP5        0.0000 
     18 CA         15.4875   14.6105   20.3060 C.3       3 GLC5        0.0000 
     19 CA         16.9540   16.0230   20.2380 C.3       9 GLL5        0.0000 
     20 CA         17.4055   15.8490   18.3675 C.3       3 GLC5        0.0000 
     21 CA         17.8570   15.6750   16.4970 C.3       6 GLP5        0.0000 
     22 CA         15.5835   16.5935   19.1625 C.3       3 GLC5        0.0000 
     23 CA         14.2130   17.1640   18.0870 C.3       6 GLP5        0.0000 
     24 CA         18.1135   17.6295   19.5365 C.3       3 GLC5        0.0000 
     25 CA         19.2730   19.2360   18.8350 C.3       6 GLP5        0.0000 
     26 CA         14.5295   17.6315   24.3385 C.3       3 GLC5        0.0000 
     27 CA         16.0800   17.1250   25.6020 C.3       9 GLL5        0.0000 
     28 CA         12.9790   18.1380   23.0750 C.3       6 GLP5        0.0000 
     29 CA         17.1915   12.6065   24.8440 C.3       3 GLC5        0.0000 
     30 CA         17.1740   14.5620   24.9480 C.3       9 GLL5        0.0000 
     31 CA         19.0270   13.5305   24.5730 C.3       3 GLC5        0.0000 
     32 N          19.3645   13.7680   26.2940 N.am      2 SEC2        0.0000 
     33 N          18.2430   13.0830   27.0350 N.am      8 SEL2        0.0000 
     34 N          20.4860   14.4530   25.5530 N.am      5 SEP2        0.0000 
     35 O          15.8010   14.8960   29.1125 O.2       1 ALC1        0.0000 
     36 O          16.6820   13.9240   28.4530 O.2       7 ALL1        0.0000 
     37 O          14.9200   15.8680   29.7720 O.2       4 ALP1        0.0000 
     38 CA         13.8500   13.7000   31.1660 C.3       3 GLC5        0.0000 
     39 CA         15.6140   12.8750   30.3640 C.3       9 GLL5        0.0000 
     40 CA         12.0860   14.5250   31.9680 C.3       6 GLP5        0.0000 
     41 CA         13.8475   11.9890   32.1100 C.3       3 GLC5        0.0000 
     42 CA         15.6540   11.9630   31.4730 C.3       9 GLL5        0.0000 
     43 CA         12.0410   12.0150   32.7470 C.3       6 GLP5        0.0000 
     44 CA         17.3200   13.6715   31.3005 C.3       3 GLC5        0.0000 
     45 CA         17.8980   12.1810   29.7180 C.3       9 GLL5        0.0000 
     46 CA         16.7420   15.1620   32.8830 C.3       6 GLP5        0.0000 
     47 CA         18.0455    8.9035   33.3380 C.3       3 GLC5        0.0000 
     48 CA         16.8010   10.1510   32.8220 C.3       9 GLL5        0.0000 
     49 CA         19.2900    7.6560   33.8540 C.3       6 GLP5        0.0000 
     50 CA         16.2635    9.3870   34.8150 C.3       3 GLC5        0.0000 
     51 CA         15.7260    8.6230   36.8080 C.3       6 GLP5        0.0000 
     52 O          18.3210    9.0990   30.7505 O.2       1 ALC1        0.0000 
     53 O          19.0280   10.4060   31.0160 O.2       7 ALL1        0.0000 
     54 O          17.6140    7.7920   30.4850 O.2       4 ALP1        0.0000 
     55 CA         23.3015    9.6685   35.3310 C.3       3 GLC5        0.0000 
     56 CA         23.2220    9.6510   33.3110 C.3       9 GLL5        0.0000 
     57 CA         23.3810    9.6860   37.3510 C.3       6 GLP5        0.0000 
     58 CA         22.8890    6.9200   33.6500 C.3       3 GLC5        0.0000 
     59 CA         23.3350    8.4360   32.6430 C.3       9 GLL5        0.0000 
     60 CA         22.4430    5.4040   34.6570 C.3       6 GLP5        0.0000 
     61 CA         23.6850    7.5720   30.7880 C.3       3 GLC5        0.0000 
     62 CA         24.0350    6.7080   28.9330 C.3       6 GLP5        0.0000 
     63 N          22.6020    6.7030   31.1580 N.am      2 SEC2        0.0000 
     64 N          22.3810    8.0460   31.7280 N.am      8 SEL2        0.0000 
     65 N          22.8230    5.3600   30.5880 N.am      5 SEP2        0.0000 
     66 CA         21.9775    7.9320   29.7930 C.3       3 GLC5        0.0000 
     67 CA         21.3050    8.8220   31.3870 C.3       9 GLL5        0.0000 
     68 CA         22.6500    7.0420   28.1990 C.3       6 GLP5        0.0000 
     69 CA         21.2485    9.4995   29.3630 C.3       3 GLC5        0.0000 
     70 CA         21.1920   10.1770   27.3390 C.3       6 GLP5        0.0000 
     71 O          24.9075    6.4195   32.2250 O.2       1 ALC1        0.0000 
     72 O          24.3720    7.5550   32.9070 O.2       7 ALL1        0.0000 
     73 O          25.4430    5.2840   31.5430 O.2       4 ALP1        0.0000 
     74 CA         24.3825    8.7880   35.6395 C.3       3 GLC5        0.0000 
     75 CA         25.3840    7.8900   33.9280 C.3       9 GLL5        0.0000 
     76 CA         23.9135    6.6470   34.2925 C.3       3 GLC5        0.0000 
     77 O          28.6190    7.6385   31.0415 O.2       1 ALC1        0.0000 
     78 O          28.6820    8.7830   31.9330 O.2       7 ALL1        0.0000 
     79 O          28.5560    6.4940   30.1500 O.2       4 ALP1        0.0000 
     80 CA         19.6002   13.5278   20.7305 C.3       3 GLC5        0.0000 
     81 CA         21.3990   13.0650   19.9270 C.3       6 GLP5        0.0000 
     82 CA         15.5467   13.9480   23.3205 C.3       3 GLC5        0.0000 
     83 CA         16.7850   15.5160   23.9640 C.3       9 GLL5        0.0000 
     84 CA         14.6415   16.6857   27.3688 C.3       3 GLC5        0.0000 
     85 CA         16.3820   16.2140   26.6290 C.3       9 GLL5        0.0000 
     86 CA         13.0520   16.7020   28.6220 C.3       6 GLP5        0.0000 
     87 CA         15.4832   13.4622   25.8533 C.3       3 GLC5        0.0000 
     88 CA         16.9470   14.9470   26.2630 C.3       9 GLL5        0.0000 
     89 CA         13.9060   12.1700   26.1010 C.3       6 GLP5        0.0000 
     90 CA         15.8720   10.8770   29.7090 C.3       3 GLC5        0.0000 
     91 CA         15.5600    8.8240   29.4750 C.3       6 GLP5        0.0000 
     92 CA         16.3305   13.8042   31.7955 C.3       3 GLC5        0.0000 
     93 CA         14.4095   12.7707   29.4065 C.3       3 GLC5        0.0000 
     94 CA         12.9000   13.0950   28.1050 C.3       6 GLP5        0.0000 
     95 CA         16.3175   11.8040   33.6298 C.3       3 GLC5        0.0000 
     96 CA         16.7970   11.1210   31.6570 C.3       9 GLL5        0.0000 
     97 CA         15.8360   12.9720   35.0200 C.3       6 GLP5        0.0000 
     98 CA         16.7377   10.2697   29.8682 C.3       3 GLC5        0.0000 
     99 CA         17.9330   11.2500   30.8050 C.3       9 GLL5        0.0000 
    100 CA         16.0366    9.8353   30.8343 C.3       3 GLC5        0.0000 
    101 CA         21.3056   10.3495   34.5455 C.3       3 GLC5        0.0000 
    102 CA         21.2250   10.0530   32.0090 C.3       9 GLL5        0.0000 
    103 CA         20.1630   10.7380   36.1870 C.3       6 GLP5        0.0000 
    104 CA         21.2843    8.3498   33.4155 C.3       3 GLC5        0.0000 
    105 CA         20.3899    8.6013   32.8980 C.3       3 GLC5        0.0000 
    106 CA         25.4962    7.8985   29.7075 C.3       3 GLC5        0.0000 
    107 CA         26.4740    8.9040   31.0500 C.3       9 GLL5        0.0000 
    108 CA         25.7643    9.9025   29.5955 C.3       3 GLC5        0.0000 
    109 CA         24.5710   10.7160   28.7090 C.3       6 GLP5        0.0000 
    110 CA         28.9260    9.8515   28.5543 C.3       3 GLC5        0.0000 
    111 CA         27.4410    9.2740   29.9140 C.3       9 GLL5        0.0000 
    112 CA         29.7270   10.3520   26.8520 C.3       6 GLP5        0.0000 
    113 CA         18.3271   16.3486   25.6687 C.3       3 GLC5        0.0000 
    114 CA         20.0570   16.8660   25.6000 C.3       6 GLP5        0.0000 
@<TRIPOS>BOND
@<TRIPOS>SUBSTRUCTURE
     1 ALC1       35 GROUP        1 X    ALC  0     ROOT ALC X 1
     2 SEC2       32 GROUP        1 X    SEC  0     **** SEC X 2
     3 GLC5        1 GROUP        1 X    GLC  0     **** GLC X 6
     4 ALP1       37 GROUP        1 Y    ALP  0     ROOT ALP Y 8
     5 SEP2       34 GROUP        1 Y    SEP  0     **** SEP Y 9
     6 GLP5        3 GROUP        1 Y    GLP  0     **** GLP Y 13
     7 ALL1       36 GROUP        1 Z    ALL  0     ROOT ALL Z 15
     8 SEL2       33 GROUP        1 Z    SEL  0     **** SEL Z 16
     9 GLL5        2 GROUP        1 Z    GLL  0     **** GLL Z 20
@<TRIPOS>SET

