#    Name: 3kq7_KQ7_1_ligand
#    Modification time : Mon Mar 24 20:07:04 2014

@<TRIPOS>MOLECULE
3kq7_KQ7_1_ligand
   78    82     1     0     0
SMALL
NO_CHARGES


@<TRIPOS>ATOM
      1 C1         17.0650   16.4170   21.7330 C.3       1 KQ7361      0.0000 
      2 N2         16.9570   15.2420   22.5950 N.3       1 KQ7361      0.0000 
      3 C3         17.9100   14.1630   22.2750 C.3       1 KQ7361      0.0000 
      4 C4         17.6930   13.8180   20.7930 C.3       1 KQ7361      0.0000 
      5 O5         17.9020   14.9640   19.9450 O.3       1 KQ7361      0.0000 
      6 C6         16.9540   16.0230   20.2380 C.3       1 KQ7361      0.0000 
      7 C7         16.7850   15.5160   23.9640 C.ar      1 KQ7361      0.0000 
      8 N8         16.2990   16.7260   24.3220 N.ar      1 KQ7361      0.0000 
      9 C9         16.0800   17.1250   25.6020 C.ar      1 KQ7361      0.0000 
     10 C10        16.3820   16.2140   26.6290 C.ar      1 KQ7361      0.0000 
     11 C11        16.9470   14.9470   26.2630 C.ar      1 KQ7361      0.0000 
     12 C12        17.1740   14.5620   24.9480 C.ar      1 KQ7361      0.0000 
     13 C13        17.3420   13.9010   27.3050 C.2       1 KQ7361      0.0000 
     14 O14        18.2430   13.0830   27.0350 O.2       1 KQ7361      0.0000 
     15 N15        16.6820   13.9240   28.4530 N.am      1 KQ7361      0.0000 
     16 C16        16.7540   12.9850   29.5220 C.ar      1 KQ7361      0.0000 
     17 C17        15.6140   12.8750   30.3640 C.ar      1 KQ7361      0.0000 
     18 C18        15.6540   11.9630   31.4730 C.ar      1 KQ7361      0.0000 
     19 C19        16.7970   11.1210   31.6570 C.ar      1 KQ7361      0.0000 
     20 C20        17.9330   11.2500   30.8050 C.ar      1 KQ7361      0.0000 
     21 C21        17.8980   12.1810   29.7180 C.ar      1 KQ7361      0.0000 
     22 C22        16.8010   10.1510   32.8220 C.3       1 KQ7361      0.0000 
     23 N23        19.0280   10.4060   31.0160 N.am      1 KQ7361      0.0000 
     24 C24        20.0680   10.9350   31.6820 C.2       1 KQ7361      0.0000 
     25 O25        20.1250   12.1140   31.9840 O.2       1 KQ7361      0.0000 
     26 C26        21.2250   10.0530   32.0090 C.ar      1 KQ7361      0.0000 
     27 C27        22.1240   10.4890   32.9850 C.ar      1 KQ7361      0.0000 
     28 C28        23.2220    9.6510   33.3110 C.ar      1 KQ7361      0.0000 
     29 C29        23.3350    8.4360   32.6430 C.ar      1 KQ7361      0.0000 
     30 N30        22.3810    8.0460   31.7280 N.ar      1 KQ7361      0.0000 
     31 C31        21.3050    8.8220   31.3870 C.ar      1 KQ7361      0.0000 
     32 N32        24.3720    7.5550   32.9070 N.pl3     1 KQ7361      0.0000 
     33 C33        25.3840    7.8900   33.9280 C.3       1 KQ7361      0.0000 
     34 C34        26.8320    7.9290   33.3820 C.3       1 KQ7361      0.0000 
     35 C35        27.2640    8.9930   32.3780 C.3       1 KQ7361      0.0000 
     36 C36        26.4740    8.9040   31.0500 C.3       1 KQ7361      0.0000 
     37 C37        27.4410    9.2740   29.9140 C.3       1 KQ7361      0.0000 
     38 C38        28.8090    9.4280   30.5990 C.3       1 KQ7361      0.0000 
     39 N39        28.6820    8.7830   31.9330 N.4       1 KQ7361      0.0000 
     40 C40        29.7640    9.1370   32.9080 C.3       1 KQ7361      0.0000 
     41 H          18.0263   16.9230   21.8722 H         1 KQ7361      0.0000 
     42 H          16.2690   17.1386   21.9459 H         1 KQ7361      0.0000 
     43 H          17.7128   13.2846   22.8638 H         1 KQ7361      0.0000 
     44 H          18.9259   14.4921   22.4051 H         1 KQ7361      0.0000 
     45 H          16.6698   13.4234   20.6902 H         1 KQ7361      0.0000 
     46 H          18.3834   12.9984   20.5382 H         1 KQ7361      0.0000 
     47 H          17.1541   16.9158   19.6457 H         1 KQ7361      0.0000 
     48 H          15.9277   15.7044   20.0561 H         1 KQ7361      0.0000 
     49 H          15.7124   18.0426   25.8316 H         1 KQ7361      0.0000 
     50 H          16.2122   16.4310   27.5952 H         1 KQ7361      0.0000 
     51 H          17.5747   13.6944   24.6952 H         1 KQ7361      0.0000 
     52 H          15.9907   14.7462   28.6376 H         1 KQ7361      0.0000 
     53 H          14.7874   13.4253   30.1912 H         1 KQ7361      0.0000 
     54 H          14.8775   11.9176   32.1194 H         1 KQ7361      0.0000 
     55 H          18.6971   12.2562   29.0954 H         1 KQ7361      0.0000 
     56 H          19.0117    9.4553   30.6758 H         1 KQ7361      0.0000 
     57 H          22.0048   11.3767   33.4530 H         1 KQ7361      0.0000 
     58 H          23.8926    9.9393   34.0074 H         1 KQ7361      0.0000 
     59 H          20.6117    8.5191   30.7243 H         1 KQ7361      0.0000 
     60 H          24.4705    6.6693   32.4196 H         1 KQ7361      0.0000 
     61 H          25.3574    7.1561   34.7541 H         1 KQ7361      0.0000 
     62 H          25.1687    8.8770   34.3765 H         1 KQ7361      0.0000 
     63 H          27.0559    6.9102   32.9395 H         1 KQ7361      0.0000 
     64 H          27.5301    7.9762   34.2732 H         1 KQ7361      0.0000 
     65 H          27.1540    9.9667   32.7680 H         1 KQ7361      0.0000 
     66 H          25.6628    9.6033   31.0747 H         1 KQ7361      0.0000 
     67 H          26.1252    7.9003   30.9137 H         1 KQ7361      0.0000 
     68 H          27.1503   10.2006   29.4847 H         1 KQ7361      0.0000 
     69 H          27.4825    8.4822   29.2077 H         1 KQ7361      0.0000 
     70 H          29.0289   10.4740   30.7002 H         1 KQ7361      0.0000 
     71 H          29.5513    8.9307   30.0038 H         1 KQ7361      0.0000 
     72 H          28.7658    7.6634   31.7266 H         1 KQ7361      0.0000 
     73 H          17.6456    9.6168   32.8576 H         1 KQ7361      0.0000 
     74 H          16.7159   10.6237   33.6991 H         1 KQ7361      0.0000 
     75 H          16.0444    9.4996   32.7655 H         1 KQ7361      0.0000 
     76 H          30.6743    8.9692   32.5296 H         1 KQ7361      0.0000 
     77 H          29.7281   10.1018   33.1685 H         1 KQ7361      0.0000 
     78 H          29.6938    8.6031   33.7506 H         1 KQ7361      0.0000 
@<TRIPOS>BOND
     1    2    1 1    
     2    6    1 1    
     3   41    1 1    
     4   42    1 1    
     5    3    2 1    
     6    7    2 1    
     7    4    3 1    
     8   43    3 1    
     9   44    3 1    
    10    5    4 1    
    11   45    4 1    
    12   46    4 1    
    13    6    5 1    
    14   47    6 1    
    15   48    6 1    
    16    8    7 ar   
    17   12    7 ar   
    18    9    8 ar   
    19   10    9 ar   
    20   49    9 1    
    21   11   10 ar   
    22   50   10 1    
    23   12   11 ar   
    24   13   11 1    
    25   51   12 1    
    26   14   13 2    
    27   15   13 am   
    28   16   15 1    
    29   52   15 1    
    30   17   16 ar   
    31   21   16 ar   
    32   18   17 ar   
    33   53   17 1    
    34   19   18 ar   
    35   54   18 1    
    36   20   19 ar   
    37   22   19 1    
    38   21   20 ar   
    39   23   20 1    
    40   55   21 1    
    41   73   22 1    
    42   74   22 1    
    43   75   22 1    
    44   24   23 am   
    45   56   23 1    
    46   25   24 2    
    47   26   24 1    
    48   27   26 ar   
    49   31   26 ar   
    50   28   27 ar   
    51   57   27 1    
    52   29   28 ar   
    53   58   28 1    
    54   30   29 ar   
    55   32   29 1    
    56   31   30 ar   
    57   59   31 1    
    58   33   32 1    
    59   60   32 1    
    60   34   33 1    
    61   61   33 1    
    62   62   33 1    
    63   35   34 1    
    64   63   34 1    
    65   64   34 1    
    66   36   35 1    
    67   39   35 1    
    68   65   35 1    
    69   37   36 1    
    70   66   36 1    
    71   67   36 1    
    72   38   37 1    
    73   68   37 1    
    74   69   37 1    
    75   39   38 1    
    76   70   38 1    
    77   71   38 1    
    78   40   39 1    
    79   72   39 1    
    80   76   40 1    
    81   77   40 1    
    82   78   40 1    
@<TRIPOS>SUBSTRUCTURE
     1 KQ7361      1 GROUP   
@<TRIPOS>SET

