#    Name: 4djp_M73_1_INTS_M
#    Modification time : Mon Apr  7 22:47:17 2014

@<TRIPOS>MOLECULE
4djp_M73_1_INTS_M
  103     0     9     0     0
SMALL
NO_CHARGES


@<TRIPOS>ATOM
      1 CA         21.0880   29.0015    9.5620 C.3       3 GLC5        0.0000 
      2 CA         22.0280   27.5610   10.5510 C.3       9 GLL5        0.0000 
      3 CA         20.1480   30.4420    8.5730 C.3       6 GLP5        0.0000 
      4 CA         23.2060   29.2075   11.0395 C.3       3 GLC5        0.0000 
      5 CA         24.3840   30.8540   11.5280 C.3       6 GLP5        0.0000 
      6 CA         22.9695   23.3900   11.0990 C.3       3 GLC5        0.0000 
      7 CA         21.9370   25.0630   10.2850 C.3       9 GLL5        0.0000 
      8 CA         24.0020   21.7170   11.9130 C.3       6 GLP5        0.0000 
      9 N          25.3220   24.3710   12.4015 N.am      2 SEC2        0.0000 
     10 N          24.3350   25.3320   11.6870 N.am      8 SEL2        0.0000 
     11 N          26.3090   23.4100   13.1160 N.am      5 SEP2        0.0000 
     12 CA         25.0670   26.8505   13.6120 C.3       3 GLC5        0.0000 
     13 CA         26.0620   27.4600   11.7110 C.3       9 GLL5        0.0000 
     14 CA         24.0720   26.2410   15.5130 C.3       6 GLP5        0.0000 
     15 CA         27.0680   25.7745   11.6160 C.3       3 GLC5        0.0000 
     16 CA         28.0740   24.0890   11.5210 C.3       6 GLP5        0.0000 
     17 CA         27.1890   28.7965   12.2920 C.3       3 GLC5        0.0000 
     18 CA         28.3160   30.1330   12.8730 C.3       6 GLP5        0.0000 
     19 CA         26.6135   28.3020   10.1910 C.3       3 GLC5        0.0000 
     20 CA         27.1650   29.1440    8.6710 C.3       6 GLP5        0.0000 
     21 CA         25.2230   29.1570   11.6195 C.3       3 GLC5        0.0000 
     22 O          20.4060   26.7940   14.2035 O.2       1 ALC1        0.0000 
     23 O          20.5700   28.2480   13.7160 O.2       7 ALL1        0.0000 
     24 O          20.2420   25.3400   14.6910 O.2       4 ALP1        0.0000 
     25 CA         18.9420   26.6050   15.6050 C.3       3 GLC5        0.0000 
     26 CA         18.1920   28.1990   14.2110 C.3       9 GLL5        0.0000 
     27 CA         19.6920   25.0110   16.9990 C.3       6 GLP5        0.0000 
     28 CA         17.1660   26.2345   14.5300 C.3       3 GLC5        0.0000 
     29 CA         16.1400   24.2700   14.8490 C.3       6 GLP5        0.0000 
     30 CA         16.9370   30.8545   11.3045 C.3       3 GLC5        0.0000 
     31 CA         17.3260   28.8620   11.9470 C.3       9 GLL5        0.0000 
     32 CA         16.5480   32.8470   10.6620 C.3       6 GLP5        0.0000 
     33 CA         17.0545   30.4780    9.9245 C.3       3 GLC5        0.0000 
     34 CA         17.1310   28.6110   10.5950 C.3       9 GLL5        0.0000 
     35 CA         16.9780   32.3450    9.2540 C.3       6 GLP5        0.0000 
     36 CA         17.2030   25.4650   13.5245 C.3       3 GLC5        0.0000 
     37 CA         18.2660   26.6600   12.2000 C.3       9 GLL5        0.0000 
     38 N          19.3355   27.8590   17.9065 N.am      2 SEC2        0.0000 
     39 N          19.8470   28.3480   16.5930 N.am      8 SEL2        0.0000 
     40 N          18.8240   27.3700   19.2200 N.am      5 SEP2        0.0000 
     41 O          20.7490   28.0125   17.4700 O.2       1 ALC1        0.0000 
     42 O          19.8470   28.3480   16.5930 O.2       7 ALL1        0.0000 
     43 O          21.6510   27.6770   18.3470 O.2       4 ALP1        0.0000 
     44 O          21.3915   28.7985   17.0500 O.2       1 ALC1        0.0000 
     45 O          22.9360   29.2490   17.5070 O.2       4 ALP1        0.0000 
     46 CA         18.0520   31.0405   18.2180 C.3       3 GLC5        0.0000 
     47 CA         18.9640   30.5750   16.3000 C.3       9 GLL5        0.0000 
     48 CA         17.1400   31.5060   20.1360 C.3       6 GLP5        0.0000 
     49 CA         22.9805   34.3325   14.2030 C.3       3 GLC5        0.0000 
     50 CA         21.9510   32.4930   14.6970 C.3       9 GLL5        0.0000 
     51 CA         24.0100   36.1720   13.7090 C.3       6 GLP5        0.0000 
     52 CA         21.1310   34.0410   13.5460 C.3       3 GLC5        0.0000 
     53 CA         20.3110   35.5890   12.3950 C.3       6 GLP5        0.0000 
     54 CA         23.0375   32.3965   12.9335 C.3       3 GLC5        0.0000 
     55 CA         24.1240   32.3000   11.1700 C.3       6 GLP5        0.0000 
     56 CA         22.9210   32.8655   18.8255 C.3       3 GLC5        0.0000 
     57 CA         22.2050   33.5590   17.0110 C.3       9 GLL5        0.0000 
     58 CA         23.6370   32.1720   20.6400 C.3       6 GLP5        0.0000 
     59 CA         23.0135   35.5830   15.1405 C.3       3 GLC5        0.0000 
     60 CA         22.0170   34.9940   16.5720 C.3       9 GLL5        0.0000 
     61 CA         15.7475   33.1815   14.0060 C.3       3 GLC5        0.0000 
     62 CA         16.9430   33.3280   15.7780 C.3       9 GLL5        0.0000 
     63 CA         14.5520   33.0350   12.2340 C.3       6 GLP5        0.0000 
     64 CA         15.2900   36.8785   15.7600 C.3       3 GLC5        0.0000 
     65 CA         16.4470   35.5010   16.8360 C.3       9 GLL5        0.0000 
     66 CA         14.1330   38.2560   14.6840 C.3       6 GLP5        0.0000 
     67 CA         15.1475   31.0410   15.4900 C.3       3 GLC5        0.0000 
     68 CA         15.9830   32.7550   16.6240 C.3       9 GLL5        0.0000 
     69 CA         14.3120   29.3270   14.3560 C.3       6 GLP5        0.0000 
     70 CA         16.3310   33.2005   18.9060 C.3       3 GLC5        0.0000 
     71 CA         15.5220   34.8950   17.6760 C.3       9 GLL5        0.0000 
     72 CA         14.2945   35.4290   16.0360 C.3       3 GLC5        0.0000 
     73 CA         13.0670   35.9630   14.3960 C.3       6 GLP5        0.0000 
     74 N          14.3815   34.8715   19.9855 N.am      2 SEC2        0.0000 
     75 N          14.8160   35.6090   18.6190 N.am      8 SEL2        0.0000 
     76 N          13.9470   34.1340   21.3520 N.am      5 SEP2        0.0000 
     77 CA         15.7110   36.3870   20.5585 C.3       3 GLC5        0.0000 
     78 CA         15.1220   36.9940   18.8160 C.3       9 GLL5        0.0000 
     79 CA         16.3000   35.7800   22.3010 C.3       6 GLP5        0.0000 
     80 CA         13.5605   36.1795   19.6510 C.3       3 GLC5        0.0000 
     81 CA         11.9990   35.3650   20.4860 C.3       6 GLP5        0.0000 
     82 CA         14.1230   37.8705   17.2670 C.3       3 GLC5        0.0000 
     83 CA         13.1240   38.7470   15.7180 C.3       6 GLP5        0.0000 
     84 CA         16.0008   27.3637   12.0940 C.3       3 GLC5        0.0000 
     85 CA         17.9070   27.8950   12.7510 C.3       9 GLL5        0.0000 
     86 CA         14.3850   26.3490   11.8390 C.3       6 GLP5        0.0000 
     87 CA         15.9999   28.8908   13.5350 C.3       3 GLC5        0.0000 
     88 CA         18.7295   29.2185    9.4488 C.3       3 GLC5        0.0000 
     89 CA         16.0450   28.1495    8.9603 C.3       3 GLC5        0.0000 
     90 CA         14.7790   28.3040    7.5960 C.3       6 GLP5        0.0000 
     91 CA         15.8480   27.1720   11.0817 C.3       3 GLC5        0.0000 
     92 CA         17.4910   27.3790   10.0540 C.3       9 GLL5        0.0000 
     93 CA         16.2742   26.4395   11.6825 C.3       3 GLC5        0.0000 
     94 CA         18.0610   26.4000   10.8520 C.3       9 GLL5        0.0000 
     95 CA         23.9200   34.5588   17.4802 C.3       3 GLC5        0.0000 
     96 CA         25.7290   34.8410   18.1690 C.3       6 GLP5        0.0000 
     97 CA         23.6870   32.1744   15.8695 C.3       3 GLC5        0.0000 
     98 CA         25.4200   31.3110   15.5240 C.3       6 GLP5        0.0000 
     99 CA         15.8362   31.8972   18.3070 C.3       3 GLC5        0.0000 
    100 CA         16.0320   30.6530   19.5150 C.3       6 GLP5        0.0000 
    101 CA         13.7681   33.4591   16.7133 C.3       3 GLC5        0.0000 
    102 CA         15.2980   33.5280   17.5740 C.3       9 GLL5        0.0000 
    103 CA         11.9550   32.9000   16.0390 C.3       6 GLP5        0.0000 
@<TRIPOS>BOND
@<TRIPOS>SUBSTRUCTURE
     1 ALC1       22 GROUP        1 X    ALC  0     ROOT ALC X 1
     2 SEC2        9 GROUP        1 X    SEC  0     **** SEC X 2
     3 GLC5        1 GROUP        1 X    GLC  0     **** GLC X 6
     4 ALP1       24 GROUP        1 Y    ALP  0     ROOT ALP Y 8
     5 SEP2       11 GROUP        1 Y    SEP  0     **** SEP Y 9
     6 GLP5        3 GROUP        1 Y    GLP  0     **** GLP Y 13
     7 ALL1       23 GROUP        1 Z    ALL  0     ROOT ALL Z 15
     8 SEL2       10 GROUP        1 Z    SEL  0     **** SEL Z 16
     9 GLL5        2 GROUP        1 Z    GLL  0     **** GLL Z 20
@<TRIPOS>SET

