#    Name: 4djp_M73_1_ligand
#    Modification time : Mon Apr  7 22:47:17 2014

@<TRIPOS>MOLECULE
4djp_M73_1_ligand
   79    80     1     0     0
SMALL
NO_CHARGES


@<TRIPOS>ATOM
      1 O22        20.8290   29.5300   11.8510 O.2       1 M73200      0.0000 
      2 C21        21.0400   28.5350   12.5210 C.2       1 M73200      0.0000 
      3 O23        21.7910   27.4770   11.9620 O.3       1 M73200      0.0000 
      4 C22        22.0280   27.5610   10.5510 C.3       1 M73200      0.0000 
      5 C23        22.7890   26.3110   10.1390 C.3       1 M73200      0.0000 
      6 C24        21.9370   25.0630   10.2850 C.3       1 M73200      0.0000 
      7 C25        24.0200   26.2660   10.9700 C.2       1 M73200      0.0000 
      8 O26        24.3350   25.3320   11.6870 O.2       1 M73200      0.0000 
      9 O27        24.8710   27.3890   10.9130 O.3       1 M73200      0.0000 
     10 C28        26.0620   27.4600   11.7110 C.3       1 M73200      0.0000 
     11 N20        20.5700   28.2480   13.7160 N.am      1 M73200      0.0000 
     12 C19        19.4860   29.0290   14.3020 C.3       1 M73200      0.0000 
     13 C32        18.1920   28.1990   14.2110 C.3       1 M73200      0.0000 
     14 C38        17.9070   27.8950   12.7510 C.ar      1 M73200      0.0000 
     15 C37        17.3260   28.8620   11.9470 C.ar      1 M73200      0.0000 
     16 C36        17.1310   28.6110   10.5950 C.ar      1 M73200      0.0000 
     17 C35        17.4910   27.3790   10.0540 C.ar      1 M73200      0.0000 
     18 C34        18.0610   26.4000   10.8520 C.ar      1 M73200      0.0000 
     19 C33        18.2660   26.6600   12.2000 C.ar      1 M73200      0.0000 
     20 C17        19.8820   29.4910   15.7060 C.3       1 M73200      0.0000 
     21 O18        19.8470   28.3480   16.5930 O.3       1 M73200      0.0000 
     22 C16        18.9640   30.5750   16.3000 C.3       1 M73200      0.0000 
     23 N11        19.1430   31.8060   15.5050 N.pl3     1 M73200      0.0000 
     24 C12        19.9520   32.8370   16.2060 C.3       1 M73200      0.0000 
     25 C13        21.4550   32.5400   16.1410 C.3       1 M73200      0.0000 
     26 C14        21.9510   32.4930   14.6970 C.3       1 M73200      0.0000 
     27 C15        22.2050   33.5590   17.0110 C.3       1 M73200      0.0000 
     28 C18        22.0170   34.9940   16.5720 C.3       1 M73200      0.0000 
     29 S8         17.8340   32.3970   14.7510 S.o2      1 M73200      0.0000 
     30 O9         18.3480   33.2390   13.6900 O.2       1 M73200      0.0000 
     31 O10        17.0480   31.2990   14.3430 O.2       1 M73200      0.0000 
     32 C5         16.9430   33.3280   15.7780 C.ar      1 M73200      0.0000 
     33 C4         17.1450   34.7210   15.9140 C.ar      1 M73200      0.0000 
     34 C3         16.4470   35.5010   16.8360 C.ar      1 M73200      0.0000 
     35 C6         15.9830   32.7550   16.6240 C.ar      1 M73200      0.0000 
     36 C7         15.2980   33.5280   17.5740 C.ar      1 M73200      0.0000 
     37 C2         15.5220   34.8950   17.6760 C.ar      1 M73200      0.0000 
     38 O1         14.8160   35.6090   18.6190 O.3       1 M73200      0.0000 
     39 C1         15.1220   36.9940   18.8160 C.3       1 M73200      0.0000 
     40 H          22.6327   28.4274   10.2945 H         1 M73200      0.0000 
     41 H          21.0989   27.5949    9.9873 H         1 M73200      0.0000 
     42 H          23.0732   26.4299    9.0966 H         1 M73200      0.0000 
     43 H          20.9323   27.4695   14.2985 H         1 M73200      0.0000 
     44 H          19.3399   29.9280   13.6790 H         1 M73200      0.0000 
     45 H          17.3778   28.7695   14.6330 H         1 M73200      0.0000 
     46 H          18.3259   27.2777   14.7586 H         1 M73200      0.0000 
     47 H          17.0392   29.7642   12.3488 H         1 M73200      0.0000 
     48 H          16.7200   29.3352    9.9905 H         1 M73200      0.0000 
     49 H          17.3307   27.1970    9.0507 H         1 M73200      0.0000 
     50 H          18.3281   25.4956   10.4533 H         1 M73200      0.0000 
     51 H          18.6870   25.9385   12.8058 H         1 M73200      0.0000 
     52 H          20.8909   29.8869   15.6685 H         1 M73200      0.0000 
     53 H          19.2474   30.7353   17.3310 H         1 M73200      0.0000 
     54 H          17.9425   30.2246   16.2464 H         1 M73200      0.0000 
     55 H          19.6572   32.8961   17.2632 H         1 M73200      0.0000 
     56 H          19.7759   33.8256   15.7592 H         1 M73200      0.0000 
     57 H          21.6056   31.5485   16.5908 H         1 M73200      0.0000 
     58 H          23.2789   33.3088   16.9959 H         1 M73200      0.0000 
     59 H          21.8640   33.4470   18.0538 H         1 M73200      0.0000 
     60 H          17.8493   35.1783   15.2933 H         1 M73200      0.0000 
     61 H          16.6166   36.5082   16.8906 H         1 M73200      0.0000 
     62 H          15.7759   31.7463   16.5471 H         1 M73200      0.0000 
     63 H          14.6197   33.0686   18.2026 H         1 M73200      0.0000 
     64 H          22.4361   24.2391   10.0167 H         1 M73200      0.0000 
     65 H          21.6344   24.9282   11.2285 H         1 M73200      0.0000 
     66 H          21.1151   25.1058    9.7169 H         1 M73200      0.0000 
     67 H          26.6920   26.7111   11.5054 H         1 M73200      0.0000 
     68 H          26.5610   28.3130   11.5583 H         1 M73200      0.0000 
     69 H          25.8575   27.4110   12.6886 H         1 M73200      0.0000 
     70 H          22.9306   32.2984   14.6469 H         1 M73200      0.0000 
     71 H          21.4841   31.7852   14.1668 H         1 M73200      0.0000 
     72 H          21.8000   33.3610   14.2240 H         1 M73200      0.0000 
     73 H          22.5210   35.6302   17.1562 H         1 M73200      0.0000 
     74 H          22.3357   35.1407   15.6356 H         1 M73200      0.0000 
     75 H          21.0558   35.2683   16.6008 H         1 M73200      0.0000 
     76 H          16.0729   37.1282   19.0950 H         1 M73200      0.0000 
     77 H          14.9833   37.5273   17.9815 H         1 M73200      0.0000 
     78 H          14.5479   37.4040   19.5247 H         1 M73200      0.0000 
     79 H          20.7600   28.3075   16.9988 H         1 M73200      0.0000 
@<TRIPOS>BOND
     1    2    1 2    
     2    3    2 1    
     3   11    2 am   
     4    4    3 1    
     5    5    4 1    
     6   40    4 1    
     7   41    4 1    
     8    6    5 1    
     9    7    5 1    
    10   42    5 1    
    11   64    6 1    
    12   65    6 1    
    13   66    6 1    
    14    8    7 2    
    15    9    7 1    
    16   10    9 1    
    17   67   10 1    
    18   68   10 1    
    19   69   10 1    
    20   12   11 1    
    21   43   11 1    
    22   13   12 1    
    23   20   12 1    
    24   44   12 1    
    25   14   13 1    
    26   45   13 1    
    27   46   13 1    
    28   15   14 ar   
    29   19   14 ar   
    30   16   15 ar   
    31   47   15 1    
    32   17   16 ar   
    33   48   16 1    
    34   18   17 ar   
    35   49   17 1    
    36   19   18 ar   
    37   50   18 1    
    38   51   19 1    
    39   21   20 1    
    40   22   20 1    
    41   52   20 1    
    42   79   21 1    
    43   23   22 1    
    44   53   22 1    
    45   54   22 1    
    46   24   23 1    
    47   29   23 1    
    48   25   24 1    
    49   55   24 1    
    50   56   24 1    
    51   26   25 1    
    52   27   25 1    
    53   57   25 1    
    54   70   26 1    
    55   71   26 1    
    56   72   26 1    
    57   28   27 1    
    58   58   27 1    
    59   59   27 1    
    60   73   28 1    
    61   74   28 1    
    62   75   28 1    
    63   30   29 2    
    64   31   29 2    
    65   32   29 1    
    66   33   32 ar   
    67   35   32 ar   
    68   34   33 ar   
    69   60   33 1    
    70   37   34 ar   
    71   61   34 1    
    72   36   35 ar   
    73   62   35 1    
    74   37   36 ar   
    75   63   36 1    
    76   38   37 1    
    77   39   38 1    
    78   76   39 1    
    79   77   39 1    
    80   78   39 1    
@<TRIPOS>SUBSTRUCTURE
     1 M73200      1 GROUP   
@<TRIPOS>SET

