#    Name: 3kmm_LHL_1_INTS_M
#    Modification time : Mon Mar 24 19:48:43 2014

@<TRIPOS>MOLECULE
3kmm_LHL_1_INTS_M
   76     0     9     0     0
SMALL
NO_CHARGES


@<TRIPOS>ATOM
      1 N          25.0370   34.4085   81.3685 N.am      2 SEC2        0.0000 
      2 N          24.8710   35.3000   82.4700 N.am      8 SEL2        0.0000 
      3 N          25.2030   33.5170   80.2670 N.am      5 SEP2        0.0000 
      4 CA         24.7405   34.5360   84.4660 C.3       3 GLC5        0.0000 
      5 CA         25.8730   35.9240   83.1370 C.3       9 GLL5        0.0000 
      6 CA         23.6080   33.1480   85.7950 C.3       6 GLP5        0.0000 
      7 CA         25.4990   35.7880   81.1040 C.3       3 GLC5        0.0000 
      8 CA         25.1250   35.6520   79.0710 C.3       6 GLP5        0.0000 
      9 CA         24.3330   37.2335   82.2350 C.3       3 GLC5        0.0000 
     10 CA         22.7930   38.5430   81.3330 C.3       6 GLP5        0.0000 
     11 O          27.4805   35.3180   81.4520 O.2       1 ALC1        0.0000 
     12 O          27.1930   35.6420   82.6750 O.2       7 ALL1        0.0000 
     13 O          27.7680   34.9940   80.2290 O.2       4 ALP1        0.0000 
     14 CA         24.7775   36.6020   86.7225 C.3       3 GLC5        0.0000 
     15 CA         24.4200   36.9640   84.5600 C.3       9 GLL5        0.0000 
     16 CA         25.1350   36.2400   88.8850 C.3       6 GLP5        0.0000 
     17 CA         25.2045   37.4440   87.5360 C.3       3 GLC5        0.0000 
     18 CA         25.2740   38.6480   86.1870 C.3       9 GLL5        0.0000 
     19 CA         20.4885   36.0770   82.7930 C.3       3 GLC5        0.0000 
     20 CA         21.9420   36.5920   84.3710 C.3       9 GLL5        0.0000 
     21 CA         19.0350   35.5620   81.2150 C.3       6 GLP5        0.0000 
     22 CA         20.4825   34.9085   84.3815 C.3       3 GLC5        0.0000 
     23 CA         19.0230   33.2250   84.3920 C.3       6 GLP5        0.0000 
     24 CA         23.9940   33.5480   82.1525 C.3       3 GLC5        0.0000 
     25 CA         23.6250   35.5260   82.8630 C.3       9 GLL5        0.0000 
     26 CA         24.3630   31.5700   81.4420 C.3       6 GLP5        0.0000 
     27 CA         23.6180   35.5740   80.9170 C.3       3 GLC5        0.0000 
     28 CA         23.6110   35.6220   78.9710 C.3       6 GLP5        0.0000 
     29 CA         29.4770   37.3155   86.2100 C.3       3 GLC5        0.0000 
     30 CA         29.4840   38.1190   84.3330 C.3       9 GLL5        0.0000 
     31 CA         29.4700   36.5120   88.0870 C.3       6 GLP5        0.0000 
     32 CA         30.6735   37.6760   86.7850 C.3       3 GLC5        0.0000 
     33 CA         31.8770   38.8400   85.4830 C.3       9 GLL5        0.0000 
     34 CA         31.8905   37.6875   87.6615 C.3       3 GLC5        0.0000 
     35 CA         33.2140   38.5890   86.2130 C.3       9 GLL5        0.0000 
     36 CA         30.5670   36.7860   89.1100 C.3       6 GLP5        0.0000 
     37 CA         20.0895   40.1045   83.3495 C.3       3 GLC5        0.0000 
     38 CA         20.1010   39.5240   85.1140 C.3       9 GLL5        0.0000 
     39 CA         20.0780   40.6850   81.5850 C.3       6 GLP5        0.0000 
     40 CA         18.8955   40.9640   84.8380 C.3       3 GLC5        0.0000 
     41 CA         17.6900   42.4040   84.5620 C.3       6 GLP5        0.0000 
     42 CA         23.2460   35.5305   88.2400 C.3       3 GLC5        0.0000 
     43 CA         21.3570   34.8210   87.5950 C.3       9 GLL5        0.0000 
     44 CA         22.4825   33.9845   86.6950 C.3       3 GLC5        0.0000 
     45 CA         21.9530   33.3350   88.8290 C.3       3 GLC5        0.0000 
     46 CA         22.5490   31.8490   90.0630 C.3       6 GLP5        0.0000 
     47 CA         20.9630   35.3780   89.3825 C.3       3 GLC5        0.0000 
     48 CA         20.5690   35.9350   91.1700 C.3       6 GLP5        0.0000 
     49 CA         19.7010   34.4050   86.4240 C.3       3 GLC5        0.0000 
     50 CA         18.0450   33.9890   85.2530 C.3       6 GLP5        0.0000 
     51 CA         23.4391   34.6113   84.6902 C.3       3 GLC5        0.0000 
     52 CA         23.3570   36.3450   83.9290 C.3       9 GLL5        0.0000 
     53 CA         23.0316   37.3088   82.4592 C.3       3 GLC5        0.0000 
     54 CA         28.2252   35.8585   85.2135 C.3       3 GLC5        0.0000 
     55 CA         28.3770   36.3620   83.1090 C.3       9 GLL5        0.0000 
     56 CA         28.1120   34.8000   86.8900 C.3       6 GLP5        0.0000 
     57 CA         28.8858   37.4250   81.6045 C.3       3 GLC5        0.0000 
     58 CA         28.7810   38.7180   80.3440 C.3       6 GLP5        0.0000 
     59 CA         29.7592   37.9055   81.8767 C.3       3 GLC5        0.0000 
     60 CA         30.7690   36.5430   82.9870 C.3       9 GLL5        0.0000 
     61 CA         30.5381   35.8569   85.0170 C.3       3 GLC5        0.0000 
     62 CA         29.6040   35.9020   82.6210 C.3       9 GLL5        0.0000 
     63 CA         30.6300   34.7810   86.7160 C.3       6 GLP5        0.0000 
     64 CA         28.8365   38.2567   82.2465 C.3       3 GLC5        0.0000 
     65 CA         19.2252   35.3120   86.0557 C.3       3 GLC5        0.0000 
     66 CA         20.5710   37.1540   86.4140 C.3       9 GLL5        0.0000 
     67 CA         18.8155   37.8910   89.1782 C.3       3 GLC5        0.0000 
     68 CA         18.0990   37.1650   87.7070 C.3       9 GLL5        0.0000 
     69 CA         19.3710   38.1000   91.0910 C.3       6 GLP5        0.0000 
     70 CA         16.3700   37.2665   86.8923 C.3       3 GLC5        0.0000 
     71 CA         14.4800   36.8510   86.5190 C.3       6 GLP5        0.0000 
     72 CA         17.2310   35.3200   88.4707 C.3       3 GLC5        0.0000 
     73 CA         15.9130   33.9950   89.1130 C.3       6 GLP5        0.0000 
     74 CA         18.2970   35.3170   86.5408 C.3       3 GLC5        0.0000 
     75 CA         18.9990   36.1250   87.9500 C.3       9 GLL5        0.0000 
     76 CA         20.0942   36.0277   89.3983 C.3       3 GLC5        0.0000 
@<TRIPOS>BOND
@<TRIPOS>SUBSTRUCTURE
     1 ALC1       11 GROUP        1 X    ALC  0     ROOT ALC X 1
     2 SEC2        1 GROUP        1 X    SEC  0     **** SEC X 2
     3 GLC5        4 GROUP        1 X    GLC  0     **** GLC X 6
     4 ALP1       13 GROUP        1 Y    ALP  0     ROOT ALP Y 8
     5 SEP2        3 GROUP        1 Y    SEP  0     **** SEP Y 9
     6 GLP5        6 GROUP        1 Y    GLP  0     **** GLP Y 13
     7 ALL1       12 GROUP        1 Z    ALL  0     ROOT ALL Z 15
     8 SEL2        2 GROUP        1 Z    SEL  0     **** SEL Z 16
     9 GLL5        5 GROUP        1 Z    GLL  0     **** GLL Z 20
@<TRIPOS>SET

