#    Name: 3kmm_LHL_1_ligand
#    Modification time : Mon Mar 24 19:48:43 2014

@<TRIPOS>MOLECULE
3kmm_LHL_1_ligand
   64    67     1     0     0
SMALL
NO_CHARGES


@<TRIPOS>ATOM
      1 N1         24.8710   35.3000   82.4700 N.ar      1 LHL1        0.0000 
      2 C2         25.8730   35.9240   83.1370 C.ar      1 LHL1        0.0000 
      3 N2         27.1930   35.6420   82.6750 N.pl3     1 LHL1        0.0000 
      4 N3         25.6860   36.7670   84.1810 N.ar      1 LHL1        0.0000 
      5 C4         24.4200   36.9640   84.5600 C.ar      1 LHL1        0.0000 
      6 C5         25.2740   38.6480   86.1870 C.3       1 LHL1        0.0000 
      7 N5         24.1720   37.8440   85.6500 N.am      1 LHL1        0.0000 
      8 C6         22.9020   37.9450   86.2640 C.2       1 LHL1        0.0000 
      9 O6         22.7200   38.6950   87.2330 O.2       1 LHL1        0.0000 
     10 N7         21.8620   37.1490   85.7430 N.am      1 LHL1        0.0000 
     11 C8         21.9420   36.5920   84.3710 C.3       1 LHL1        0.0000 
     12 C9         23.3570   36.3450   83.9290 C.ar      1 LHL1        0.0000 
     13 C10        23.6250   35.5260   82.8630 C.ar      1 LHL1        0.0000 
     14 C21        28.3770   36.3620   83.1090 C.ar      1 LHL1        0.0000 
     15 C22        29.6040   35.9020   82.6210 C.ar      1 LHL1        0.0000 
     16 C23        30.7690   36.5430   82.9870 C.ar      1 LHL1        0.0000 
     17 C24        30.7060   37.6430   83.8320 C.ar      1 LHL1        0.0000 
     18 O24        31.8970   38.2750   84.1720 O.3       1 LHL1        0.0000 
     19 C25        29.4840   38.1190   84.3330 C.ar      1 LHL1        0.0000 
     20 C26        28.3000   37.4720   83.9650 C.ar      1 LHL1        0.0000 
     21 C27        31.8770   38.8400   85.4830 C.3       1 LHL1        0.0000 
     22 C28        33.2140   38.5890   86.2130 C.3       1 LHL1        0.0000 
     23 N28        34.2870   39.4590   85.6670 N.4       1 LHL1        0.0000 
     24 C29        34.9180   38.8420   84.4790 C.3       1 LHL1        0.0000 
     25 C30        35.9220   39.8150   83.8420 C.3       1 LHL1        0.0000 
     26 C31        35.3080   39.7540   86.6990 C.3       1 LHL1        0.0000 
     27 C32        34.6840   40.5110   87.8810 C.3       1 LHL1        0.0000 
     28 C71        20.5710   37.1540   86.4140 C.ar      1 LHL1        0.0000 
     29 C72        19.6660   38.2010   86.1740 C.ar      1 LHL1        0.0000 
     30 CL72       20.1010   39.5240   85.1140 Cl        1 LHL1        0.0000 
     31 C73        18.4210   38.1990   86.8240 C.ar      1 LHL1        0.0000 
     32 C74        18.0990   37.1650   87.7070 C.ar      1 LHL1        0.0000 
     33 C75        18.9990   36.1250   87.9500 C.ar      1 LHL1        0.0000 
     34 C76        20.2400   36.1160   87.3030 C.ar      1 LHL1        0.0000 
     35 CL76       21.3570   34.8210   87.5950 Cl        1 LHL1        0.0000 
     36 H          27.3263   34.8743   81.9837 H         1 LHL1        0.0000 
     37 H          21.4600   37.2846   83.6589 H         1 LHL1        0.0000 
     38 H          21.3802   35.6428   84.3208 H         1 LHL1        0.0000 
     39 H          22.8171   35.0798   82.3627 H         1 LHL1        0.0000 
     40 H          29.6285   35.0896   81.9932 H         1 LHL1        0.0000 
     41 H          31.6770   36.2130   82.6400 H         1 LHL1        0.0000 
     42 H          29.4626   38.9245   84.9557 H         1 LHL1        0.0000 
     43 H          27.4015   37.7968   84.3088 H         1 LHL1        0.0000 
     44 H          31.0800   38.4064   86.1044 H         1 LHL1        0.0000 
     45 H          31.7183   39.9279   85.4584 H         1 LHL1        0.0000 
     46 H          33.4762   37.5357   86.0917 H         1 LHL1        0.0000 
     47 H          33.0642   38.7873   87.2765 H         1 LHL1        0.0000 
     48 H          33.8304   40.4115   85.3563 H         1 LHL1        0.0000 
     49 H          34.1641   38.5887   83.7318 H         1 LHL1        0.0000 
     50 H          35.4514   37.9315   84.7569 H         1 LHL1        0.0000 
     51 H          36.1085   40.3695   86.2809 H         1 LHL1        0.0000 
     52 H          35.7483   38.8283   87.0778 H         1 LHL1        0.0000 
     53 H          17.7530   38.9549   86.6491 H         1 LHL1        0.0000 
     54 H          17.1846   37.1701   88.1854 H         1 LHL1        0.0000 
     55 H          18.7532   35.3718   88.5984 H         1 LHL1        0.0000 
     56 H          26.0212   38.0755   86.5246 H         1 LHL1        0.0000 
     57 H          25.6611   39.2570   85.4947 H         1 LHL1        0.0000 
     58 H          24.9772   39.2225   86.9498 H         1 LHL1        0.0000 
     59 H          36.6489   40.0691   84.4800 H         1 LHL1        0.0000 
     60 H          36.3638   39.4187   83.0372 H         1 LHL1        0.0000 
     61 H          35.4814   40.6628   83.5469 H         1 LHL1        0.0000 
     62 H          35.3609   40.7213   88.5864 H         1 LHL1        0.0000 
     63 H          34.2801   41.3797   87.5941 H         1 LHL1        0.0000 
     64 H          33.9583   39.9811   88.3199 H         1 LHL1        0.0000 
@<TRIPOS>BOND
     1    2    1 ar   
     2   13    1 ar   
     3    3    2 1    
     4    4    2 ar   
     5   14    3 1    
     6   36    3 1    
     7    5    4 ar   
     8    7    5 1    
     9   12    5 ar   
    10    7    6 1    
    11   56    6 1    
    12   57    6 1    
    13   58    6 1    
    14    8    7 am   
    15    9    8 2    
    16   10    8 am   
    17   11   10 1    
    18   28   10 1    
    19   12   11 1    
    20   37   11 1    
    21   38   11 1    
    22   13   12 ar   
    23   39   13 1    
    24   15   14 ar   
    25   20   14 ar   
    26   16   15 ar   
    27   40   15 1    
    28   17   16 ar   
    29   41   16 1    
    30   18   17 1    
    31   19   17 ar   
    32   21   18 1    
    33   20   19 ar   
    34   42   19 1    
    35   43   20 1    
    36   22   21 1    
    37   44   21 1    
    38   45   21 1    
    39   23   22 1    
    40   46   22 1    
    41   47   22 1    
    42   24   23 1    
    43   26   23 1    
    44   48   23 1    
    45   25   24 1    
    46   49   24 1    
    47   50   24 1    
    48   59   25 1    
    49   60   25 1    
    50   61   25 1    
    51   27   26 1    
    52   51   26 1    
    53   52   26 1    
    54   62   27 1    
    55   63   27 1    
    56   64   27 1    
    57   29   28 ar   
    58   34   28 ar   
    59   30   29 1    
    60   31   29 ar   
    61   32   31 ar   
    62   53   31 1    
    63   33   32 ar   
    64   54   32 1    
    65   34   33 ar   
    66   55   33 1    
    67   35   34 1    
@<TRIPOS>SUBSTRUCTURE
     1 LHL1        1 GROUP   
@<TRIPOS>SET

