#    Name: 1u30_GOX_1_ligand
#    Modification time : Tue Mar 25 06:05:21 2014

@<TRIPOS>MOLECULE
1u30_GOX_1_ligand
   25    25     1     0     0
SMALL
NO_CHARGES


@<TRIPOS>ATOM
      1 C1          5.0370   14.4920   42.5780 C.2       1 GOX500      0.0000 
      2 N1          5.6730   14.2830   43.7430 N.2       1 GOX500      0.0000 
      3 C2          5.8710   14.3910   41.2840 C.3       1 GOX500      0.0000 
      4 N5          3.6860   14.7380   42.6570 N.pl3     1 GOX500      0.0000 
      5 O7          5.0770   14.3230   44.9140 O.3       1 GOX500      0.0000 
      6 O2          7.1730   14.9800   41.2000 O.3       1 GOX500      0.0000 
      7 C3          5.0070   14.7290   40.0480 C.3       1 GOX500      0.0000 
      8 O3          5.7030   14.0940   38.9790 O.3       1 GOX500      0.0000 
      9 C4          3.5580   14.1600   40.2450 C.3       1 GOX500      0.0000 
     10 O4          2.7590   14.4190   39.0850 O.3       1 GOX500      0.0000 
     11 C5          2.8930   14.9590   41.4340 C.3       1 GOX500      0.0000 
     12 C6          1.4770   14.5870   41.8280 C.3       1 GOX500      0.0000 
     13 O6          1.2300   13.1830   41.6700 O.3       1 GOX500      0.0000 
     14 H           6.0202   13.2289   41.1483 H         1 GOX500      0.0000 
     15 H           3.1887   14.7765   43.5483 H         1 GOX500      0.0000 
     16 H           4.9705   15.7760   39.9499 H         1 GOX500      0.0000 
     17 H           3.6086   13.1552   40.5138 H         1 GOX500      0.0000 
     18 H           2.9304   16.0158   41.1978 H         1 GOX500      0.0000 
     19 H           0.7836   15.1865   41.2103 H         1 GOX500      0.0000 
     20 H           1.3209   14.9046   42.8752 H         1 GOX500      0.0000 
     21 H           5.6544   14.9004   45.4914 H         1 GOX500      0.0000 
     22 H           7.6896   14.5742   41.9540 H         1 GOX500      0.0000 
     23 H           6.6617   14.0857   39.2633 H         1 GOX500      0.0000 
     24 H           3.3871   14.8311   38.4250 H         1 GOX500      0.0000 
     25 H           0.2553   13.0686   41.8620 H         1 GOX500      0.0000 
@<TRIPOS>BOND
     1    2    1 2    
     2    3    1 1    
     3    4    1 1    
     4    5    2 1    
     5    6    3 1    
     6    7    3 1    
     7   14    3 1    
     8   11    4 1    
     9   15    4 1    
    10   21    5 1    
    11   22    6 1    
    12    8    7 1    
    13    9    7 1    
    14   16    7 1    
    15   23    8 1    
    16   10    9 1    
    17   11    9 1    
    18   17    9 1    
    19   24   10 1    
    20   12   11 1    
    21   18   11 1    
    22   13   12 1    
    23   19   12 1    
    24   20   12 1    
    25   25   13 1    
@<TRIPOS>SUBSTRUCTURE
     1 GOX500      1 GROUP   
@<TRIPOS>SET

