#    Name: 1pt9_TAP_2_INTS_M
#    Modification time : Mon Mar 24 22:15:23 2014

@<TRIPOS>MOLECULE
1pt9_TAP_2_INTS_M
  131     0    12     0     0
SMALL
NO_CHARGES


@<TRIPOS>ATOM
      1 N           3.1025   23.5005   17.6765 N.am      2 SEC2        0.0000 
      2 N           2.8240   23.6230   19.1110 N.am     10 SEL2        0.0000 
      3 N           3.3810   23.3780   16.2420 N.am      6 SEP2        0.0000 
      4 N           2.2580   25.1885   21.2750 N.am      2 SEC2        0.0000 
      5 N           3.1990   23.8620   21.6890 N.am     10 SEL2        0.0000 
      6 N           1.3170   26.5150   20.8610 N.am      6 SEP2        0.0000 
      7 CA          3.1585   21.2410   22.9390 C.3       4 GLC5        0.0000 
      8 CA          1.6570   21.3440   21.6760 C.3      12 GLL5        0.0000 
      9 CA          4.6600   21.1380   24.2020 C.3       8 GLP5        0.0000 
     10 CA          1.5065   18.8660   22.5270 C.3       4 GLC5        0.0000 
     11 CA          0.6660   20.3820   21.1040 C.3      12 GLL5        0.0000 
     12 CA          2.3470   17.3500   23.9500 C.3       8 GLP5        0.0000 
     13 CA          0.9250   21.0710   19.0845 C.3       4 GLC5        0.0000 
     14 CA          1.1840   21.7600   17.0650 C.3       8 GLP5        0.0000 
     15 CA         -0.4600   23.1695   20.4170 C.3       4 GLC5        0.0000 
     16 CA         -0.6360   21.1950   21.1540 C.3      12 GLL5        0.0000 
     17 CA         -0.2840   25.1440   19.6800 C.3       8 GLP5        0.0000 
     18 N          -1.1800   22.1040   18.4560 N.am      2 SEC2        0.0000 
     19 N          -1.1980   21.8530   20.0250 N.am     10 SEL2        0.0000 
     20 N          -1.1620   22.3550   16.8870 N.am      6 SEP2        0.0000 
     21 O          -1.9735   22.8470   19.9255 O.2       1 ALC1        0.0000 
     22 O          -1.1980   21.8530   20.0250 O.2       9 ALL1        0.0000 
     23 O          -2.7490   23.8410   19.8260 O.2       5 ALP1        0.0000 
     24 CA         -2.0880   19.6900   19.7445 C.3       4 GLC5        0.0000 
     25 CA         -1.6530   20.2940   21.8560 C.3      12 GLL5        0.0000 
     26 CA         -2.5230   19.0860   17.6330 C.3       8 GLP5        0.0000 
     27 N          -3.3560   19.8320   19.3875 N.am      2 SEC2        0.0000 
     28 N          -2.8080   20.0190   21.0380 N.am     10 SEL2        0.0000 
     29 N          -3.9040   19.6450   17.7370 N.am      6 SEP2        0.0000 
     30 CA          0.7200   18.1680   23.0500 C.3       4 GLC5        0.0000 
     31 CA         -0.9070   18.9860   22.1500 C.3      12 GLL5        0.0000 
     32 CA         -1.7350   17.7085   20.6015 C.3       4 GLC5        0.0000 
     33 CA         -2.5630   16.4310   19.0530 C.3       8 GLP5        0.0000 
     34 CA         -0.4775   14.4365   26.5990 C.3       4 GLC5        0.0000 
     35 CA         -1.5690   15.7300   25.6260 C.3      12 GLL5        0.0000 
     36 CA          0.6140   13.1430   27.5720 C.3       8 GLP5        0.0000 
     37 O          -2.2775   14.2470   27.3995 O.2       1 ALC1        0.0000 
     38 O          -1.6220   15.5230   26.9350 O.2       9 ALL1        0.0000 
     39 O          -2.9330   12.9710   27.8640 O.2       5 ALP1        0.0000 
     40 N          -1.7620   13.2380   24.5975 N.am      2 SEC2        0.0000 
     41 N          -1.7790   14.6450   24.7500 N.am     10 SEL2        0.0000 
     42 N          -1.7450   11.8310   24.4450 N.am      6 SEP2        0.0000 
     43 CA         -2.2815   14.9370   21.5480 C.3       4 GLC5        0.0000 
     44 CA         -1.7400   14.8020   23.3950 C.3      12 GLL5        0.0000 
     45 CA         -2.8230   15.0720   19.7010 C.3       8 GLP5        0.0000 
     46 CA         -3.6275   15.1540   23.5960 C.3       4 GLC5        0.0000 
     47 CA         -5.5150   15.5060   23.7970 C.3       8 GLP5        0.0000 
     48 CA         -2.9230   13.4035   24.2240 C.3       4 GLC5        0.0000 
     49 CA         -4.1060   12.0050   25.0530 C.3       8 GLP5        0.0000 
     50 CA         -0.5670   13.4740   23.6240 C.3       4 GLC5        0.0000 
     51 CA          0.6060   12.1460   23.8530 C.3       8 GLP5        0.0000 
     52 N           4.4110   21.0115   17.6800 N.am      2 SEC2        0.0000 
     53 N           5.5690   21.5760   18.3640 N.am     10 SEL2        0.0000 
     54 N           3.2530   20.4470   16.9960 N.am      6 SEP2        0.0000 
     55 N           5.8210   22.3635   16.9315 N.am      2 SEC2        0.0000 
     56 N           6.0730   23.1510   15.4990 N.am      6 SEP2        0.0000 
     57 N           6.5220   21.1955   17.3620 N.am      2 SEC2        0.0000 
     58 N           7.4750   20.8150   16.3600 N.am      6 SEP2        0.0000 
     59 N           6.1080   20.4070   21.7025 N.am      2 SEC2        0.0000 
     60 N           6.3790   21.2760   20.6260 N.am     10 SEL2        0.0000 
     61 N           5.8370   19.5380   22.7790 N.am      6 SEP2        0.0000 
     62 N           7.6105   21.5155   21.5850 N.am      2 SEC2        0.0000 
     63 N           8.8420   21.7550   22.5440 N.am      6 SEP2        0.0000 
     64 CA          8.5300   23.1135   20.6890 C.3       4 GLC5        0.0000 
     65 CA          6.7770   24.3450   20.8000 C.3      12 GLL5        0.0000 
     66 CA         10.2830   21.8820   20.5780 C.3       8 GLP5        0.0000 
     67 CA          7.6755   23.0925   22.3840 C.3       4 GLC5        0.0000 
     68 CA          8.5740   21.8400   23.9680 C.3       8 GLP5        0.0000 
     69 CA          7.6760   23.5795   18.9435 C.3       4 GLC5        0.0000 
     70 CA          8.5750   22.8140   17.0870 C.3       8 GLP5        0.0000 
     71 O           4.5970   27.2850   18.7170 O.2       1 ALC1        0.0000 
     72 O           5.8120   27.5310   19.0960 O.2       9 ALL1        0.0000 
     73 O           3.3820   27.0390   18.3380 O.2       5 ALP1        0.0000 
     74 CA          5.8085   28.7415   22.0240 C.3       4 GLC5        0.0000 
     75 CA          7.2530   27.6730   21.7150 C.3      12 GLL5        0.0000 
     76 CA          4.3640   29.8100   22.3330 C.3       8 GLP5        0.0000 
     77 CA         11.9840   25.6960   22.0400 C.3       4 GLC5        0.0000 
     78 CA         11.5910   26.3900   23.9830 C.3      12 GLL5        0.0000 
     79 CA         12.3770   25.0020   20.0970 C.3       8 GLP5        0.0000 
     80 CA         13.9260   26.4850   25.8270 C.3       4 GLC5        0.0000 
     81 CA         12.9970   27.0720   24.3820 C.3      12 GLL5        0.0000 
     82 CA         14.8550   25.8980   27.2720 C.3       8 GLP5        0.0000 
     83 O          10.2155   24.6360   23.7255 O.2       1 ALC1        0.0000 
     84 O          11.5840   25.0820   23.7590 O.2       9 ALL1        0.0000 
     85 O           8.8470   24.1900   23.6920 O.2       5 ALP1        0.0000 
     86 O          12.3945   24.0470   24.7925 O.2       1 ALC1        0.0000 
     87 O          13.2050   23.0120   25.8260 O.2       5 ALP1        0.0000 
     88 CA          9.3835   26.6075   25.5700 C.3       4 GLC5        0.0000 
     89 CA         10.1570   28.4460   24.7280 C.3      12 GLL5        0.0000 
     90 CA          8.6100   24.7690   26.4120 C.3       8 GLP5        0.0000 
     91 NZ         -4.4500   17.8715   23.4695 N.4       3 LYC4        0.0000 
     92 NZ         -3.9670   18.0910   22.1460 N.4      11 LYL4        0.0000 
     93 NZ         -4.8050   18.6150   25.6970 N.4       7 LYP4        0.0000 
     94 N          -4.3960   16.9345   21.5200 N.am      2 SEC2        0.0000 
     95 N          -3.9670   18.0910   22.1460 N.am     10 SEL2        0.0000 
     96 N          -4.8250   15.7780   20.8940 N.am      6 SEP2        0.0000 
     97 N          -4.4500   17.8715   23.4695 N.am      2 SEC2        0.0000 
     98 N          -4.9330   17.6520   24.7930 N.am      6 SEP2        0.0000 
     99 NZ         -4.5325   20.1450   23.9160 N.4       3 LYC4        0.0000 
    100 NZ         -4.7350   20.4920   22.5000 N.4      11 LYL4        0.0000 
    101 N          -4.5325   20.1450   23.9160 N.am      2 SEC2        0.0000 
    102 N          -4.7350   20.4920   22.5000 N.am     10 SEL2        0.0000 
    103 N          -4.3300   19.7980   25.3320 N.am      6 SEP2        0.0000 
    104 NZ         -4.5075   19.4815   19.0240 N.4       3 LYC4        0.0000 
    105 NZ         -5.1110   19.3180   20.3110 N.4      11 LYL4        0.0000 
    106 NZ         -3.9040   19.6450   17.7370 N.4       7 LYP4        0.0000 
    107 N          -4.5075   19.4815   19.0240 N.am      2 SEC2        0.0000 
    108 N          -5.1110   19.3180   20.3110 N.am     10 SEL2        0.0000 
    109 N          -6.0010   18.2695   19.9750 N.am      2 SEC2        0.0000 
    110 N          -6.8910   17.2210   19.6390 N.am      6 SEP2        0.0000 
    111 N          -6.3610   19.6865   20.0315 N.am      2 SEC2        0.0000 
    112 N          -7.6110   20.0550   19.7520 N.am      6 SEP2        0.0000 
    113 CA          0.5272   17.2105   24.1837 C.3       4 GLC5        0.0000 
    114 CA         -1.2750   17.1420   23.7280 C.3      12 GLL5        0.0000 
    115 CA         -3.3981   16.5353   24.8101 C.3       4 GLC5        0.0000 
    116 CA         -1.3100   17.0000   25.1070 C.3      12 GLL5        0.0000 
    117 CA         -5.4390   16.3170   25.0730 C.3       8 GLP5        0.0000 
    118 CA          5.4793   25.8560   18.5212 C.3       4 GLC5        0.0000 
    119 CA          6.2180   25.7520   20.7350 C.3      12 GLL5        0.0000 
    120 CA          4.4330   25.5130   16.8570 C.3       8 GLP5        0.0000 
    121 CA          4.9023   26.8905   21.0147 C.3       4 GLC5        0.0000 
    122 CA          6.8330   26.6460   19.6360 C.3      12 GLL5        0.0000 
    123 CA          3.2790   27.5820   21.8440 C.3       8 GLP5        0.0000 
    124 CA          9.2527   26.7473   19.2190 C.3       4 GLC5        0.0000 
    125 CA         11.1350   26.4420   18.4380 C.3       8 GLP5        0.0000 
    126 CA         10.8887   26.8072   21.5585 C.3       4 GLC5        0.0000 
    127 CA          9.4070   27.0540   22.8660 C.3      12 GLL5        0.0000 
    128 CA         11.8890   26.4340   19.7540 C.3       8 GLP5        0.0000 
    129 CA          9.6749   25.7771   25.0425 C.3       4 GLC5        0.0000 
    130 CA         12.2955   25.6380   25.8042 C.3       4 GLC5        0.0000 
    131 CA         12.2970   24.5450   27.4260 C.3       8 GLP5        0.0000 
@<TRIPOS>BOND
@<TRIPOS>SUBSTRUCTURE
     1 ALC1       21 GROUP        1 X    ALC  0     ROOT ALC X 1
     2 SEC2        1 GROUP        1 X    SEC  0     **** SEC X 2
     3 LYC4       91 GROUP        1 X    LYC  0     **** LYC X 4
     4 GLC5        7 GROUP        1 X    GLC  0     **** GLC X 6
     5 ALP1       23 GROUP        1 Y    ALP  0     ROOT ALP Y 8
     6 SEP2        3 GROUP        1 Y    SEP  0     **** SEP Y 9
     7 LYP4       93 GROUP        1 Y    LYP  0     **** LYP Y 11
     8 GLP5        9 GROUP        1 Y    GLP  0     **** GLP Y 13
     9 ALL1       22 GROUP        1 Z    ALL  0     ROOT ALL Z 15
    10 SEL2        2 GROUP        1 Z    SEL  0     **** SEL Z 16
    11 LYL4       92 GROUP        1 Z    LYL  0     **** LYL Z 18
    12 GLL5        8 GROUP        1 Z    GLL  0     **** GLL Z 20
@<TRIPOS>SET

