#    Name: 1pt9_TAP_2_ligand
#    Modification time : Mon Mar 24 22:15:23 2014

@<TRIPOS>MOLECULE
1pt9_TAP_2_ligand
   73    77     1     0     0
SMALL
NO_CHARGES


@<TRIPOS>ATOM
      1 PA          2.8530   23.2480   20.4420 P.3       1 TAP301      0.0000 
      2 O1A         2.8240   23.6230   19.1110 O.co2     1 TAP301      0.0000 
      3 O2A         3.1990   23.8620   21.6890 O.co2     1 TAP301      0.0000 
      4 O5B         2.3380   21.7780   20.5260 O.3       1 TAP301      0.0000 
      5 C5B         1.6570   21.3440   21.6760 C.3       1 TAP301      0.0000 
      6 C4B         0.6660   20.3820   21.1040 C.3       1 TAP301      0.0000 
      7 O4B         0.4490   19.1740   21.8000 O.3       1 TAP301      0.0000 
      8 C3B        -0.6360   21.1950   21.1540 C.3       1 TAP301      0.0000 
      9 O3B        -1.1980   21.8530   20.0250 O.3       1 TAP301      0.0000 
     10 C2B        -1.6530   20.2940   21.8560 C.3       1 TAP301      0.0000 
     11 O2B        -2.8080   20.0190   21.0380 O.3       1 TAP301      0.0000 
     12 C1B        -0.9070   18.9860   22.1500 C.3       1 TAP301      0.0000 
     13 N9A        -1.0160   18.4350   23.5170 N.pl3     1 TAP301      0.0000 
     14 C8A        -0.8980   19.0610   24.7430 C.2       1 TAP301      0.0000 
     15 N7A        -1.0850   18.1520   25.7160 N.2       1 TAP301      0.0000 
     16 C5A        -1.3100   17.0000   25.1070 C.ar      1 TAP301      0.0000 
     17 C6A        -1.5690   15.7300   25.6260 C.ar      1 TAP301      0.0000 
     18 N6A        -1.6220   15.5230   26.9350 N.pl3     1 TAP301      0.0000 
     19 N1A        -1.7790   14.6450   24.7500 N.ar      1 TAP301      0.0000 
     20 C2A        -1.7400   14.8020   23.3950 C.ar      1 TAP301      0.0000 
     21 N3A        -1.4890   16.0440   22.9130 N.ar      1 TAP301      0.0000 
     22 C4A        -1.2750   17.1420   23.7280 C.ar      1 TAP301      0.0000 
     23 O3          4.4080   22.8710   20.3680 O.3       1 TAP301      0.0000 
     24 PN          5.7970   22.1930   19.6500 P.3       1 TAP301      0.0000 
     25 O1N         5.5690   21.5760   18.3640 O.co2     1 TAP301      0.0000 
     26 O2N         6.3790   21.2760   20.6260 O.co2     1 TAP301      0.0000 
     27 O5D         6.4910   23.6280   19.5990 O.3       1 TAP301      0.0000 
     28 C5D         6.7770   24.3450   20.8000 C.3       1 TAP301      0.0000 
     29 C4D         6.2180   25.7520   20.7350 C.3       1 TAP301      0.0000 
     30 O4D         6.5060   26.4500   21.9690 O.3       1 TAP301      0.0000 
     31 C3D         6.8330   26.6460   19.6360 C.3       1 TAP301      0.0000 
     32 O3D         5.8120   27.5310   19.0960 O.3       1 TAP301      0.0000 
     33 C2D         7.9080   27.4590   20.3640 C.3       1 TAP301      0.0000 
     34 O2D         8.2850   28.6310   19.6490 O.3       1 TAP301      0.0000 
     35 C1D         7.2530   27.6730   21.7150 C.3       1 TAP301      0.0000 
     36 N1N         8.2630   27.9290   22.7530 N.pl3     1 TAP301      0.0000 
     37 C2N         9.4070   27.0540   22.8660 C.ar      1 TAP301      0.0000 
     38 C3N        10.3700   27.3070   23.8600 C.ar      1 TAP301      0.0000 
     39 C7N        11.5910   26.3900   23.9830 C.2       1 TAP301      0.0000 
     40 S7N        12.9970   27.0720   24.3820 S.2       1 TAP301      0.0000 
     41 N7N        11.5840   25.0820   23.7590 N.am      1 TAP301      0.0000 
     42 C4N        10.1570   28.4460   24.7280 C.ar      1 TAP301      0.0000 
     43 C5N         9.0120   29.3370   24.6310 C.ar      1 TAP301      0.0000 
     44 C6N         8.0470   29.0660   23.6170 C.ar      1 TAP301      0.0000 
     45 P2B        -4.2540   19.4690   21.5590 P.3       1 TAP301      0.0000 
     46 O1X        -3.9670   18.0910   22.1460 O.co2     1 TAP301      0.0000 
     47 O2X        -4.7350   20.4920   22.5000 O.co2     1 TAP301      0.0000 
     48 O3X        -5.1110   19.3180   20.3110 O.co2     1 TAP301      0.0000 
     49 H           1.1273   22.1375   22.1648 H         1 TAP301      0.0000 
     50 H           2.2952   20.8190   22.3589 H         1 TAP301      0.0000 
     51 H           0.8762   20.2447   20.0562 H         1 TAP301      0.0000 
     52 H          -0.4298   21.9906   21.9800 H         1 TAP301      0.0000 
     53 H          -1.9087   20.7376   22.7940 H         1 TAP301      0.0000 
     54 H          -1.3343   18.2282   21.4371 H         1 TAP301      0.0000 
     55 H          -0.7114   19.9992   24.8595 H         1 TAP301      0.0000 
     56 H          -1.0858   16.1487   27.5015 H         1 TAP301      0.0000 
     57 H          -2.1934   14.7599   27.2370 H         1 TAP301      0.0000 
     58 H          -1.8951   14.0086   22.7692 H         1 TAP301      0.0000 
     59 H           7.8623   24.4189   20.9766 H         1 TAP301      0.0000 
     60 H           6.3402   23.8467   21.6806 H         1 TAP301      0.0000 
     61 H           5.1538   25.7231   20.5792 H         1 TAP301      0.0000 
     62 H           7.2850   26.0360   18.9168 H         1 TAP301      0.0000 
     63 H           8.7374   26.7680   20.5218 H         1 TAP301      0.0000 
     64 H           6.5761   28.5022   21.6216 H         1 TAP301      0.0000 
     65 H           9.4991   26.2733   22.2299 H         1 TAP301      0.0000 
     66 H          12.4653   24.6167   23.8417 H         1 TAP301      0.0000 
     67 H          10.6981   24.6799   23.5277 H         1 TAP301      0.0000 
     68 H          10.8617   28.6401   25.4636 H         1 TAP301      0.0000 
     69 H           8.9172   30.1050   25.2563 H         1 TAP301      0.0000 
     70 H           7.2378   29.6438   23.5001 H         1 TAP301      0.0000 
     71 H          -1.3531   22.7944   20.3249 H         1 TAP301      0.0000 
     72 H           5.0306   26.9374   18.9034 H         1 TAP301      0.0000 
     73 H           7.7008   28.6381   18.8375 H         1 TAP301      0.0000 
@<TRIPOS>BOND
     1    2    1 ar   
     2    3    1 ar   
     3    4    1 1    
     4   23    1 1    
     5    5    4 1    
     6    6    5 1    
     7   49    5 1    
     8   50    5 1    
     9    7    6 1    
    10    8    6 1    
    11   51    6 1    
    12   12    7 1    
    13    9    8 1    
    14   10    8 1    
    15   52    8 1    
    16   71    9 1    
    17   11   10 1    
    18   12   10 1    
    19   53   10 1    
    20   45   11 1    
    21   13   12 1    
    22   54   12 1    
    23   14   13 1    
    24   22   13 1    
    25   15   14 2    
    26   55   14 1    
    27   16   15 1    
    28   17   16 ar   
    29   22   16 ar   
    30   18   17 1    
    31   19   17 ar   
    32   56   18 1    
    33   57   18 1    
    34   20   19 ar   
    35   21   20 ar   
    36   58   20 1    
    37   22   21 ar   
    38   24   23 1    
    39   25   24 ar   
    40   26   24 ar   
    41   27   24 1    
    42   28   27 1    
    43   29   28 1    
    44   59   28 1    
    45   60   28 1    
    46   30   29 1    
    47   31   29 1    
    48   61   29 1    
    49   35   30 1    
    50   32   31 1    
    51   33   31 1    
    52   62   31 1    
    53   72   32 1    
    54   34   33 1    
    55   35   33 1    
    56   63   33 1    
    57   73   34 1    
    58   36   35 1    
    59   64   35 1    
    60   37   36 ar   
    61   44   36 ar   
    62   38   37 ar   
    63   65   37 1    
    64   39   38 1    
    65   42   38 ar   
    66   40   39 2    
    67   41   39 am   
    68   66   41 1    
    69   67   41 1    
    70   43   42 ar   
    71   68   42 1    
    72   44   43 ar   
    73   69   43 1    
    74   70   44 1    
    75   46   45 ar   
    76   47   45 ar   
    77   48   45 ar   
@<TRIPOS>SUBSTRUCTURE
     1 TAP301      1 GROUP   
@<TRIPOS>SET

