#    Name: 3imx_B84_1_INTS_M
#    Modification time : Tue Mar 25 16:45:37 2014

@<TRIPOS>MOLECULE
3imx_B84_1_INTS_M
   97     0     9     0     0
SMALL
NO_CHARGES


@<TRIPOS>ATOM
      1 CA          4.2480    8.4605  -16.1475 C.3       3 GLC5        0.0000 
      2 CA          2.2550    7.7760  -16.8080 C.3       9 GLL5        0.0000 
      3 CA          6.2410    9.1450  -15.4870 C.3       6 GLP5        0.0000 
      4 CA          0.9435    6.3605  -17.4565 C.3       3 GLC5        0.0000 
      5 CA         -0.3680    4.9450  -18.1050 C.3       6 GLP5        0.0000 
      6 CA          4.3255    9.6585  -16.9910 C.3       3 GLC5        0.0000 
      7 CA          2.2660    9.0710  -17.6240 C.3       9 GLL5        0.0000 
      8 CA          6.3850   10.2460  -16.3580 C.3       6 GLP5        0.0000 
      9 CA          0.0875    9.3380  -17.9220 C.3       3 GLC5        0.0000 
     10 CA         -2.0910    9.6050  -18.2200 C.3       6 GLP5        0.0000 
     11 O           1.1520    8.1995  -19.7320 O.2       1 ALC1        0.0000 
     12 O           2.2840    8.7290  -19.0700 O.2       7 ALL1        0.0000 
     13 O           0.0200    7.6700  -20.3940 O.2       4 ALP1        0.0000 
     14 CA          4.1765    8.8050  -20.9385 C.3       3 GLC5        0.0000 
     15 CA          3.5840    8.0730  -19.3990 C.3       9 GLL5        0.0000 
     16 CA          4.7690    9.5370  -22.4780 C.3       6 GLP5        0.0000 
     17 CA          1.6500    5.8240  -18.4005 C.3       3 GLC5        0.0000 
     18 CA          3.6680    6.7030  -18.6960 C.3       9 GLL5        0.0000 
     19 CA          1.4840    8.4955  -20.6035 C.3       3 GLC5        0.0000 
     20 CA          2.2520   10.0150  -19.7830 C.3       9 GLL5        0.0000 
     21 CA          0.7160    6.9760  -21.4240 C.3       6 GLP5        0.0000 
     22 CA          2.0015   11.7850  -19.7575 C.3       3 GLC5        0.0000 
     23 CA          1.7510   13.5550  -19.7320 C.3       6 GLP5        0.0000 
     24 CA          3.5335   10.4420  -20.9005 C.3       3 GLC5        0.0000 
     25 CA          4.8150   10.8690  -22.0180 C.3       6 GLP5        0.0000 
     26 CA         -0.5320    4.5205  -14.3500 C.3       3 GLC5        0.0000 
     27 CA          1.2460    3.3010  -14.9250 C.3       9 GLL5        0.0000 
     28 CA         -2.3100    5.7400  -13.7750 C.3       6 GLP5        0.0000 
     29 CA         -0.2325   -0.3430  -13.1265 C.3       3 GLC5        0.0000 
     30 CA          1.0430    0.1760  -14.3460 C.3       9 GLL5        0.0000 
     31 CA         -1.5080   -0.8620  -11.9070 C.3       6 GLP5        0.0000 
     32 CA          4.2705    0.9380  -14.7530 C.3       3 GLC5        0.0000 
     33 CA          2.5760    0.0280  -14.1070 C.3       9 GLL5        0.0000 
     34 CA          5.9650    1.8480  -15.3990 C.3       6 GLP5        0.0000 
     35 CA          0.6770   -0.6875  -12.3070 C.3       3 GLC5        0.0000 
     36 CA          2.8620   -0.5130  -12.7070 C.3       9 GLL5        0.0000 
     37 CA          2.0455    1.1360  -11.5045 C.3       3 GLC5        0.0000 
     38 CA          1.2290    2.7850  -10.3020 C.3       6 GLP5        0.0000 
     39 CA          5.7640   -0.2440  -13.0680 C.3       3 GLC5        0.0000 
     40 CA          4.1920   -1.2480  -12.8710 C.3       9 GLL5        0.0000 
     41 CA          7.3360    0.7600  -13.2650 C.3       6 GLP5        0.0000 
     42 CA          5.6900   -0.9205  -14.3725 C.3       3 GLC5        0.0000 
     43 CA          4.0230   -1.9570  -14.2390 C.3       9 GLL5        0.0000 
     44 CA          7.3570    0.1160  -14.5060 C.3       6 GLP5        0.0000 
     45 CA          4.9640   -0.1330  -15.3345 C.3       3 GLC5        0.0000 
     46 CA          3.2590   -0.9320  -15.1080 C.3       9 GLL5        0.0000 
     47 CA          6.6690    0.6660  -15.5610 C.3       6 GLP5        0.0000 
     48 O          -0.8400   -1.3105  -15.8470 O.2       1 ALC1        0.0000 
     49 O          -1.5110   -0.1270  -15.7570 O.2       7 ALL1        0.0000 
     50 O          -0.1690   -2.4940  -15.9370 O.2       4 ALP1        0.0000 
     51 CA         -3.5040    2.3450  -14.8150 C.3       3 GLC5        0.0000 
     52 CA         -3.8690    1.2270  -16.5110 C.3       9 GLL5        0.0000 
     53 CA         -3.1390    3.4630  -13.1190 C.3       6 GLP5        0.0000 
     54 CA         -2.7530    2.1100  -17.7920 C.3       3 GLC5        0.0000 
     55 CA         -1.6370    2.9930  -19.0730 C.3       6 GLP5        0.0000 
     56 CA         -5.0365    2.6985  -17.3660 C.3       3 GLC5        0.0000 
     57 CA         -6.2040    4.1700  -18.2210 C.3       6 GLP5        0.0000 
     58 CA         -6.1120    2.2455  -16.8285 C.3       3 GLC5        0.0000 
     59 CA         -5.3460    0.2950  -16.7970 C.3       9 GLL5        0.0000 
     60 CA         -6.8780    4.1960  -16.8600 C.3       6 GLP5        0.0000 
     61 CA         -5.2220   -4.0880  -16.8035 C.3       3 GLC5        0.0000 
     62 CA         -5.9450   -2.0640  -16.6850 C.3       9 GLL5        0.0000 
     63 CA         -4.4990   -6.1120  -16.9220 C.3       6 GLP5        0.0000 
     64 N          -3.0175   -2.2755  -15.2685 N.am      2 SEC2        0.0000 
     65 N          -3.6330   -1.1830  -16.1870 N.am      8 SEL2        0.0000 
     66 N          -2.4020   -3.3680  -14.3500 N.am      5 SEP2        0.0000 
     67 CA         -7.8185    2.7340  -17.6510 C.3       3 GLC5        0.0000 
     68 CA         -8.7590    1.2720  -18.4420 C.3       9 GLL5        0.0000 
     69 CA         -7.4295    0.2420  -19.5175 C.3       3 GLC5        0.0000 
     70 CA         -6.1000   -0.7880  -20.5930 C.3       6 GLP5        0.0000 
     71 CA          2.4383    9.4178  -15.6395 C.3       3 GLC5        0.0000 
     72 CA          2.6160   10.4120  -14.0630 C.3       6 GLP5        0.0000 
     73 CA          2.1710    7.1820  -20.2358 C.3       3 GLC5        0.0000 
     74 CA          1.3938    4.4548  -17.2860 C.3       3 GLC5        0.0000 
     75 CA          3.0550    4.4950  -16.0250 C.3       9 GLL5        0.0000 
     76 CA          0.7983    3.6025  -17.2015 C.3       3 GLC5        0.0000 
     77 CA          2.4630    2.2980  -16.7930 C.3       9 GLL5        0.0000 
     78 CA          1.7047    4.4010  -13.2280 C.3       3 GLC5        0.0000 
     79 CA          1.7650    4.9330  -11.4730 C.3       6 GLP5        0.0000 
     80 CA          0.6383    4.4070  -16.5440 C.3       3 GLC5        0.0000 
     81 CA          2.0430    4.4370  -15.0410 C.3       9 GLL5        0.0000 
     82 CA          3.1890   -0.9262  -10.8190 C.3       3 GLC5        0.0000 
     83 CA          2.8510   -0.9720   -8.8490 C.3       6 GLP5        0.0000 
     84 CA          2.7810   -2.8078  -15.6338 C.3       3 GLC5        0.0000 
     85 CA          1.9210   -4.1710  -16.5940 C.3       6 GLP5        0.0000 
     86 CA          3.0685   -2.9959  -12.9980 C.3       3 GLC5        0.0000 
     87 CA          2.3620   -4.5730  -12.4820 C.3       6 GLP5        0.0000 
     88 CA         -5.5122    0.8100  -15.0820 C.3       3 GLC5        0.0000 
     89 CA         -6.4170    0.8590  -13.5100 C.3       6 GLP5        0.0000 
     90 CA         -8.4195   -0.2280  -15.6070 C.3       3 GLC5        0.0000 
     91 CA         -7.5300   -0.3160  -17.2980 C.3       9 GLL5        0.0000 
     92 CA         -9.4580    0.5440  -14.0340 C.3       6 GLP5        0.0000 
     93 CA         -5.9262   -0.3478  -15.0602 C.3       3 GLC5        0.0000 
     94 CA         -3.3674   -0.5985  -17.9995 C.3       3 GLC5        0.0000 
     95 CA         -4.9260   -1.0450  -16.5360 C.3       9 GLL5        0.0000 
     96 CA         -1.9680   -1.0550  -19.4040 C.3       6 GLP5        0.0000 
     97 CA         -6.2804   -0.9489  -18.7604 C.3       3 GLC5        0.0000 
@<TRIPOS>BOND
@<TRIPOS>SUBSTRUCTURE
     1 ALC1       11 GROUP        1 X    ALC  0     ROOT ALC X 1
     2 SEC2       64 GROUP        1 X    SEC  0     **** SEC X 2
     3 GLC5        1 GROUP        1 X    GLC  0     **** GLC X 6
     4 ALP1       13 GROUP        1 Y    ALP  0     ROOT ALP Y 8
     5 SEP2       66 GROUP        1 Y    SEP  0     **** SEP Y 9
     6 GLP5        3 GROUP        1 Y    GLP  0     **** GLP Y 13
     7 ALL1       12 GROUP        1 Z    ALL  0     ROOT ALL Z 15
     8 SEL2       65 GROUP        1 Z    SEL  0     **** SEL Z 16
     9 GLL5        2 GROUP        1 Z    GLL  0     **** GLL Z 20
@<TRIPOS>SET

