#    Name: 3imx_B84_1_ligand
#    Modification time : Tue Mar 25 16:45:37 2014

@<TRIPOS>MOLECULE
3imx_B84_1_ligand
   71    75     1     0     0
SMALL
NO_CHARGES


@<TRIPOS>ATOM
      1 S1          4.0870    5.9000  -16.1130 S.o2      1 B84466      0.0000 
      2 O2          5.3290    5.4560  -16.6500 O.2       1 B84466      0.0000 
      3 O3          3.9680    6.4970  -14.8280 O.2       1 B84466      0.0000 
      4 N4          3.4180    6.9150  -17.2180 N.pl3     1 B84466      0.0000 
      5 C5          2.2550    7.7760  -16.8080 C.3       1 B84466      0.0000 
      6 C8          2.2660    9.0710  -17.6240 C.3       1 B84466      0.0000 
      7 N11         2.2840    8.7290  -19.0700 N.4       1 B84466      0.0000 
      8 C12         3.5840    8.0730  -19.3990 C.3       1 B84466      0.0000 
      9 C15         3.6680    6.7030  -18.6960 C.3       1 B84466      0.0000 
     10 C18         2.2520   10.0150  -19.7830 C.3       1 B84466      0.0000 
     11 C22         3.0550    4.4950  -16.0250 C.ar      1 B84466      0.0000 
     12 C23         3.2560    3.4340  -16.9090 C.ar      1 B84466      0.0000 
     13 C25         2.4630    2.2980  -16.7930 C.ar      1 B84466      0.0000 
     14 C27         1.4660    2.2220  -15.8030 C.ar      1 B84466      0.0000 
     15 C28         1.2460    3.3010  -14.9250 C.ar      1 B84466      0.0000 
     16 C30         2.0430    4.4370  -15.0410 C.ar      1 B84466      0.0000 
     17 C32         0.6830    0.9170  -15.6790 C.3       1 B84466      0.0000 
     18 C34         1.0430    0.1760  -14.3460 C.3       1 B84466      0.0000 
     19 C37         2.5760    0.0280  -14.1070 C.3       1 B84466      0.0000 
     20 C39         2.8620   -0.5130  -12.7070 C.3       1 B84466      0.0000 
     21 C42         4.1920   -1.2480  -12.8710 C.3       1 B84466      0.0000 
     22 C45         4.0230   -1.9570  -14.2390 C.3       1 B84466      0.0000 
     23 C48         3.2590   -0.9320  -15.1080 C.3       1 B84466      0.0000 
     24 C51        -0.8030    1.0350  -15.7920 C.2       1 B84466      0.0000 
     25 O52        -1.3540    2.1300  -15.8980 O.2       1 B84466      0.0000 
     26 N53        -1.5110   -0.1270  -15.7570 N.am      1 B84466      0.0000 
     27 C55        -2.8290   -0.1530  -16.0930 C.2       1 B84466      0.0000 
     28 S56        -3.8690    1.2270  -16.5110 S.3       1 B84466      0.0000 
     29 C57        -5.3460    0.2950  -16.7970 C.ar      1 B84466      0.0000 
     30 N58        -6.5670    0.6060  -17.1510 N.ar      1 B84466      0.0000 
     31 C59        -7.5300   -0.3160  -17.2980 C.ar      1 B84466      0.0000 
     32 C60        -7.2320   -1.6840  -17.0620 C.ar      1 B84466      0.0000 
     33 C62        -5.9450   -2.0640  -16.6850 C.ar      1 B84466      0.0000 
     34 C64        -4.9260   -1.0450  -16.5360 C.ar      1 B84466      0.0000 
     35 N65        -3.6330   -1.1830  -16.1870 N.2       1 B84466      0.0000 
     36 O66        -8.7900    0.0510  -17.6630 O.3       1 B84466      0.0000 
     37 C67        -8.7590    1.2720  -18.4420 C.3       1 B84466      0.0000 
     38 H           2.3293    8.0232  -15.7537 H         1 B84466      0.0000 
     39 H           1.3222    7.2521  -16.9911 H         1 B84466      0.0000 
     40 H           3.1490    9.6428  -17.3576 H         1 B84466      0.0000 
     41 H           1.3772    9.6438  -17.3798 H         1 B84466      0.0000 
     42 H           1.4763    8.1307  -19.3289 H         1 B84466      0.0000 
     43 H           4.4148    8.6855  -19.0595 H         1 B84466      0.0000 
     44 H           3.6692    7.9156  -20.4707 H         1 B84466      0.0000 
     45 H           2.9154    6.0515  -19.1087 H         1 B84466      0.0000 
     46 H           4.6519    6.2910  -18.8494 H         1 B84466      0.0000 
     47 H           3.9763    3.4936  -17.6304 H         1 B84466      0.0000 
     48 H           2.6003    1.5033  -17.4319 H         1 B84466      0.0000 
     49 H           0.5148    3.2444  -14.2198 H         1 B84466      0.0000 
     50 H           1.9022    5.2370  -14.4158 H         1 B84466      0.0000 
     51 H           1.0377    0.2345  -16.4869 H         1 B84466      0.0000 
     52 H           0.5909   -0.8194  -14.3685 H         1 B84466      0.0000 
     53 H           0.6069    0.7312  -13.5109 H         1 B84466      0.0000 
     54 H           3.0414    0.9966  -14.1957 H         1 B84466      0.0000 
     55 H           2.1052   -1.1987  -12.4251 H         1 B84466      0.0000 
     56 H           2.9778    0.2915  -12.0275 H         1 B84466      0.0000 
     57 H           4.3027   -1.9727  -12.1144 H         1 B84466      0.0000 
     58 H           4.9845   -0.5565  -12.9326 H         1 B84466      0.0000 
     59 H           3.4349   -2.8273  -14.1152 H         1 B84466      0.0000 
     60 H           4.9751   -2.1418  -14.6608 H         1 B84466      0.0000 
     61 H           3.9490   -0.3891  -15.7065 H         1 B84466      0.0000 
     62 H           2.5181   -1.4340  -15.6809 H         1 B84466      0.0000 
     63 H          -1.0354   -1.0110  -15.4681 H         1 B84466      0.0000 
     64 H          -7.9712   -2.3834  -17.1719 H         1 B84466      0.0000 
     65 H          -5.7012   -3.0304  -16.5123 H         1 B84466      0.0000 
     66 H           3.0397   10.5867  -19.5534 H         1 B84466      0.0000 
     67 H           2.2599    9.8899  -20.7751 H         1 B84466      0.0000 
     68 H           1.4322   10.5426  -19.5606 H         1 B84466      0.0000 
     69 H          -8.3557    2.0297  -17.9290 H         1 B84466      0.0000 
     70 H          -8.2214    1.1653  -19.2784 H         1 B84466      0.0000 
     71 H          -9.6761    1.5600  -18.7177 H         1 B84466      0.0000 
@<TRIPOS>BOND
     1    2    1 2    
     2    3    1 2    
     3    4    1 1    
     4   11    1 1    
     5    5    4 1    
     6    9    4 1    
     7    6    5 1    
     8   38    5 1    
     9   39    5 1    
    10    7    6 1    
    11   40    6 1    
    12   41    6 1    
    13    8    7 1    
    14   10    7 1    
    15   42    7 1    
    16    9    8 1    
    17   43    8 1    
    18   44    8 1    
    19   45    9 1    
    20   46    9 1    
    21   66   10 1    
    22   67   10 1    
    23   68   10 1    
    24   12   11 ar   
    25   16   11 ar   
    26   13   12 ar   
    27   47   12 1    
    28   14   13 ar   
    29   48   13 1    
    30   15   14 ar   
    31   17   14 1    
    32   16   15 ar   
    33   49   15 1    
    34   50   16 1    
    35   18   17 1    
    36   24   17 1    
    37   51   17 1    
    38   19   18 1    
    39   52   18 1    
    40   53   18 1    
    41   20   19 1    
    42   23   19 1    
    43   54   19 1    
    44   21   20 1    
    45   55   20 1    
    46   56   20 1    
    47   22   21 1    
    48   57   21 1    
    49   58   21 1    
    50   23   22 1    
    51   59   22 1    
    52   60   22 1    
    53   61   23 1    
    54   62   23 1    
    55   25   24 2    
    56   26   24 am   
    57   27   26 1    
    58   63   26 1    
    59   28   27 1    
    60   35   27 2    
    61   29   28 1    
    62   30   29 ar   
    63   34   29 ar   
    64   31   30 ar   
    65   32   31 ar   
    66   36   31 1    
    67   33   32 ar   
    68   64   32 1    
    69   34   33 ar   
    70   65   33 1    
    71   35   34 1    
    72   37   36 1    
    73   69   37 1    
    74   70   37 1    
    75   71   37 1    
@<TRIPOS>SUBSTRUCTURE
     1 B84466      1 GROUP   
@<TRIPOS>SET

