#    Name: 3ofu_ID3_1_INTS_M
#    Modification time : Tue Mar 25 04:33:16 2014

@<TRIPOS>MOLECULE
3ofu_ID3_1_INTS_M
   33     0     3     0     0
SMALL
NO_CHARGES


@<TRIPOS>ATOM
      1 CA          9.2920    9.8165   28.3415 C.3       1 GLC5        0.0000 
      2 CA         10.0680   11.7320   27.7340 C.3       3 GLL5        0.0000 
      3 CA          8.5160    7.9010   28.9490 C.3       2 GLP5        0.0000 
      4 CA         11.7360   10.9805   26.5145 C.3       1 GLC5        0.0000 
      5 CA         13.4040   10.2290   25.2950 C.3       2 GLP5        0.0000 
      6 CA         10.3010   13.1585   25.4920 C.3       1 GLC5        0.0000 
      7 CA          8.8550   12.1340   26.8160 C.3       3 GLL5        0.0000 
      8 CA         11.7470   14.1830   24.1680 C.3       2 GLP5        0.0000 
      9 CA          5.6185   13.0660   27.4685 C.3       1 GLC5        0.0000 
     10 CA          7.8580   13.0750   27.5540 C.3       3 GLL5        0.0000 
     11 CA          3.3790   13.0570   27.3830 C.3       2 GLP5        0.0000 
     12 CA          7.4525   14.6995   26.3140 C.3       1 GLC5        0.0000 
     13 CA          7.0470   16.3240   25.0740 C.3       2 GLP5        0.0000 
     14 CA         10.8010   10.1230   30.8680 C.3       1 GLC5        0.0000 
     15 CA         11.3160   11.9860   30.0000 C.3       3 GLL5        0.0000 
     16 CA         10.2860    8.2600   31.7360 C.3       2 GLP5        0.0000 
     17 CA         12.6815   13.7385   29.8205 C.3       1 GLC5        0.0000 
     18 CA         14.0470   15.4910   29.6410 C.3       2 GLP5        0.0000 
     19 CA         11.2150   14.0545   26.3415 C.3       1 GLC5        0.0000 
     20 CA         10.6830   13.9260   28.5150 C.3       3 GLL5        0.0000 
     21 CA         12.3650   14.7085   29.0780 C.3       1 GLC5        0.0000 
     22 CA         10.4650   15.5995   28.0365 C.3       1 GLC5        0.0000 
     23 CA         10.2470   17.2730   27.5580 C.3       2 GLP5        0.0000 
     24 CA          4.8755   13.0845   30.8240 C.3       1 GLC5        0.0000 
     25 CA          6.4290   12.8200   29.7300 C.3       3 GLL5        0.0000 
     26 CA          3.3220   13.3490   31.9180 C.3       2 GLP5        0.0000 
     27 CA          4.9040   12.9385   28.5565 C.3       1 GLC5        0.0000 
     28 CA         10.5100   12.0605   35.7675 C.3       1 GLC5        0.0000 
     29 CA          9.8940   13.0130   34.5510 C.3       3 GLL5        0.0000 
     30 CA         11.1260   11.1080   36.9840 C.3       2 GLP5        0.0000 
     31 CA          7.8982   11.2995   32.5862 C.3       1 GLC5        0.0000 
     32 CA          8.5520   13.5850   32.3530 C.3       3 GLL5        0.0000 
     33 CA          7.0430    9.4930   33.2810 C.3       2 GLP5        0.0000 
@<TRIPOS>BOND
@<TRIPOS>SUBSTRUCTURE
     1 GLC5        1 GROUP        1 X    GLC  0     ROOT GLC X 6
     2 GLP5        3 GROUP        1 Y    GLP  0     ROOT GLP Y 13
     3 GLL5        2 GROUP        1 Z    GLL  0     ROOT GLL Z 20
@<TRIPOS>SET

