#    Name: 3ofu_ID3_1_ligand
#    Modification time : Tue Mar 25 04:33:16 2014

@<TRIPOS>MOLECULE
3ofu_ID3_1_ligand
   34    34     1     0     0
SMALL
NO_CHARGES


@<TRIPOS>ATOM
      1 C1         10.2350   12.5520   29.0420 C.3       1 ID3397      0.0000 
      2 O1          7.8360   14.0450   34.6450 O.2       1 ID3397      0.0000 
      3 C2         10.0680   11.7320   27.7340 C.3       1 ID3397      0.0000 
      4 C3          8.8550   12.1340   26.8160 C.3       1 ID3397      0.0000 
      5 C4          7.8580   13.0750   27.5540 C.3       1 ID3397      0.0000 
      6 C5          7.7880   12.8720   29.1060 C.2       1 ID3397      0.0000 
      7 C6          8.9150   12.7010   29.8800 C.2       1 ID3397      0.0000 
      8 C7          8.9550   12.6270   31.4300 C.2       1 ID3397      0.0000 
      9 C8          8.5520   13.5850   32.3530 C.2       1 ID3397      0.0000 
     10 C9          8.6710   13.5700   33.8950 C.2       1 ID3397      0.0000 
     11 C16        11.3160   11.9860   30.0000 C.3       1 ID3397      0.0000 
     12 C17        10.6830   13.9260   28.5150 C.3       1 ID3397      0.0000 
     13 C18         6.4290   12.8200   29.7300 C.3       1 ID3397      0.0000 
     14 C19         9.8940   13.0130   34.5510 C.3       1 ID3397      0.0000 
     15 H           9.9604   10.6641   27.9941 H         1 ID3397      0.0000 
     16 H          10.9927   11.8214   27.1368 H         1 ID3397      0.0000 
     17 H           8.3360   11.2303   26.5146 H         1 ID3397      0.0000 
     18 H           9.2402   12.6408   25.9375 H         1 ID3397      0.0000 
     19 H           6.8524   12.9206   27.1385 H         1 ID3397      0.0000 
     20 H           8.1412   14.1177   27.3532 H         1 ID3397      0.0000 
     21 H           9.3526   11.6979   31.7753 H         1 ID3397      0.0000 
     22 H           8.0848   14.4853   31.9985 H         1 ID3397      0.0000 
     23 H          12.2182   11.9623   29.5694 H         1 ID3397      0.0000 
     24 H          11.4018   12.5369   30.8301 H         1 ID3397      0.0000 
     25 H          11.1044   11.0522   30.2885 H         1 ID3397      0.0000 
     26 H          10.9763   14.5303   29.2558 H         1 ID3397      0.0000 
     27 H          11.4509   13.8476   27.8793 H         1 ID3397      0.0000 
     28 H           9.9463   14.3953   28.0282 H         1 ID3397      0.0000 
     29 H           6.4797   12.6902   30.7202 H         1 ID3397      0.0000 
     30 H           5.9148   13.6627   29.5708 H         1 ID3397      0.0000 
     31 H           5.8806   12.0684   29.3636 H         1 ID3397      0.0000 
     32 H          10.5378   12.6417   33.8820 H         1 ID3397      0.0000 
     33 H          10.3846   13.7096   35.0746 H         1 ID3397      0.0000 
     34 H           9.6708   12.2728   35.1852 H         1 ID3397      0.0000 
@<TRIPOS>BOND
     1    3    1 1    
     2    7    1 1    
     3   11    1 1    
     4   12    1 1    
     5   10    2 2    
     6    4    3 1    
     7   15    3 1    
     8   16    3 1    
     9    5    4 1    
    10   17    4 1    
    11   18    4 1    
    12    6    5 1    
    13   19    5 1    
    14   20    5 1    
    15    7    6 2    
    16   13    6 1    
    17    8    7 1    
    18    9    8 2    
    19   21    8 1    
    20   10    9 1    
    21   22    9 1    
    22   14   10 1    
    23   23   11 1    
    24   24   11 1    
    25   25   11 1    
    26   26   12 1    
    27   27   12 1    
    28   28   12 1    
    29   29   13 1    
    30   30   13 1    
    31   31   13 1    
    32   32   14 1    
    33   33   14 1    
    34   34   14 1    
@<TRIPOS>SUBSTRUCTURE
     1 ID3397      1 GROUP   
@<TRIPOS>SET

