#    Name: 1gsu_GTX_2_INTS_M
#    Modification time : Tue Mar 25 03:43:49 2014

@<TRIPOS>MOLECULE
1gsu_GTX_2_INTS_M
   58     0    12     0     0
SMALL
NO_CHARGES


@<TRIPOS>ATOM
      1 OD1        27.4005    0.0830   35.0060 O.co2     3 ASC3        0.0000 
      2 OD1        26.0190    0.1330   33.8930 O.co2    11 ASL3        0.0000 
      3 OD1        28.7820    0.0330   36.1190 O.co2     7 ASP3        0.0000 
      4 OD1        27.5685    0.8470   34.2105 O.co2     3 ASC3        0.0000 
      5 OD1        29.1180    1.5610   34.5280 O.co2     7 ASP3        0.0000 
      6 O          27.5685    0.8470   34.2105 O.2       1 ALC1        0.0000 
      7 O          26.0190    0.1330   33.8930 O.2       9 ALL1        0.0000 
      8 O          29.1180    1.5610   34.5280 O.2       5 ALP1        0.0000 
      9 N          22.9820    3.7160   33.3975 N.am      2 SEC2        0.0000 
     10 N          23.5450    2.5460   33.1800 N.am     10 SEL2        0.0000 
     11 N          22.4190    4.8860   33.6150 N.am      6 SEP2        0.0000 
     12 CA         22.8675    0.9045   31.1565 C.3       4 GLC5        0.0000 
     13 CA         24.2450   -0.2210   32.1980 C.3      12 GLL5        0.0000 
     14 CA         21.4900    2.0300   30.1150 C.3       8 GLP5        0.0000 
     15 N          23.6240   -3.8130   26.5285 N.am      2 SEC2        0.0000 
     16 N          24.5540   -3.3110   27.4330 N.am     10 SEL2        0.0000 
     17 N          22.6940   -4.3150   25.6240 N.am      6 SEP2        0.0000 
     18 CA         21.7465   -2.2545   29.2360 C.3       4 GLC5        0.0000 
     19 CA         23.1960   -3.1720   30.0520 C.3      12 GLL5        0.0000 
     20 CA         20.2970   -1.3370   28.4200 C.3       8 GLP5        0.0000 
     21 CA         19.7715   -4.1285   29.8770 C.3       4 GLC5        0.0000 
     22 CA         20.1700   -5.9460   31.0310 C.3      12 GLL5        0.0000 
     23 CA         19.3730   -2.3110   28.7230 C.3       8 GLP5        0.0000 
     24 CA         18.9450   -6.3260   29.2125 C.3       4 GLC5        0.0000 
     25 CA         17.7200   -6.7060   27.3940 C.3       8 GLP5        0.0000 
     26 CA         20.8805   -8.2240   32.8310 C.3       4 GLC5        0.0000 
     27 CA         20.2040   -6.1800   32.5540 C.3      12 GLL5        0.0000 
     28 CA         21.5570  -10.2680   33.1080 C.3       8 GLP5        0.0000 
     29 CA         19.5145   -3.4230   34.2580 C.3       4 GLC5        0.0000 
     30 CA         18.8610   -5.2960   34.5610 C.3      12 GLL5        0.0000 
     31 CA         20.1680   -1.5500   33.9550 C.3       8 GLP5        0.0000 
     32 CA         16.9680   -4.8445   33.0990 C.3       4 GLC5        0.0000 
     33 CA         17.4690   -5.1390   35.2490 C.3      12 GLL5        0.0000 
     34 CA         16.4670   -4.5500   30.9490 C.3       8 GLP5        0.0000 
     35 CA         16.0070   -6.6230   34.7045 C.3       4 GLC5        0.0000 
     36 CA         14.5450   -8.1070   34.1600 C.3       8 GLP5        0.0000 
     37 CA         27.1125    0.4455   27.1990 C.3       4 GLC5        0.0000 
     38 CA         26.7440   -1.6040   27.2650 C.3      12 GLL5        0.0000 
     39 CA         27.4810    2.4950   27.1330 C.3       8 GLP5        0.0000 
     40 CA         25.0740   -0.6715   26.7240 C.3       4 GLC5        0.0000 
     41 CA         23.4040    0.2610   26.1830 C.3       8 GLP5        0.0000 
     42 N          27.9380   -1.6175   24.5165 N.am      2 SEC2        0.0000 
     43 N          28.4900   -2.1190   25.7060 N.am     10 SEL2        0.0000 
     44 N          27.3860   -1.1160   23.3270 N.am      6 SEP2        0.0000 
     45 CA         23.1976   -0.7517   32.7554 C.3       4 GLC5        0.0000 
     46 CA         21.5910   -1.1480   33.6940 C.3       8 GLP5        0.0000 
     47 CA         22.1538   -2.3668   32.1992 C.3       4 GLC5        0.0000 
     48 CA         20.6305   -3.5215   29.8215 C.3       4 GLC5        0.0000 
     49 CA         22.2370   -3.9990   31.3570 C.3      12 GLL5        0.0000 
     50 CA         18.3270   -5.3065   31.3708 C.3       4 GLC5        0.0000 
     51 CA         19.0205   -7.9203   33.3438 C.3       4 GLC5        0.0000 
     52 CA         18.8160   -6.0350   33.2050 C.3      12 GLL5        0.0000 
     53 CA         18.5310   -9.7330   33.8080 C.3       8 GLP5        0.0000 
     54 CA         17.6528   -5.1078   32.4160 C.3       4 GLC5        0.0000 
     55 CA         18.6480   -4.1318   36.4490 C.3       4 GLC5        0.0000 
     56 CA         19.1310   -3.0460   37.9930 C.3       8 GLP5        0.0000 
     57 CA         18.3160   -7.3348   35.0315 C.3       4 GLC5        0.0000 
     58 CA         18.4670   -9.4520   35.1580 C.3       8 GLP5        0.0000 
@<TRIPOS>BOND
@<TRIPOS>SUBSTRUCTURE
     1 ALC1        6 GROUP        1 X    ALC  0     ROOT ALC X 1
     2 SEC2        9 GROUP        1 X    SEC  0     **** SEC X 2
     3 ASC3        1 GROUP        1 X    ASC  0     **** ASC X 3
     4 GLC5       12 GROUP        1 X    GLC  0     **** GLC X 6
     5 ALP1        8 GROUP        1 Y    ALP  0     ROOT ALP Y 8
     6 SEP2       11 GROUP        1 Y    SEP  0     **** SEP Y 9
     7 ASP3        3 GROUP        1 Y    ASP  0     **** ASP Y 10
     8 GLP5       14 GROUP        1 Y    GLP  0     **** GLP Y 13
     9 ALL1        7 GROUP        1 Z    ALL  0     ROOT ALL Z 15
    10 SEL2       10 GROUP        1 Z    SEL  0     **** SEL Z 16
    11 ASL3        2 GROUP        1 Z    ASL  0     **** ASL Z 17
    12 GLL5       13 GROUP        1 Z    GLL  0     **** GLL Z 20
@<TRIPOS>SET

