#    Name: 1gsu_GTX_2_ligand
#    Modification time : Tue Mar 25 03:43:50 2014

@<TRIPOS>MOLECULE
1gsu_GTX_2_ligand
   54    53     1     0     0
SMALL
NO_CHARGES


@<TRIPOS>ATOM
      1 N1         26.0190    0.1330   33.8930 N.4       1 GTX220      0.0000 
      2 CA1        25.1220    0.8030   32.9230 C.3       1 GTX220      0.0000 
      3 C1         24.2530    1.7450   33.7440 C.2       1 GTX220      0.0000 
      4 O11        24.2680    1.6960   34.9690 O.co2     1 GTX220      0.0000 
      5 O12        23.5450    2.5460   33.1800 O.co2     1 GTX220      0.0000 
      6 CB1        24.2450   -0.2210   32.1980 C.3       1 GTX220      0.0000 
      7 CG1        24.9250   -1.0020   31.0730 C.3       1 GTX220      0.0000 
      8 CD1        25.6630   -2.2020   31.5810 C.2       1 GTX220      0.0000 
      9 OE1        26.4270   -2.0840   32.5400 O.2       1 GTX220      0.0000 
     10 N2         25.4730   -3.3790   30.9810 N.am      1 GTX220      0.0000 
     11 CA2        24.6430   -3.6120   29.7980 C.3       1 GTX220      0.0000 
     12 C2         25.1180   -3.0020   28.4770 C.2       1 GTX220      0.0000 
     13 O2         24.5540   -3.3110   27.4330 O.2       1 GTX220      0.0000 
     14 CB2        23.1960   -3.1720   30.0520 C.3       1 GTX220      0.0000 
     15 SG2        22.2370   -3.9990   31.3570 S.3       1 GTX220      0.0000 
     16 C1S        21.5390   -5.4650   30.4830 C.3       1 GTX220      0.0000 
     17 C2S        20.1700   -5.9460   31.0310 C.3       1 GTX220      0.0000 
     18 C3S        20.2040   -6.1800   32.5540 C.3       1 GTX220      0.0000 
     19 C4S        18.8160   -6.0350   33.2050 C.3       1 GTX220      0.0000 
     20 C5S        18.8610   -5.2960   34.5610 C.3       1 GTX220      0.0000 
     21 C6S        17.4690   -5.1390   35.2490 C.3       1 GTX220      0.0000 
     22 N3         26.1440   -2.1600   28.4840 N.am      1 GTX220      0.0000 
     23 CA3        26.7440   -1.6040   27.2650 C.3       1 GTX220      0.0000 
     24 C3         28.1350   -2.1380   26.8920 C.2       1 GTX220      0.0000 
     25 O31        28.4900   -2.1190   25.7060 O.co2     1 GTX220      0.0000 
     26 O32        28.8940   -2.5880   27.7630 O.co2     1 GTX220      0.0000 
     27 H          25.6812    1.3668   32.2242 H         1 GTX220      0.0000 
     28 H          23.3581    0.3021   31.7828 H         1 GTX220      0.0000 
     29 H          23.8507   -0.9422   32.9443 H         1 GTX220      0.0000 
     30 H          25.6196   -0.3306   30.5508 H         1 GTX220      0.0000 
     31 H          24.1590   -1.3137   30.3504 H         1 GTX220      0.0000 
     32 H          25.9465   -4.2584   31.3593 H         1 GTX220      0.0000 
     33 H          24.5721   -4.7225   29.6214 H         1 GTX220      0.0000 
     34 H          22.5482   -3.3100   29.1720 H         1 GTX220      0.0000 
     35 H          23.1184   -2.1142   30.3488 H         1 GTX220      0.0000 
     36 H          22.3238   -6.1901   30.6040 H         1 GTX220      0.0000 
     37 H          21.4912   -5.1159   29.4671 H         1 GTX220      0.0000 
     38 H          19.8990   -6.8766   30.5315 H         1 GTX220      0.0000 
     39 H          19.4155   -5.1933   30.8010 H         1 GTX220      0.0000 
     40 H          20.8880   -5.4585   33.0091 H         1 GTX220      0.0000 
     41 H          20.5863   -7.1854   32.7505 H         1 GTX220      0.0000 
     42 H          18.3884   -7.0308   33.3594 H         1 GTX220      0.0000 
     43 H          18.1583   -5.4849   32.5245 H         1 GTX220      0.0000 
     44 H          19.2877   -4.2959   34.4096 H         1 GTX220      0.0000 
     45 H          19.5257   -5.8410   35.2438 H         1 GTX220      0.0000 
     46 H          26.5917   -1.8391   29.3809 H         1 GTX220      0.0000 
     47 H          26.8222   -0.4919   27.3472 H         1 GTX220      0.0000 
     48 H          26.0710   -1.7800   26.3899 H         1 GTX220      0.0000 
     49 H          26.2708   -0.7868   33.5920 H         1 GTX220      0.0000 
     50 H          26.8699    0.6416   34.0245 H         1 GTX220      0.0000 
     51 H          25.5910    0.0403   34.7920 H         1 GTX220      0.0000 
     52 H          17.5389   -4.6588   36.1233 H         1 GTX220      0.0000 
     53 H          16.8300   -4.6210   34.6804 H         1 GTX220      0.0000 
     54 H          17.0443   -6.0251   35.4345 H         1 GTX220      0.0000 
@<TRIPOS>BOND
     1    2    1 1    
     2   49    1 1    
     3   50    1 1    
     4   51    1 1    
     5    3    2 1    
     6    6    2 1    
     7   27    2 1    
     8    4    3 ar   
     9    5    3 ar   
    10    7    6 1    
    11   28    6 1    
    12   29    6 1    
    13    8    7 1    
    14   30    7 1    
    15   31    7 1    
    16    9    8 2    
    17   10    8 am   
    18   11   10 1    
    19   32   10 1    
    20   12   11 1    
    21   14   11 1    
    22   33   11 1    
    23   13   12 2    
    24   22   12 am   
    25   15   14 1    
    26   34   14 1    
    27   35   14 1    
    28   16   15 1    
    29   17   16 1    
    30   36   16 1    
    31   37   16 1    
    32   18   17 1    
    33   38   17 1    
    34   39   17 1    
    35   19   18 1    
    36   40   18 1    
    37   41   18 1    
    38   20   19 1    
    39   42   19 1    
    40   43   19 1    
    41   21   20 1    
    42   44   20 1    
    43   45   20 1    
    44   52   21 1    
    45   53   21 1    
    46   54   21 1    
    47   23   22 1    
    48   46   22 1    
    49   24   23 1    
    50   47   23 1    
    51   48   23 1    
    52   25   24 ar   
    53   26   24 ar   
@<TRIPOS>SUBSTRUCTURE
     1 GTX220      1 GROUP   
@<TRIPOS>SET

