#    Name: 1y5x_E89_1_INTS_M
#    Modification time : Mon Apr  7 15:35:06 2014

@<TRIPOS>MOLECULE
1y5x_E89_1_INTS_M
   59     0     9     0     0
SMALL
NO_CHARGES


@<TRIPOS>ATOM
      1 N          22.7410   -8.3955   22.1080 N.am      2 SEC2        0.0000 
      2 N          21.3620   -8.2380   21.3440 N.am      8 SEL2        0.0000 
      3 N          24.1200   -8.5530   22.8720 N.am      5 SEP2        0.0000 
      4 N          20.9795   -8.3180   22.7520 N.am      2 SEC2        0.0000 
      5 N          20.5970   -8.3980   24.1600 N.am      5 SEP2        0.0000 
      6 O          23.3120   -7.7455   19.5515 O.2       1 ALC1        0.0000 
      7 O          21.9460   -7.5970   19.2190 O.2       7 ALL1        0.0000 
      8 O          24.6780   -7.8940   19.8840 O.2       4 ALP1        0.0000 
      9 O          21.3425   -6.6130   16.0090 O.2       1 ALC1        0.0000 
     10 O          22.5160   -6.9560   17.0630 O.2       7 ALL1        0.0000 
     11 O          20.1690   -6.2700   14.9550 O.2       4 ALP1        0.0000 
     12 O          22.2575   -6.0100   16.0965 O.2       1 ALC1        0.0000 
     13 O          21.9990   -5.0640   15.1300 O.2       4 ALP1        0.0000 
     14 O          23.8465   -7.3955   17.4085 O.2       1 ALC1        0.0000 
     15 O          25.1770   -7.8350   17.7540 O.2       4 ALP1        0.0000 
     16 CA         17.6480   -8.9145   16.0950 C.3       3 GLC5        0.0000 
     17 CA         17.6220   -7.2150   16.4750 C.3       9 GLL5        0.0000 
     18 CA         17.6740  -10.6140   15.7150 C.3       6 GLP5        0.0000 
     19 CA         18.8150   -4.7170   17.0565 C.3       3 GLC5        0.0000 
     20 CA         17.0330   -5.7870   16.3090 C.3       9 GLL5        0.0000 
     21 CA         20.5970   -3.6470   17.8040 C.3       6 GLP5        0.0000 
     22 CA         12.5575   -6.2515   13.2770 C.3       3 GLC5        0.0000 
     23 CA         14.7850   -6.1580   13.1670 C.3       9 GLL5        0.0000 
     24 CA         10.3300   -6.3450   13.3870 C.3       6 GLP5        0.0000 
     25 CA         13.6060   -4.8785   10.7490 C.3       3 GLC5        0.0000 
     26 CA         14.5760   -6.4600   10.2750 C.3       9 GLL5        0.0000 
     27 CA         12.6360   -3.2970   11.2230 C.3       6 GLP5        0.0000 
     28 CA         13.0745   -6.6275    9.0980 C.3       3 GLC5        0.0000 
     29 CA         11.5730   -6.7950    7.9210 C.3       6 GLP5        0.0000 
     30 CA         15.5365   -5.9535    8.8535 C.3       3 GLC5        0.0000 
     31 CA         16.4970   -5.4470    7.4320 C.3       6 GLP5        0.0000 
     32 CA         15.3805   -6.4865   19.3035 C.3       3 GLC5        0.0000 
     33 CA         16.9240   -7.9430   18.8860 C.3       9 GLL5        0.0000 
     34 CA         13.8370   -5.0300   19.7210 C.3       6 GLP5        0.0000 
     35 O          16.1290   -8.7105   22.3195 O.2       1 ALC1        0.0000 
     36 O          16.0170   -8.5900   20.9050 O.2       7 ALL1        0.0000 
     37 O          16.2410   -8.8310   23.7340 O.2       4 ALP1        0.0000 
     38 CA         19.6650   -9.8505   20.7990 C.3       3 GLC5        0.0000 
     39 CA         18.5380   -8.3130   20.7480 C.3       9 GLL5        0.0000 
     40 CA         20.2820  -11.5640   21.3210 C.3       6 GLP5        0.0000 
     41 CA         18.0607   -6.1440   20.4250 C.3       3 GLC5        0.0000 
     42 CA         18.2430   -3.9880   20.3660 C.3       6 GLP5        0.0000 
     43 CA         20.1630   -5.8845   19.3260 C.3       3 GLC5        0.0000 
     44 CA         19.5580   -7.9610   19.8060 C.3       9 GLL5        0.0000 
     45 CA         20.9130   -3.9860   19.5330 C.3       6 GLP5        0.0000 
     46 CA         19.3837   -8.9475   17.0697 C.3       3 GLC5        0.0000 
     47 CA         19.2680   -7.6050   18.4320 C.3       9 GLL5        0.0000 
     48 CA         20.1710  -10.3000   15.9580 C.3       6 GLP5        0.0000 
     49 CA         17.8338   -5.8760   19.3872 C.3       3 GLC5        0.0000 
     50 CA         17.9250   -7.5850   17.9310 C.3       9 GLL5        0.0000 
     51 CA         16.1675   -3.4700   14.1030 C.3       3 GLC5        0.0000 
     52 CA         16.4910   -5.6360   14.8790 C.3       9 GLL5        0.0000 
     53 CA         15.4920   -1.6980   13.8040 C.3       6 GLP5        0.0000 
     54 CA         13.8878   -4.5295   11.9530 C.3       3 GLC5        0.0000 
     55 CA         15.4940   -5.3660   12.1990 C.3       9 GLL5        0.0000 
     56 CA         15.7945   -3.3685   13.0992 C.3       3 GLC5        0.0000 
     57 CA         18.7647   -4.7045   13.2568 C.3       3 GLC5        0.0000 
     58 CA         16.7000   -4.7120   12.5900 C.3       9 GLL5        0.0000 
     59 CA         20.5820   -4.6290   13.2560 C.3       6 GLP5        0.0000 
@<TRIPOS>BOND
@<TRIPOS>SUBSTRUCTURE
     1 ALC1        6 GROUP        1 X    ALC  0     ROOT ALC X 1
     2 SEC2        1 GROUP        1 X    SEC  0     **** SEC X 2
     3 GLC5       16 GROUP        1 X    GLC  0     **** GLC X 6
     4 ALP1        8 GROUP        1 Y    ALP  0     ROOT ALP Y 8
     5 SEP2        3 GROUP        1 Y    SEP  0     **** SEP Y 9
     6 GLP5       18 GROUP        1 Y    GLP  0     **** GLP Y 13
     7 ALL1        7 GROUP        1 Z    ALL  0     ROOT ALL Z 15
     8 SEL2        2 GROUP        1 Z    SEL  0     **** SEL Z 16
     9 GLL5       17 GROUP        1 Z    GLL  0     **** GLL Z 20
@<TRIPOS>SET

