#    Name: 1y5x_E89_1_ligand
#    Modification time : Mon Apr  7 15:35:06 2014

@<TRIPOS>MOLECULE
1y5x_E89_1_ligand
   42    45     1     0     0
SMALL
NO_CHARGES


@<TRIPOS>ATOM
      1 C2         18.5380   -8.3130   20.7480 C.ar      1 E89500      0.0000 
      2 C3         19.5580   -7.9610   19.8060 C.ar      1 E89500      0.0000 
      3 C7         21.0340   -7.9440   20.1950 C.2       1 E89500      0.0000 
      4 O24        21.3620   -8.2380   21.3440 O.2       1 E89500      0.0000 
      5 N8         21.9460   -7.5970   19.2190 N.am      1 E89500      0.0000 
      6 C9         21.5500   -7.2780   17.9470 C.2       1 E89500      0.0000 
      7 N25        22.5160   -6.9560   17.0630 N.pl3     1 E89500      0.0000 
      8 N10        20.3070   -7.2840   17.5910 N.2       1 E89500      0.0000 
      9 C4         19.2680   -7.6050   18.4320 C.ar      1 E89500      0.0000 
     10 C5         17.9250   -7.5850   17.9310 C.ar      1 E89500      0.0000 
     11 C14        17.6220   -7.2150   16.4750 C.3       1 E89500      0.0000 
     12 C15        17.0330   -5.7870   16.3090 C.3       1 E89500      0.0000 
     13 C16        16.4910   -5.6360   14.8790 C.ar      1 E89500      0.0000 
     14 C21        15.2860   -6.2860   14.4880 C.ar      1 E89500      0.0000 
     15 C20        14.7850   -6.1580   13.1670 C.ar      1 E89500      0.0000 
     16 C19        15.4940   -5.3660   12.1990 C.ar      1 E89500      0.0000 
     17 O22        15.0180   -5.2160   10.8700 O.3       1 E89500      0.0000 
     18 C23        14.5760   -6.4600   10.2750 C.3       1 E89500      0.0000 
     19 C18        16.7000   -4.7120   12.5900 C.ar      1 E89500      0.0000 
     20 C17        17.1950   -4.8480   13.9250 C.ar      1 E89500      0.0000 
     21 C6         16.9240   -7.9430   18.8860 C.ar      1 E89500      0.0000 
     22 N13        15.5880   -8.0510   18.8210 N.2       1 E89500      0.0000 
     23 C12        15.0800   -8.4120   19.9450 C.2       1 E89500      0.0000 
     24 N11        16.0170   -8.5900   20.9050 N.pl3     1 E89500      0.0000 
     25 C1         17.2190   -8.2870   20.2200 C.ar      1 E89500      0.0000 
     26 H          18.7380   -8.5500   21.6736 H         1 E89500      0.0000 
     27 H          22.9622   -7.5785   19.4606 H         1 E89500      0.0000 
     28 H          23.3946   -7.4181   17.1836 H         1 E89500      0.0000 
     29 H          22.2679   -6.2838   16.3655 H         1 E89500      0.0000 
     30 H          16.9072   -7.9358   16.0593 H         1 E89500      0.0000 
     31 H          18.5445   -7.2808   15.8850 H         1 E89500      0.0000 
     32 H          17.8135   -5.0648   16.4783 H         1 E89500      0.0000 
     33 H          16.2314   -5.6549   17.0156 H         1 E89500      0.0000 
     34 H          14.7756   -6.8532   15.1715 H         1 E89500      0.0000 
     35 H          13.9229   -6.6243   12.8958 H         1 E89500      0.0000 
     36 H          17.2120   -4.1454   11.9169 H         1 E89500      0.0000 
     37 H          18.0583   -4.3762   14.1924 H         1 E89500      0.0000 
     38 H          14.1032   -8.5557   20.1277 H         1 E89500      0.0000 
     39 H          15.9369   -8.8404   21.7809 H         1 E89500      0.0000 
     40 H          15.3126   -7.1352   10.2357 H         1 E89500      0.0000 
     41 H          13.8267   -6.8735   10.7922 H         1 E89500      0.0000 
     42 H          14.2487   -6.3285    9.3393 H         1 E89500      0.0000 
@<TRIPOS>BOND
     1    2    1 ar   
     2   25    1 ar   
     3   26    1 1    
     4    3    2 1    
     5    9    2 ar   
     6    4    3 2    
     7    5    3 am   
     8    6    5 1    
     9   27    5 1    
    10    7    6 1    
    11    8    6 2    
    12   28    7 1    
    13   29    7 1    
    14    9    8 1    
    15   10    9 ar   
    16   11   10 1    
    17   21   10 ar   
    18   12   11 1    
    19   30   11 1    
    20   31   11 1    
    21   13   12 1    
    22   32   12 1    
    23   33   12 1    
    24   14   13 ar   
    25   20   13 ar   
    26   15   14 ar   
    27   34   14 1    
    28   16   15 ar   
    29   35   15 1    
    30   17   16 1    
    31   19   16 ar   
    32   18   17 1    
    33   40   18 1    
    34   41   18 1    
    35   42   18 1    
    36   20   19 ar   
    37   36   19 1    
    38   37   20 1    
    39   22   21 1    
    40   25   21 ar   
    41   23   22 2    
    42   24   23 1    
    43   38   23 1    
    44   25   24 1    
    45   39   24 1    
@<TRIPOS>SUBSTRUCTURE
     1 E89500      1 GROUP   
@<TRIPOS>SET

