#    Name: 1q23_FUA_8_INTS_M
#    Modification time : Mon Mar 24 22:47:06 2014

@<TRIPOS>MOLECULE
1q23_FUA_8_INTS_M
   85     0     6     0     0
SMALL
NO_CHARGES


@<TRIPOS>ATOM
      1 CA        -11.6360   13.2205   65.1665 C.3       2 GLC5        0.0000 
      2 CA        -12.6300   14.6960   63.8230 C.3       6 GLL5        0.0000 
      3 CA        -10.6420   11.7450   66.5100 C.3       4 GLP5        0.0000 
      4 CA        -12.5695   15.3200   65.1865 C.3       2 GLC5        0.0000 
      5 CA        -13.9010   15.4220   63.5260 C.3       6 GLL5        0.0000 
      6 CA        -11.2380   15.2180   66.8470 C.3       4 GLP5        0.0000 
      7 CA        -14.6365   14.4670   61.1030 C.3       2 GLC5        0.0000 
      8 CA        -15.0600   14.5600   63.3080 C.3       6 GLL5        0.0000 
      9 CA        -14.2130   14.3740   58.8980 C.3       4 GLP5        0.0000 
     10 CA        -16.7120   16.0300   64.9705 C.3       2 GLC5        0.0000 
     11 CA        -16.3620   15.3300   62.9110 C.3       6 GLL5        0.0000 
     12 CA        -17.0620   16.7300   67.0300 C.3       4 GLP5        0.0000 
     13 CA        -16.8195   10.7985   66.2040 C.3       2 GLC5        0.0000 
     14 CA        -16.2770   10.8180   64.1190 C.3       6 GLL5        0.0000 
     15 CA        -17.3620   10.7790   68.2890 C.3       4 GLP5        0.0000 
     16 CA        -17.9305    9.8590   66.0290 C.3       2 GLC5        0.0000 
     17 CA        -17.6160   10.0630   64.0640 C.3       6 GLL5        0.0000 
     18 CA        -18.2450    9.6550   67.9940 C.3       4 GLP5        0.0000 
     19 CA        -20.9445   14.4095   61.8645 C.3       2 GLC5        0.0000 
     20 CA        -19.9550   12.6790   62.3160 C.3       6 GLL5        0.0000 
     21 CA        -21.9340   16.1400   61.4130 C.3       4 GLP5        0.0000 
     22 CA        -21.1825   13.5215   63.8965 C.3       2 GLC5        0.0000 
     23 CA        -22.4100   14.3640   65.4770 C.3       4 GLP5        0.0000 
     24 CA        -22.0135   12.3730   64.2195 C.3       2 GLC5        0.0000 
     25 CA        -20.9220   11.5310   62.5440 C.3       6 GLL5        0.0000 
     26 CA        -23.1050   13.2150   65.8950 C.3       4 GLP5        0.0000 
     27 CA        -13.3355   18.5765   62.7180 C.3       2 GLC5        0.0000 
     28 CA        -13.8960   16.9680   63.1660 C.3       6 GLL5        0.0000 
     29 CA        -12.7750   20.1850   62.2700 C.3       4 GLP5        0.0000 
     30 CA        -16.1860   13.3275   67.1600 C.3       2 GLC5        0.0000 
     31 CA        -15.4270   13.5320   65.3610 C.3       6 GLL5        0.0000 
     32 CA        -16.9450   13.1230   68.9590 C.3       4 GLP5        0.0000 
     33 CA        -16.2445   15.1310   66.1955 C.3       2 GLC5        0.0000 
     34 CA        -16.4690   11.6640   60.2210 C.3       2 GLC5        0.0000 
     35 CA        -16.9890   12.6330   61.7030 C.3       6 GLL5        0.0000 
     36 CA        -15.9490   10.6950   58.7390 C.3       4 GLP5        0.0000 
     37 CA        -17.4565   13.8035   60.0035 C.3       2 GLC5        0.0000 
     38 CA        -17.9240   14.9740   58.3040 C.3       4 GLP5        0.0000 
     39 CA        -15.6010   13.5035   60.3005 C.3       2 GLC5        0.0000 
     40 CA        -19.3060   12.5700   66.4900 C.3       2 GLC5        0.0000 
     41 CA        -19.3140   12.9510   64.3720 C.3       6 GLL5        0.0000 
     42 CA        -19.2980   12.1890   68.6080 C.3       4 GLP5        0.0000 
     43 CA        -20.8620   13.6575   64.9245 C.3       2 GLC5        0.0000 
     44 CA        -19.4885   14.4695   65.7520 C.3       2 GLC5        0.0000 
     45 CA        -19.6630   15.9880   67.1320 C.3       4 GLP5        0.0000 
     46 CA        -18.4620    7.0415   65.0330 C.3       2 GLC5        0.0000 
     47 CA        -20.3230    8.1660   64.5570 C.3       6 GLL5        0.0000 
     48 CA        -16.6010    5.9170   65.5090 C.3       4 GLP5        0.0000 
     49 CA        -20.6505    3.6200   64.1715 C.3       2 GLC5        0.0000 
     50 CA        -20.4900    5.6420   63.5060 C.3       6 GLL5        0.0000 
     51 CA        -20.8110    1.5980   64.8370 C.3       4 GLP5        0.0000 
     52 CA        -20.1080    2.7880   63.4185 C.3       2 GLC5        0.0000 
     53 CA        -19.4050    3.9780   62.0000 C.3       6 GLL5        0.0000 
     54 CA        -17.3315    6.4535   61.2185 C.3       2 GLC5        0.0000 
     55 CA        -19.1540    6.5070   61.5200 C.3       6 GLL5        0.0000 
     56 CA        -15.5090    6.4000   60.9170 C.3       4 GLP5        0.0000 
     57 CA        -17.8410    5.8240   62.9445 C.3       2 GLC5        0.0000 
     58 CA        -16.5280    5.1410   64.3690 C.3       4 GLP5        0.0000 
     59 CA        -18.3105    6.3290   59.5605 C.3       2 GLC5        0.0000 
     60 CA        -17.4670    6.1510   57.6010 C.3       4 GLP5        0.0000 
     61 CA        -19.4435    7.9370   60.4460 C.3       2 GLC5        0.0000 
     62 CA        -19.7330    9.3670   59.3720 C.3       4 GLP5        0.0000 
     63 CA        -24.4800   14.7065   61.4270 C.3       2 GLC5        0.0000 
     64 CA        -24.3500   13.0280   61.9870 C.3       6 GLL5        0.0000 
     65 CA        -24.6100   16.3850   60.8670 C.3       4 GLP5        0.0000 
     66 CA        -24.7345   13.6550   63.5345 C.3       2 GLC5        0.0000 
     67 CA        -25.1190   14.2820   65.0820 C.3       4 GLP5        0.0000 
     68 N         -23.4305   12.6220   59.2810 N.am      1 SEC2        0.0000 
     69 N         -22.7470   12.1770   60.4430 N.am      5 SEL2        0.0000 
     70 N         -24.1140   13.0670   58.1190 N.am      3 SEP2        0.0000 
     71 N         -12.7280   14.1455   61.0110 N.am      1 SEC2        0.0000 
     72 N         -12.3460   14.4330   62.4500 N.am      5 SEL2        0.0000 
     73 N         -13.1100   13.8580   59.5720 N.am      3 SEP2        0.0000 
     74 CA        -11.9138   12.2740   65.3758 C.3       2 GLC5        0.0000 
     75 CA        -12.5820   13.2460   64.2820 C.3       6 GLL5        0.0000 
     76 CA        -12.0593   11.3425   63.4352 C.3       2 GLC5        0.0000 
     77 CA        -10.9330    9.8820   62.6290 C.3       4 GLP5        0.0000 
     78 CA        -11.9220   14.5945   65.4497 C.3       2 GLC5        0.0000 
     79 CA        -17.8135   16.2705   62.0285 C.3       2 GLC5        0.0000 
     80 CA        -18.6260   17.6110   61.1840 C.3       4 GLP5        0.0000 
     81 CA        -20.0411   10.3238   61.1470 C.3       2 GLC5        0.0000 
     82 CA        -20.1360    9.3000   66.0765 C.3       2 GLC5        0.0000 
     83 CA        -20.9270    9.3140   63.7490 C.3       6 GLL5        0.0000 
     84 CA        -19.6470    9.8600   68.0000 C.3       4 GLP5        0.0000 
     85 CA        -18.1415    4.9482   63.4206 C.3       2 GLC5        0.0000 
@<TRIPOS>BOND
@<TRIPOS>SUBSTRUCTURE
     1 SEC2       68 GROUP        1 X    SEC  0     ROOT SEC X 2
     2 GLC5        1 GROUP        1 X    GLC  0     **** GLC X 6
     3 SEP2       70 GROUP        1 Y    SEP  0     ROOT SEP Y 9
     4 GLP5        3 GROUP        1 Y    GLP  0     **** GLP Y 13
     5 SEL2       69 GROUP        1 Z    SEL  0     ROOT SEL Z 16
     6 GLL5        2 GROUP        1 Z    GLL  0     **** GLL Z 20
@<TRIPOS>SET

