#    Name: 1q23_FUA_8_ligand
#    Modification time : Mon Mar 24 22:47:06 2014

@<TRIPOS>MOLECULE
1q23_FUA_8_ligand
   84    87     1     0     0
SMALL
NO_CHARGES


@<TRIPOS>ATOM
      1 C1        -13.7890   12.3600   64.2010 C.3       1 FUA709      0.0000 
      2 C2        -12.5820   13.2460   64.2820 C.3       1 FUA709      0.0000 
      3 C3        -12.6300   14.6960   63.8230 C.3       1 FUA709      0.0000 
      4 C4        -13.9010   15.4220   63.5260 C.3       1 FUA709      0.0000 
      5 C5        -15.0600   14.5600   63.3080 C.3       1 FUA709      0.0000 
      6 C6        -16.3620   15.3300   62.9110 C.3       1 FUA709      0.0000 
      7 C7        -17.6400   14.5300   62.8350 C.3       1 FUA709      0.0000 
      8 C8        -17.4910   13.0100   63.1050 C.3       1 FUA709      0.0000 
      9 C9        -16.3220   12.3220   63.7880 C.3       1 FUA709      0.0000 
     10 C10       -15.0560   13.1560   63.8830 C.3       1 FUA709      0.0000 
     11 C11       -16.2770   10.8180   64.1190 C.3       1 FUA709      0.0000 
     12 C12       -17.6160   10.0630   64.0640 C.3       1 FUA709      0.0000 
     13 C13       -18.8430   10.8370   63.5510 C.3       1 FUA709      0.0000 
     14 C14       -18.7760   12.2410   63.1420 C.3       1 FUA709      0.0000 
     15 C15       -19.9550   12.6790   62.3160 C.3       1 FUA709      0.0000 
     16 C16       -20.9220   11.5310   62.5440 C.3       1 FUA709      0.0000 
     17 C17       -20.2600   10.4560   63.4140 C.2       1 FUA709      0.0000 
     18 C18       -13.8960   16.9680   63.1660 C.3       1 FUA709      0.0000 
     19 C19       -15.4270   13.5320   65.3610 C.3       1 FUA709      0.0000 
     20 C20       -16.9890   12.6330   61.7030 C.3       1 FUA709      0.0000 
     21 C21       -19.3140   12.9510   64.3720 C.3       1 FUA709      0.0000 
     22 C22       -20.9270    9.3140   63.7490 C.2       1 FUA709      0.0000 
     23 C23       -20.3230    8.1660   64.5570 C.3       1 FUA709      0.0000 
     24 C24       -21.0690    6.8390   64.3000 C.3       1 FUA709      0.0000 
     25 C25       -20.4900    5.6420   63.5060 C.2       1 FUA709      0.0000 
     26 C26       -19.7200    5.4240   62.3830 C.2       1 FUA709      0.0000 
     27 C27       -19.4050    3.9780   62.0000 C.3       1 FUA709      0.0000 
     28 C28       -19.1540    6.5070   61.5200 C.3       1 FUA709      0.0000 
     29 C29       -22.3760    9.2470   63.3700 C.2       1 FUA709      0.0000 
     30 C31       -23.0930   12.3290   61.6000 C.2       1 FUA709      0.0000 
     31 C32       -24.3500   13.0280   61.9870 C.3       1 FUA709      0.0000 
     32 O1        -15.3620   10.3250   63.1800 O.3       1 FUA709      0.0000 
     33 O2        -22.2930   11.8030   62.7090 O.3       1 FUA709      0.0000 
     34 O3        -22.7470   12.1770   60.4430 O.2       1 FUA709      0.0000 
     35 O4        -23.1070    9.2850   64.3570 O.co2     1 FUA709      0.0000 
     36 O5        -23.0400    9.2490   62.2430 O.co2     1 FUA709      0.0000 
     37 O6        -12.3460   14.4330   62.4500 O.3       1 FUA709      0.0000 
     38 H         -13.9326   11.8382   65.1536 H         1 FUA709      0.0000 
     39 H         -13.6446   11.6043   63.4209 H         1 FUA709      0.0000 
     40 H         -11.7254   12.7380   63.7260 H         1 FUA709      0.0000 
     41 H         -12.2024   13.2387   65.3575 H         1 FUA709      0.0000 
     42 H         -11.8966   15.2751   64.2078 H         1 FUA709      0.0000 
     43 H         -14.1829   15.6424   64.8493 H         1 FUA709      0.0000 
     44 H         -14.7422   14.2207   62.0614 H         1 FUA709      0.0000 
     45 H         -16.1719   15.8220   61.9284 H         1 FUA709      0.0000 
     46 H         -16.4892   16.1666   63.6374 H         1 FUA709      0.0000 
     47 H         -18.0964   14.6550   61.8326 H         1 FUA709      0.0000 
     48 H         -18.3742   14.9347   63.5602 H         1 FUA709      0.0000 
     49 H         -16.7352   12.6889   65.0502 H         1 FUA709      0.0000 
     50 H         -15.8570   10.7301   65.1220 H         1 FUA709      0.0000 
     51 H         -17.8450    9.6765   65.0849 H         1 FUA709      0.0000 
     52 H         -17.4827    9.1545   63.4308 H         1 FUA709      0.0000 
     53 H         -18.6002   10.4571   62.1930 H         1 FUA709      0.0000 
     54 H         -19.6913   12.7276   61.2959 H         1 FUA709      0.0000 
     55 H         -20.3625   13.5721   62.7017 H         1 FUA709      0.0000 
     56 H         -20.8480   10.9764   61.4491 H         1 FUA709      0.0000 
     57 H         -20.3799    8.4011   65.6197 H         1 FUA709      0.0000 
     58 H         -19.2761    8.0399   64.2813 H         1 FUA709      0.0000 
     59 H         -22.0814    7.1028   63.8237 H         1 FUA709      0.0000 
     60 H         -21.4091    6.4349   65.3210 H         1 FUA709      0.0000 
     61 H         -20.8219    4.6828   64.0415 H         1 FUA709      0.0000 
     62 H         -13.5078   17.5199   63.9040 H         1 FUA709      0.0000 
     63 H         -13.3575   17.1563   62.3447 H         1 FUA709      0.0000 
     64 H         -14.8192   17.3129   62.9966 H         1 FUA709      0.0000 
     65 H         -15.4068   12.7341   65.9635 H         1 FUA709      0.0000 
     66 H         -14.7931   14.2042   65.7435 H         1 FUA709      0.0000 
     67 H         -16.3445   13.9246   65.4252 H         1 FUA709      0.0000 
     68 H         -16.0597   12.9642   61.5398 H         1 FUA709      0.0000 
     69 H         -16.9751   11.6423   61.5674 H         1 FUA709      0.0000 
     70 H         -17.5681   13.0190   60.9849 H         1 FUA709      0.0000 
     71 H         -18.6428   12.9704   65.1130 H         1 FUA709      0.0000 
     72 H         -19.5605   13.8999   64.1750 H         1 FUA709      0.0000 
     73 H         -20.1334   12.5036   64.7304 H         1 FUA709      0.0000 
     74 H         -18.8459    3.9263   61.1725 H         1 FUA709      0.0000 
     75 H         -18.9031    3.5032   62.7230 H         1 FUA709      0.0000 
     76 H         -20.2364    3.4505   61.8253 H         1 FUA709      0.0000 
     77 H         -18.5425    7.1093   62.0331 H         1 FUA709      0.0000 
     78 H         -18.6264    6.1355   60.7560 H         1 FUA709      0.0000 
     79 H         -19.8716    7.0828   61.1281 H         1 FUA709      0.0000 
     80 H         -24.1703   13.8179   62.5733 H         1 FUA709      0.0000 
     81 H         -24.8495   13.3634   61.1882 H         1 FUA709      0.0000 
     82 H         -24.9705   12.4255   62.4890 H         1 FUA709      0.0000 
     83 H         -15.6803    9.4007   62.9692 H         1 FUA709      0.0000 
     84 H         -11.6359   14.6112   63.1313 H         1 FUA709      0.0000 
@<TRIPOS>BOND
     1    2    1 1    
     2   10    1 1    
     3   38    1 1    
     4   39    1 1    
     5    3    2 1    
     6   40    2 1    
     7   41    2 1    
     8    4    3 1    
     9   37    3 1    
    10   42    3 1    
    11    5    4 1    
    12   18    4 1    
    13   43    4 1    
    14    6    5 1    
    15   10    5 1    
    16   44    5 1    
    17    7    6 1    
    18   45    6 1    
    19   46    6 1    
    20    8    7 1    
    21   47    7 1    
    22   48    7 1    
    23    9    8 1    
    24   14    8 1    
    25   20    8 1    
    26   10    9 1    
    27   11    9 1    
    28   49    9 1    
    29   19   10 1    
    30   12   11 1    
    31   32   11 1    
    32   50   11 1    
    33   13   12 1    
    34   51   12 1    
    35   52   12 1    
    36   14   13 1    
    37   17   13 1    
    38   53   13 1    
    39   15   14 1    
    40   21   14 1    
    41   16   15 1    
    42   54   15 1    
    43   55   15 1    
    44   17   16 1    
    45   33   16 1    
    46   56   16 1    
    47   22   17 2    
    48   62   18 1    
    49   63   18 1    
    50   64   18 1    
    51   65   19 1    
    52   66   19 1    
    53   67   19 1    
    54   68   20 1    
    55   69   20 1    
    56   70   20 1    
    57   71   21 1    
    58   72   21 1    
    59   73   21 1    
    60   23   22 1    
    61   29   22 1    
    62   24   23 1    
    63   57   23 1    
    64   58   23 1    
    65   25   24 1    
    66   59   24 1    
    67   60   24 1    
    68   26   25 2    
    69   61   25 1    
    70   27   26 1    
    71   28   26 1    
    72   74   27 1    
    73   75   27 1    
    74   76   27 1    
    75   77   28 1    
    76   78   28 1    
    77   79   28 1    
    78   35   29 ar   
    79   36   29 ar   
    80   31   30 1    
    81   33   30 1    
    82   34   30 2    
    83   80   31 1    
    84   81   31 1    
    85   82   31 1    
    86   83   32 1    
    87   84   37 1    
@<TRIPOS>SUBSTRUCTURE
     1 FUA709      1 GROUP   
@<TRIPOS>SET

