#    Name: 2xwe_AMF_1_INTS_M
#    Modification time : Tue Mar 25 07:01:28 2014

@<TRIPOS>MOLECULE
2xwe_AMF_1_INTS_M
   67     0     9     0     0
SMALL
NO_CHARGES


@<TRIPOS>ATOM
      1 N         -34.8195  -15.0610   -3.9495 N.am      2 SEC2        0.0000 
      2 N         -35.7090  -14.5450   -2.9030 N.am      8 SEL2        0.0000 
      3 N         -33.9300  -15.5770   -4.9960 N.am      5 SEP2        0.0000 
      4 O         -36.4980  -13.5910   -2.8695 O.2       1 ALC1        0.0000 
      5 O         -35.7090  -14.5450   -2.9030 O.2       7 ALL1        0.0000 
      6 O         -37.2870  -12.6370   -2.8360 O.2       4 ALP1        0.0000 
      7 CA        -35.2725  -15.9645   -3.9070 C.3       3 GLC5        0.0000 
      8 CA        -35.9380  -15.5770   -1.9090 C.3       9 GLL5        0.0000 
      9 CA        -34.6070  -16.3520   -5.9050 C.3       6 GLP5        0.0000 
     10 CA        -31.9825  -16.5150    0.5435 C.3       3 GLC5        0.0000 
     11 CA        -33.0480  -15.0630    0.4950 C.3       9 GLL5        0.0000 
     12 CA        -30.9170  -17.9670    0.5920 C.3       6 GLP5        0.0000 
     13 CA        -37.7025  -17.8875   -4.0890 C.3       3 GLC5        0.0000 
     14 CA        -36.6470  -16.7810   -2.4550 C.3       9 GLL5        0.0000 
     15 CA        -38.7580  -18.9940   -5.7230 C.3       6 GLP5        0.0000 
     16 CA        -36.3110  -16.5465   -4.3725 C.3       3 GLC5        0.0000 
     17 CA        -35.9750  -16.3120   -6.2900 C.3       6 GLP5        0.0000 
     18 N         -39.0430  -17.0240   -3.5435 N.am      2 SEC2        0.0000 
     19 N         -37.8770  -16.3460   -2.9790 N.am      8 SEL2        0.0000 
     20 N         -40.2090  -17.7020   -4.1080 N.am      5 SEP2        0.0000 
     21 O         -38.2015  -15.1415   -3.5410 O.2       1 ALC1        0.0000 
     22 O         -37.8770  -16.3460   -2.9790 O.2       7 ALL1        0.0000 
     23 O         -38.5260  -13.9370   -4.1030 O.2       4 ALP1        0.0000 
     24 N         -38.4795  -19.6830   -2.1735 N.am      2 SEC2        0.0000 
     25 N         -37.2050  -19.0260   -1.8390 N.am      8 SEL2        0.0000 
     26 N         -39.7540  -20.3400   -2.5080 N.am      5 SEP2        0.0000 
     27 O         -36.3640  -19.5005   -2.8450 O.2       1 ALC1        0.0000 
     28 O         -37.2050  -19.0260   -1.8390 O.2       7 ALL1        0.0000 
     29 O         -35.5230  -19.9750   -3.8510 O.2       4 ALP1        0.0000 
     30 O         -35.6640  -19.0205   -2.1295 O.2       1 ALC1        0.0000 
     31 O         -34.1230  -19.0150   -2.4200 O.2       4 ALP1        0.0000 
     32 CA        -34.2715  -18.7620    0.0650 C.3       3 GLC5        0.0000 
     33 CA        -35.9760  -17.8110   -0.1170 C.3       9 GLL5        0.0000 
     34 CA        -32.5670  -19.7130    0.2470 C.3       6 GLP5        0.0000 
     35 O         -37.3955  -18.6150    1.2615 O.2       1 ALC1        0.0000 
     36 O         -36.7490  -17.4980    1.0430 O.2       7 ALL1        0.0000 
     37 O         -38.0420  -19.7320    1.4800 O.2       4 ALP1        0.0000 
     38 CA        -32.9795  -17.4685    0.3855 C.3       3 GLC5        0.0000 
     39 CA        -34.1510  -16.2930    1.0180 C.3       9 GLL5        0.0000 
     40 CA        -31.8080  -18.6440   -0.2470 C.3       6 GLP5        0.0000 
     41 CA        -32.9065  -18.5160    4.7620 C.3       3 GLC5        0.0000 
     42 CA        -34.3570  -17.1070    5.6440 C.3       9 GLL5        0.0000 
     43 CA        -31.4560  -19.9250    3.8800 C.3       6 GLP5        0.0000 
     44 CA        -33.2750  -18.6285    7.9330 C.3       3 GLC5        0.0000 
     45 CA        -34.4900  -17.2600    7.1850 C.3       9 GLL5        0.0000 
     46 CA        -32.0600  -19.9970    8.6810 C.3       6 GLP5        0.0000 
     47 CA        -39.7965  -16.7450    9.1325 C.3       3 GLC5        0.0000 
     48 CA        -37.8910  -16.8470    9.0920 C.3       9 GLL5        0.0000 
     49 CA        -41.7020  -16.6430    9.1730 C.3       6 GLP5        0.0000 
     50 CA        -39.0810  -18.5865    9.3555 C.3       3 GLC5        0.0000 
     51 CA        -40.2710  -20.3260    9.6190 C.3       6 GLP5        0.0000 
     52 CA        -33.0120  -17.0158   -0.7405 C.3       3 GLC5        0.0000 
     53 CA        -34.6250  -16.0380   -1.3540 C.3       9 GLL5        0.0000 
     54 CA        -33.4155  -15.6633   -3.0955 C.3       3 GLC5        0.0000 
     55 CA        -32.6150  -15.9390   -4.9570 C.3       6 GLP5        0.0000 
     56 CA        -31.7738  -15.1680   -1.2058 C.3       3 GLC5        0.0000 
     57 CA        -33.8070  -14.7370   -1.1140 C.3       9 GLL5        0.0000 
     58 CA        -30.1200  -15.4360   -2.1020 C.3       6 GLP5        0.0000 
     59 CA        -32.1063  -14.0695    0.7632 C.3       3 GLC5        0.0000 
     60 CA        -30.7850  -13.2390    1.8360 C.3       6 GLP5        0.0000 
     61 CA        -32.2968  -13.4625   -0.8323 C.3       3 GLC5        0.0000 
     62 CA        -31.1660  -12.0250   -1.3550 C.3       6 GLP5        0.0000 
     63 CA        -38.0311  -15.7825   -0.8627 C.3       3 GLC5        0.0000 
     64 CA        -39.4130  -14.6050    0.0150 C.3       6 GLP5        0.0000 
     65 CA        -33.8130  -19.1447    2.3400 C.3       3 GLC5        0.0000 
     66 CA        -35.2200  -17.7910    2.4530 C.3       9 GLL5        0.0000 
     67 CA        -32.4580  -20.0950    1.5860 C.3       6 GLP5        0.0000 
@<TRIPOS>BOND
@<TRIPOS>SUBSTRUCTURE
     1 ALC1        4 GROUP        1 X    ALC  0     ROOT ALC X 1
     2 SEC2        1 GROUP        1 X    SEC  0     **** SEC X 2
     3 GLC5        7 GROUP        1 X    GLC  0     **** GLC X 6
     4 ALP1        6 GROUP        1 Y    ALP  0     ROOT ALP Y 8
     5 SEP2        3 GROUP        1 Y    SEP  0     **** SEP Y 9
     6 GLP5        9 GROUP        1 Y    GLP  0     **** GLP Y 13
     7 ALL1        5 GROUP        1 Z    ALL  0     ROOT ALL Z 15
     8 SEL2        2 GROUP        1 Z    SEL  0     **** SEL Z 16
     9 GLL5        8 GROUP        1 Z    GLL  0     **** GLL Z 20
@<TRIPOS>SET

