#    Name: 2xwe_AMF_1_ligand
#    Modification time : Tue Mar 25 07:01:28 2014

@<TRIPOS>MOLECULE
2xwe_AMF_1_ligand
   51    52     1     0     0
SMALL
NO_CHARGES


@<TRIPOS>ATOM
      1 O4        -35.7090  -14.5450   -2.9030 O.3       1 AMF1510     0.0000 
      2 C4        -35.9380  -15.5770   -1.9090 C.3       1 AMF1510     0.0000 
      3 C5        -34.6250  -16.0380   -1.3540 C.3       1 AMF1510     0.0000 
      4 C6        -33.8070  -14.7370   -1.1140 C.3       1 AMF1510     0.0000 
      5 S1        -33.0480  -15.0630    0.4950 S.3       1 AMF1510     0.0000 
      6 C3        -36.6470  -16.7810   -2.4550 C.3       1 AMF1510     0.0000 
      7 O3        -37.8770  -16.3460   -2.9790 O.3       1 AMF1510     0.0000 
      8 C2        -37.0060  -17.7410   -1.2990 C.3       1 AMF1510     0.0000 
      9 O2        -37.2050  -19.0260   -1.8390 O.3       1 AMF1510     0.0000 
     10 C1        -35.9760  -17.8110   -0.1170 C.3       1 AMF1510     0.0000 
     11 O1        -36.7490  -17.4980    1.0430 O.3       1 AMF1510     0.0000 
     12 N1        -34.9210  -16.7770   -0.0770 N.pl3     1 AMF1510     0.0000 
     13 C7        -34.1510  -16.2930    1.0180 C.2       1 AMF1510     0.0000 
     14 N2        -34.2080  -16.7110    2.2500 N.pl3     1 AMF1510     0.0000 
     15 C8        -35.2200  -17.7910    2.4530 C.3       1 AMF1510     0.0000 
     16 C9        -35.1160  -18.5980    3.7350 C.3       1 AMF1510     0.0000 
     17 C10       -35.5690  -17.7350    4.9240 C.3       1 AMF1510     0.0000 
     18 C11       -34.3570  -17.1070    5.6440 C.3       1 AMF1510     0.0000 
     19 C12       -34.4900  -17.2600    7.1850 C.3       1 AMF1510     0.0000 
     20 C13       -35.8200  -16.6500    7.6880 C.3       1 AMF1510     0.0000 
     21 C14       -36.6410  -17.5950    8.5840 C.3       1 AMF1510     0.0000 
     22 C15       -37.8910  -16.8470    9.0920 C.3       1 AMF1510     0.0000 
     23 H         -36.5223  -15.1827   -1.0789 H         1 AMF1510     0.0000 
     24 H         -34.1329  -16.6407   -2.0512 H         1 AMF1510     0.0000 
     25 H         -34.3959  -13.9180   -0.9299 H         1 AMF1510     0.0000 
     26 H         -32.9978  -14.6482   -1.7374 H         1 AMF1510     0.0000 
     27 H         -36.0558  -17.2861   -3.1497 H         1 AMF1510     0.0000 
     28 H         -37.9582  -17.3771   -0.8651 H         1 AMF1510     0.0000 
     29 H         -35.5869  -18.7817   -0.0432 H         1 AMF1510     0.0000 
     30 H         -33.6891  -16.4156    3.0287 H         1 AMF1510     0.0000 
     31 H         -35.1777  -18.5016    1.5879 H         1 AMF1510     0.0000 
     32 H         -36.2471  -17.3466    2.4017 H         1 AMF1510     0.0000 
     33 H         -34.0890  -18.9045    3.8927 H         1 AMF1510     0.0000 
     34 H         -35.7529  -19.4719    3.6705 H         1 AMF1510     0.0000 
     35 H         -36.1176  -18.3545    5.6283 H         1 AMF1510     0.0000 
     36 H         -36.2178  -16.9411    4.5642 H         1 AMF1510     0.0000 
     37 H         -34.3018  -16.0522    5.3997 H         1 AMF1510     0.0000 
     38 H         -33.4499  -17.6039    5.3192 H         1 AMF1510     0.0000 
     39 H         -33.6607  -16.7500    7.6620 H         1 AMF1510     0.0000 
     40 H         -34.4629  -18.3140    7.4375 H         1 AMF1510     0.0000 
     41 H         -36.4276  -16.3655    6.8177 H         1 AMF1510     0.0000 
     42 H         -35.5959  -15.7317    8.2483 H         1 AMF1510     0.0000 
     43 H         -36.0417  -17.8993    9.4271 H         1 AMF1510     0.0000 
     44 H         -36.9495  -18.4541    8.0101 H         1 AMF1510     0.0000 
     45 H         -37.6478  -16.0347    9.6221 H         1 AMF1510     0.0000 
     46 H         -38.4730  -16.5417    8.3383 H         1 AMF1510     0.0000 
     47 H         -38.4549  -17.4244    9.6825 H         1 AMF1510     0.0000 
     48 H         -36.0039  -13.6952   -2.4662 H         1 AMF1510     0.0000 
     49 H         -37.7096  -15.4102   -3.2892 H         1 AMF1510     0.0000 
     50 H         -36.4925  -19.1281   -2.5332 H         1 AMF1510     0.0000 
     51 H         -36.8562  -18.3677    1.5248 H         1 AMF1510     0.0000 
@<TRIPOS>BOND
     1    2    1 1    
     2   48    1 1    
     3    3    2 1    
     4    6    2 1    
     5   23    2 1    
     6    4    3 1    
     7   12    3 1    
     8   24    3 1    
     9    5    4 1    
    10   25    4 1    
    11   26    4 1    
    12   13    5 1    
    13    7    6 1    
    14    8    6 1    
    15   27    6 1    
    16   49    7 1    
    17    9    8 1    
    18   10    8 1    
    19   28    8 1    
    20   50    9 1    
    21   11   10 1    
    22   12   10 1    
    23   29   10 1    
    24   51   11 1    
    25   13   12 1    
    26   14   13 2    
    27   15   14 1    
    28   30   14 1    
    29   16   15 1    
    30   31   15 1    
    31   32   15 1    
    32   17   16 1    
    33   33   16 1    
    34   34   16 1    
    35   18   17 1    
    36   35   17 1    
    37   36   17 1    
    38   19   18 1    
    39   37   18 1    
    40   38   18 1    
    41   20   19 1    
    42   39   19 1    
    43   40   19 1    
    44   21   20 1    
    45   41   20 1    
    46   42   20 1    
    47   22   21 1    
    48   43   21 1    
    49   44   21 1    
    50   45   22 1    
    51   46   22 1    
    52   47   22 1    
@<TRIPOS>SUBSTRUCTURE
     1 AMF1510     1 GROUP   
@<TRIPOS>SET

