#    Name: 4jbq_VX6_1_INTS_M
#    Modification time : Tue Mar 25 05:43:28 2014

@<TRIPOS>MOLECULE
4jbq_VX6_1_INTS_M
   67     0     6     0     0
SMALL
NO_CHARGES


@<TRIPOS>ATOM
      1 CA          2.7990   35.7575   -1.0405 C.3       2 GLC5        0.0000 
      2 CA          1.4090   35.1850    0.2100 C.3       6 GLL5        0.0000 
      3 CA          4.1890   36.3300   -2.2910 C.3       4 GLP5        0.0000 
      4 CA          4.8555   33.0975    5.8210 C.3       2 GLC5        0.0000 
      5 CA          2.9960   32.5980    5.5370 C.3       6 GLL5        0.0000 
      6 CA          6.7150   33.5970    6.1050 C.3       4 GLP5        0.0000 
      7 CA          2.2510   30.2585    4.0195 C.3       2 GLC5        0.0000 
      8 CA          3.7640   31.6400    3.5280 C.3       6 GLL5        0.0000 
      9 CA          0.7380   28.8770    4.5110 C.3       4 GLP5        0.0000 
     10 CA          5.2395   32.6185    4.8165 C.3       2 GLC5        0.0000 
     11 O           2.7920   33.9595    7.2865 O.2       1 ALC1        0.0000 
     12 O           2.9560   32.6500    6.8690 O.2       5 ALL1        0.0000 
     13 O           2.6280   35.2690    7.7040 O.2       3 ALP1        0.0000 
     14 CA          4.1010   33.5750    8.7070 C.3       2 GLC5        0.0000 
     15 CA          3.4490   31.7180    7.7270 C.3       6 GLL5        0.0000 
     16 CA          4.7530   35.4320    9.6870 C.3       4 GLP5        0.0000 
     17 CA          2.7795   29.4845    8.9730 C.3       2 GLC5        0.0000 
     18 CA          4.0290   30.5370    7.4400 C.3       6 GLL5        0.0000 
     19 CA          1.5300   28.4320   10.5060 C.3       4 GLP5        0.0000 
     20 CA          3.8555   27.4375    8.1295 C.3       2 GLC5        0.0000 
     21 CA          5.0240   28.6920    8.9050 C.3       6 GLL5        0.0000 
     22 CA          2.6870   26.1830    7.3540 C.3       4 GLP5        0.0000 
     23 CA          3.2770   28.5620    9.7055 C.3       2 GLC5        0.0000 
     24 CA          6.2540   29.5555   10.4100 C.3       2 GLC5        0.0000 
     25 CA          7.4840   30.4190   11.9150 C.3       4 GLP5        0.0000 
     26 CA          5.3480   27.2425   10.2955 C.3       2 GLC5        0.0000 
     27 CA          5.6720   25.7930   11.6860 C.3       4 GLP5        0.0000 
     28 CA          6.1335   30.5450    8.5690 C.3       2 GLC5        0.0000 
     29 CA          7.2430   32.3980    8.2330 C.3       4 GLP5        0.0000 
     30 CA          4.3285   27.6945    3.0350 C.3       2 GLC5        0.0000 
     31 CA          5.3610   28.5440    4.5290 C.3       6 GLL5        0.0000 
     32 CA          3.2960   26.8450    1.5410 C.3       4 GLP5        0.0000 
     33 CA          9.9040   29.2040    8.8745 C.3       2 GLC5        0.0000 
     34 CA          9.4140   27.0670    8.5070 C.3       6 GLL5        0.0000 
     35 CA         10.3940   31.3410    9.2420 C.3       4 GLP5        0.0000 
     36 CA          7.4730   25.9050   10.6500 C.3       2 GLC5        0.0000 
     37 CA          9.2740   26.0170    9.6140 C.3       6 GLL5        0.0000 
     38 CA         10.1150   26.1210   11.3630 C.3       2 GLC5        0.0000 
     39 CA         10.9560   26.2250   13.1120 C.3       4 GLP5        0.0000 
     40 CA         12.0485   26.9625    8.9200 C.3       2 GLC5        0.0000 
     41 CA         10.2860   25.8090    8.4850 C.3       6 GLL5        0.0000 
     42 CA         13.8110   28.1160    9.3550 C.3       4 GLP5        0.0000 
     43 CA         11.2390   25.8755   10.5190 C.3       2 GLC5        0.0000 
     44 CA         12.1920   25.9420   12.5530 C.3       4 GLP5        0.0000 
     45 CA          2.6458   36.1445    3.2352 C.3       2 GLC5        0.0000 
     46 CA          0.7940   35.4760    3.0860 C.3       6 GLL5        0.0000 
     47 CA          4.5460   36.2450    3.9050 C.3       4 GLP5        0.0000 
     48 CA          0.9203   31.9400    4.8991 C.3       2 GLC5        0.0000 
     49 CA          2.3240   33.4850    3.4050 C.3       6 GLL5        0.0000 
     50 CA         -0.8040   30.8250    4.9770 C.3       4 GLP5        0.0000 
     51 CA          3.5953   34.6500    4.3631 C.3       2 GLC5        0.0000 
     52 CA          2.2620   33.5390    4.8060 C.3       6 GLL5        0.0000 
     53 CA          1.9950   30.3532    7.2293 C.3       2 GLC5        0.0000 
     54 CA          0.2510   29.5790    6.8750 C.3       4 GLP5        0.0000 
     55 CA          5.4910   31.7628    7.9083 C.3       2 GLC5        0.0000 
     56 CA          4.2570   28.4552    2.3798 C.3       2 GLC5        0.0000 
     57 CA          5.7470   29.6890    3.8250 C.3       6 GLL5        0.0000 
     58 CA          6.6650   31.6728    2.9438 C.3       2 GLC5        0.0000 
     59 CA          4.6890   30.4420    2.6120 C.3       6 GLL5        0.0000 
     60 CA          8.1120   33.2800    2.6690 C.3       4 GLP5        0.0000 
     61 CA          7.7690   31.6348    3.6040 C.3       2 GLC5        0.0000 
     62 CA          6.9920   30.2630    4.0710 C.3       6 GLL5        0.0000 
     63 CA          7.0705   31.7933    5.3220 C.3       2 GLC5        0.0000 
     64 CA          5.1205   26.5343    5.6165 C.3       2 GLC5        0.0000 
     65 CA          4.4430   24.7990    6.2310 C.3       4 GLP5        0.0000 
     66 CA          8.7380   24.6683    8.2999 C.3       2 GLC5        0.0000 
     67 CA          7.6610   23.1610    7.8270 C.3       4 GLP5        0.0000 
@<TRIPOS>BOND
@<TRIPOS>SUBSTRUCTURE
     1 ALC1       11 GROUP        1 X    ALC  0     ROOT ALC X 1
     2 GLC5        1 GROUP        1 X    GLC  0     **** GLC X 6
     3 ALP1       13 GROUP        1 Y    ALP  0     ROOT ALP Y 8
     4 GLP5        3 GROUP        1 Y    GLP  0     **** GLP Y 13
     5 ALL1       12 GROUP        1 Z    ALL  0     ROOT ALL Z 15
     6 GLL5        2 GROUP        1 Z    GLL  0     **** GLL Z 20
@<TRIPOS>SET

