#    Name: 4jbq_VX6_1_ligand
#    Modification time : Tue Mar 25 05:43:28 2014

@<TRIPOS>MOLECULE
4jbq_VX6_1_ligand
   62    66     1     0     0
SMALL
NO_CHARGES


@<TRIPOS>ATOM
      1 N1          0.3330   36.0580    0.7180 N.4       1 VX6501      0.0000 
      2 C2          0.6970   36.6120    2.0450 C.3       1 VX6501      0.0000 
      3 C3          0.7940   35.4760    3.0860 C.3       1 VX6501      0.0000 
      4 N4          1.6100   34.3450    2.5540 N.3       1 VX6501      0.0000 
      5 C5          1.5600   33.9580    1.1030 C.3       1 VX6501      0.0000 
      6 C6          1.4090   35.1850    0.2100 C.3       1 VX6501      0.0000 
      7 C7          0.2120   37.1680   -0.2340 C.3       1 VX6501      0.0000 
      8 C8          2.3240   33.4850    3.4050 C.ar      1 VX6501      0.0000 
      9 C9          2.2620   33.5390    4.8060 C.ar      1 VX6501      0.0000 
     10 C10         2.9960   32.5980    5.5370 C.ar      1 VX6501      0.0000 
     11 N11         3.7250   31.6660    4.8750 N.ar      1 VX6501      0.0000 
     12 C12         3.7640   31.6400    3.5280 C.ar      1 VX6501      0.0000 
     13 N13         3.0610   32.5380    2.8220 N.ar      1 VX6501      0.0000 
     14 N14         2.9560   32.6500    6.8690 N.pl3     1 VX6501      0.0000 
     15 C15         3.4490   31.7180    7.7270 C.2       1 VX6501      0.0000 
     16 C17         4.0290   30.5370    7.4400 C.2       1 VX6501      0.0000 
     17 C18         4.3320   30.0370    8.6340 C.2       1 VX6501      0.0000 
     18 N19         3.9530   30.8880    9.5830 N.2       1 VX6501      0.0000 
     19 N20         3.4390   31.8830    9.0490 N.pl3     1 VX6501      0.0000 
     20 C21         5.0240   28.6920    8.9050 C.3       1 VX6501      0.0000 
     21 S23         4.6890   30.4420    2.6120 S.3       1 VX6501      0.0000 
     22 C24         5.7470   29.6890    3.8250 C.ar      1 VX6501      0.0000 
     23 C25         6.9920   30.2630    4.0710 C.ar      1 VX6501      0.0000 
     24 C26         7.8600   29.7160    5.0070 C.ar      1 VX6501      0.0000 
     25 C27         7.4970   28.5730    5.7100 C.ar      1 VX6501      0.0000 
     26 C28         6.2350   27.9950    5.4750 C.ar      1 VX6501      0.0000 
     27 C29         5.3610   28.5440    4.5290 C.ar      1 VX6501      0.0000 
     28 N30         8.3750   28.1430    6.6310 N.am      1 VX6501      0.0000 
     29 C31         8.2530   27.1390    7.5040 C.2       1 VX6501      0.0000 
     30 O32         7.3430   26.3070    7.5140 O.2       1 VX6501      0.0000 
     31 C33         9.4140   27.0670    8.5070 C.3       1 VX6501      0.0000 
     32 C34         9.2740   26.0170    9.6140 C.3       1 VX6501      0.0000 
     33 C35        10.2860   25.8090    8.4850 C.3       1 VX6501      0.0000 
     34 H          -0.5813   35.5233    0.7732 H         1 VX6501      0.0000 
     35 H          -0.0558   37.3220    2.3846 H         1 VX6501      0.0000 
     36 H           1.6615   37.1159    1.9996 H         1 VX6501      0.0000 
     37 H          -0.2156   35.1385    3.3203 H         1 VX6501      0.0000 
     38 H           1.2478   35.8786    3.9916 H         1 VX6501      0.0000 
     39 H           0.7148   33.2867    0.9279 H         1 VX6501      0.0000 
     40 H           2.4781   33.4314    0.8286 H         1 VX6501      0.0000 
     41 H           2.3610   35.7211    0.1921 H         1 VX6501      0.0000 
     42 H           1.1835   34.8502   -0.8054 H         1 VX6501      0.0000 
     43 H           1.7013   34.2399    5.2732 H         1 VX6501      0.0000 
     44 H           2.4853   33.5184    7.3224 H         1 VX6501      0.0000 
     45 H           4.1794   30.1632    6.5899 H         1 VX6501      0.0000 
     46 H           3.0663   32.6947    9.4862 H         1 VX6501      0.0000 
     47 H           7.2731   31.1106    3.5470 H         1 VX6501      0.0000 
     48 H           8.7736   30.1571    5.1809 H         1 VX6501      0.0000 
     49 H           5.9548   27.1594    6.0064 H         1 VX6501      0.0000 
     50 H           4.4527   28.1129    4.3557 H         1 VX6501      0.0000 
     51 H           9.3315   28.6992    6.6702 H         1 VX6501      0.0000 
     52 H           9.9322   27.7716    8.8503 H         1 VX6501      0.0000 
     53 H           8.5136   25.4943    9.4130 H         1 VX6501      0.0000 
     54 H           9.7492   26.3342   10.3659 H         1 VX6501      0.0000 
     55 H          11.1367   26.0479    8.8190 H         1 VX6501      0.0000 
     56 H           9.9011   25.2081    7.8661 H         1 VX6501      0.0000 
     57 H           1.0678   37.6779   -0.3206 H         1 VX6501      0.0000 
     58 H          -0.0321   36.8474   -1.1492 H         1 VX6501      0.0000 
     59 H          -0.4916   37.8215    0.0450 H         1 VX6501      0.0000 
     60 H           5.9301   28.6490    8.4840 H         1 VX6501      0.0000 
     61 H           5.1475   28.5284    9.8838 H         1 VX6501      0.0000 
     62 H           4.4962   27.9233    8.5437 H         1 VX6501      0.0000 
@<TRIPOS>BOND
     1    2    1 1    
     2    6    1 1    
     3    7    1 1    
     4   34    1 1    
     5    3    2 1    
     6   35    2 1    
     7   36    2 1    
     8    4    3 1    
     9   37    3 1    
    10   38    3 1    
    11    5    4 1    
    12    8    4 1    
    13    6    5 1    
    14   39    5 1    
    15   40    5 1    
    16   41    6 1    
    17   42    6 1    
    18   57    7 1    
    19   58    7 1    
    20   59    7 1    
    21    9    8 ar   
    22   13    8 ar   
    23   10    9 ar   
    24   43    9 1    
    25   11   10 ar   
    26   14   10 1    
    27   12   11 ar   
    28   13   12 ar   
    29   21   12 1    
    30   15   14 1    
    31   44   14 1    
    32   16   15 2    
    33   19   15 1    
    34   17   16 1    
    35   45   16 1    
    36   18   17 2    
    37   20   17 1    
    38   19   18 1    
    39   46   19 1    
    40   60   20 1    
    41   61   20 1    
    42   62   20 1    
    43   22   21 1    
    44   23   22 ar   
    45   27   22 ar   
    46   24   23 ar   
    47   47   23 1    
    48   25   24 ar   
    49   48   24 1    
    50   26   25 ar   
    51   28   25 1    
    52   27   26 ar   
    53   49   26 1    
    54   50   27 1    
    55   29   28 am   
    56   51   28 1    
    57   30   29 2    
    58   31   29 1    
    59   32   31 1    
    60   33   31 1    
    61   52   31 1    
    62   33   32 1    
    63   53   32 1    
    64   54   32 1    
    65   55   33 1    
    66   56   33 1    
@<TRIPOS>SUBSTRUCTURE
     1 VX6501      1 GROUP   
@<TRIPOS>SET

