#    Name: 3aca_8DD_1_INTS_M
#    Modification time : Tue Mar 25 11:41:57 2014

@<TRIPOS>MOLECULE
3aca_8DD_1_INTS_M
   46     0    12     0     0
SMALL
NO_CHARGES


@<TRIPOS>ATOM
      1 N           0.2850   15.9005   75.5415 N.am      1 SEC2        0.0000 
      2 N           0.8080   16.4610   74.3300 N.am      9 SEL2        0.0000 
      3 N          -0.2380   15.3400   76.7530 N.am      5 SEP2        0.0000 
      4 CA          0.1480   18.6240   73.6880 C.3       4 GLC5        0.0000 
      5 CA         -0.2170   16.9030   73.5920 C.3      12 GLL5        0.0000 
      6 CA          0.5130   20.3450   73.7840 C.3       8 GLP5        0.0000 
      7 CA         -0.6445   17.2540   75.4090 C.3       4 GLC5        0.0000 
      8 CA         -1.0720   17.6050   77.2260 C.3       8 GLP5        0.0000 
      9 N          -1.3340   18.2050   71.5090 N.am      1 SEC2        0.0000 
     10 N          -0.2510   17.1770   72.2890 N.am      9 SEL2        0.0000 
     11 N          -2.4170   19.2330   70.7290 N.am      5 SEP2        0.0000 
     12 CA          1.6305   14.8425   75.1330 C.3       4 GLC5        0.0000 
     13 CA          1.9970   16.2440   73.7310 C.3      12 GLL5        0.0000 
     14 CA          1.2640   13.4410   76.5350 C.3       8 GLP5        0.0000 
     15 CA          1.6280   18.8995   70.4370 C.3       4 GLC5        0.0000 
     16 CA          0.3460   17.6010   69.3620 C.3      12 GLL5        0.0000 
     17 CA          2.9100   20.1980   71.5120 C.3       8 GLP5        0.0000 
     18 CA         -0.1100   15.6360   70.1710 C.3       4 GLC5        0.0000 
     19 CA         -0.5660   13.6710   70.9800 C.3       8 GLP5        0.0000 
     20 CA          1.3915   19.3840   66.7035 C.3       4 GLC5        0.0000 
     21 CA          0.9510   18.0150   68.0290 C.3      12 GLL5        0.0000 
     22 CA          1.8320   20.7530   65.3780 C.3       8 GLP5        0.0000 
     23 NZ         -1.4865   12.1960   64.5740 N.4       2 LYC4        0.0000 
     24 NZ         -0.4920   13.3760   64.0570 N.4      10 LYL4        0.0000 
     25 NZ         -2.3210   10.6660   66.3600 N.4       6 LYP4        0.0000 
     26 Zn          0.1720   12.8125   63.2080 Zn        3 ZIC7        0.0000 
     27 Zn         -0.4920   13.3760   64.0570 Zn       11 ZIL7        0.0000 
     28 Zn          0.8360   12.2490   62.3590 Zn        7 ZIP7        0.0000 
     29 N          -1.4865   12.1960   64.5740 N.am      1 SEC2        0.0000 
     30 N          -0.4920   13.3760   64.0570 N.am      9 SEL2        0.0000 
     31 N          -2.4810   11.0160   65.0910 N.am      5 SEP2        0.0000 
     32 CA          0.3425   18.9770   65.6910 C.3       4 GLC5        0.0000 
     33 CA         -0.2000   17.7080   67.0800 C.3      12 GLL5        0.0000 
     34 CA          0.8850   20.2460   64.3020 C.3       8 GLP5        0.0000 
     35 Zn          1.4425   13.4945   62.5550 Zn        3 ZIC7        0.0000 
     36 Zn          2.0490   14.7400   62.7510 Zn       11 ZIL7        0.0000 
     37 Zn          2.5855   13.6910   62.2610 Zn        3 ZIC7        0.0000 
     38 Zn          3.1220   12.6420   61.7710 Zn        7 ZIP7        0.0000 
     39 N          -0.9095   12.8370   66.7570 N.am      1 SEC2        0.0000 
     40 N          -0.3320   14.3250   66.3820 N.am      9 SEL2        0.0000 
     41 N          -1.4870   11.3490   67.1320 N.am      5 SEP2        0.0000 
     42 CA          1.1349   18.4147   73.3337 C.3       4 GLC5        0.0000 
     43 CA          0.9450   16.9510   71.7230 C.3      12 GLL5        0.0000 
     44 CA          0.2367   14.5610   68.9155 C.3       4 GLC5        0.0000 
     45 CA         -0.6200   16.3590   67.6330 C.3      12 GLL5        0.0000 
     46 CA          0.6150   13.3140   70.3900 C.3       8 GLP5        0.0000 
@<TRIPOS>BOND
@<TRIPOS>SUBSTRUCTURE
     1 SEC2        1 GROUP        1 X    SEC  0     ROOT SEC X 2
     2 LYC4       23 GROUP        1 X    LYC  0     **** LYC X 4
     3 ZIC7       26 GROUP        1 X    ZIC  0     **** ZIC X 5
     4 GLC5        4 GROUP        1 X    GLC  0     **** GLC X 6
     5 SEP2        3 GROUP        1 Y    SEP  0     ROOT SEP Y 9
     6 LYP4       25 GROUP        1 Y    LYP  0     **** LYP Y 11
     7 ZIP7       28 GROUP        1 Y    ZIP  0     **** ZIP Y 12
     8 GLP5        6 GROUP        1 Y    GLP  0     **** GLP Y 13
     9 SEL2        2 GROUP        1 Z    SEL  0     ROOT SEL Z 16
    10 LYL4       24 GROUP        1 Z    LYL  0     **** LYL Z 18
    11 ZIL7       27 GROUP        1 Z    ZIL  0     **** ZIL Z 19
    12 GLL5        5 GROUP        1 Z    GLL  0     **** GLL Z 20
@<TRIPOS>SET

