#    Name: 3aca_8DD_1_ligand
#    Modification time : Tue Mar 25 11:41:57 2014

@<TRIPOS>MOLECULE
3aca_8DD_1_ligand
   39    41     1     0     0
SMALL
NO_CHARGES


@<TRIPOS>ATOM
      1 N1          0.8080   16.4610   74.3300 N.ar      1 8DD2        0.0000 
      2 C2         -0.2170   16.9030   73.5920 C.ar      1 8DD2        0.0000 
      3 N3         -0.2510   17.1770   72.2890 N.ar      1 8DD2        0.0000 
      4 C4          0.9450   16.9510   71.7230 C.ar      1 8DD2        0.0000 
      5 C5          2.0880   16.4990   72.3490 C.ar      1 8DD2        0.0000 
      6 C6          1.9970   16.2440   73.7310 C.ar      1 8DD2        0.0000 
      7 N6          3.0210   15.8030   74.4690 N.pl3     1 8DD2        0.0000 
      8 N7          3.1260   16.3880   71.4400 N.am      1 8DD2        0.0000 
      9 C8          2.6040   16.7700   70.2960 C.2       1 8DD2        0.0000 
     10 O8          3.2390   16.8000   69.2580 O.2       1 8DD2        0.0000 
     11 N9          1.2830   17.1260   70.4010 N.am      1 8DD2        0.0000 
     12 PA         -0.5870   14.6370   64.8430 P.3       1 8DD2        0.0000 
     13 PB          2.1870   15.3190   64.0970 P.3       1 8DD2        0.0000 
     14 C1'         0.3460   17.6010   69.3620 C.3       1 8DD2        0.0000 
     15 O1A        -1.8240   15.4400   64.7030 O.co2     1 8DD2        0.0000 
     16 O1B         2.8730   14.2760   65.0640 O.co2     1 8DD2        0.0000 
     17 C2'         0.9510   18.0150   68.0290 C.3       1 8DD2        0.0000 
     18 O2A        -0.4920   13.3760   64.0570 O.co2     1 8DD2        0.0000 
     19 O2B         2.7940   16.6160   63.9230 O.co2     1 8DD2        0.0000 
     20 C3'        -0.2000   17.7080   67.0800 C.3       1 8DD2        0.0000 
     21 O3'        -1.2640   18.6350   67.2650 O.3       1 8DD2        0.0000 
     22 O3A         0.6830   15.6120   64.5230 O.3       1 8DD2        0.0000 
     23 O3B         2.0490   14.7400   62.7510 O.co2     1 8DD2        0.0000 
     24 C4'        -0.6200   16.3590   67.6330 C.3       1 8DD2        0.0000 
     25 O4'        -0.5560   16.5450   69.0600 O.3       1 8DD2        0.0000 
     26 C5'         0.3370   15.2570   67.2490 C.3       1 8DD2        0.0000 
     27 O5'        -0.3320   14.3250   66.3820 O.3       1 8DD2        0.0000 
     28 H          -1.1653   17.0619   74.1416 H         1 8DD2        0.0000 
     29 H           2.8412   15.6860   75.4457 H         1 8DD2        0.0000 
     30 H           3.8748   15.6297   73.9780 H         1 8DD2        0.0000 
     31 H           3.9992   16.0979   71.6410 H         1 8DD2        0.0000 
     32 H          -0.2288   18.4493   69.7428 H         1 8DD2        0.0000 
     33 H           1.7758   17.4042   67.8025 H         1 8DD2        0.0000 
     34 H           1.1509   19.0468   68.0290 H         1 8DD2        0.0000 
     35 H           0.1538   17.5954   66.1255 H         1 8DD2        0.0000 
     36 H          -1.6005   16.1396   67.3230 H         1 8DD2        0.0000 
     37 H           0.6865   14.7679   68.1644 H         1 8DD2        0.0000 
     38 H           1.2036   15.7083   66.7544 H         1 8DD2        0.0000 
     39 H          -0.8392   19.4353   67.6882 H         1 8DD2        0.0000 
@<TRIPOS>BOND
     1    2    1 ar   
     2    6    1 ar   
     3    3    2 ar   
     4   28    2 1    
     5    4    3 ar   
     6    5    4 ar   
     7   11    4 1    
     8    6    5 ar   
     9    8    5 1    
    10    7    6 1    
    11   29    7 1    
    12   30    7 1    
    13    9    8 am   
    14   31    8 1    
    15   10    9 2    
    16   11    9 am   
    17   14   11 1    
    18   15   12 ar   
    19   18   12 ar   
    20   22   12 1    
    21   27   12 1    
    22   16   13 ar   
    23   19   13 ar   
    24   22   13 1    
    25   23   13 ar   
    26   17   14 1    
    27   25   14 1    
    28   32   14 1    
    29   20   17 1    
    30   33   17 1    
    31   34   17 1    
    32   21   20 1    
    33   24   20 1    
    34   35   20 1    
    35   39   21 1    
    36   25   24 1    
    37   26   24 1    
    38   36   24 1    
    39   27   26 1    
    40   37   26 1    
    41   38   26 1    
@<TRIPOS>SUBSTRUCTURE
     1 8DD2        1 GROUP   
@<TRIPOS>SET

