#    Name: 1osv_CHC_1_INTS_M
#    Modification time : Mon Mar 24 20:36:04 2014

@<TRIPOS>MOLECULE
1osv_CHC_1_INTS_M
   94     0     9     0     0
SMALL
NO_CHARGES


@<TRIPOS>ATOM
      1 CA          6.9465   34.9685   14.7265 C.3       3 GLC5        0.0000 
      2 CA          8.1840   35.1620   16.2230 C.3       9 GLL5        0.0000 
      3 CA          5.7090   34.7750   13.2300 C.3       6 GLP5        0.0000 
      4 N           7.7325   32.5645   19.6265 N.am      2 SEC2        0.0000 
      5 N           7.8730   33.8450   19.7620 N.am      8 SEL2        0.0000 
      6 N           7.5920   31.2840   19.4910 N.am      5 SEP2        0.0000 
      7 O           6.6720   33.8310   20.7485 O.2       1 ALC1        0.0000 
      8 O           7.8730   33.8450   19.7620 O.2       7 ALL1        0.0000 
      9 O           5.4710   33.8170   21.7350 O.2       4 ALP1        0.0000 
     10 CA          9.8270   34.5640   19.2630 C.3       3 GLC5        0.0000 
     11 CA          8.2630   36.1690   19.1190 C.3       9 GLL5        0.0000 
     12 CA         11.3910   32.9590   19.4070 C.3       6 GLP5        0.0000 
     13 CA         11.2395   40.4215   19.1575 C.3       3 GLC5        0.0000 
     14 CA         10.2460   38.7190   18.2750 C.3       9 GLL5        0.0000 
     15 CA         12.2330   42.1240   20.0400 C.3       6 GLP5        0.0000 
     16 N          10.8115   37.7965   20.8875 N.am      2 SEC2        0.0000 
     17 N          10.7480   37.9790   19.4540 N.am      8 SEL2        0.0000 
     18 N          10.8750   37.6140   22.3210 N.am      5 SEP2        0.0000 
     19 O          12.2685   37.5550   19.9980 O.2       1 ALC1        0.0000 
     20 O          10.7480   37.9790   19.4540 O.2       7 ALL1        0.0000 
     21 O          13.7890   37.1310   20.5420 O.2       4 ALP1        0.0000 
     22 CA         10.5175   33.9635   15.1810 C.3       3 GLC5        0.0000 
     23 CA         11.1790   36.0700   15.4650 C.3       9 GLL5        0.0000 
     24 CA          9.8560   31.8570   14.8970 C.3       6 GLP5        0.0000 
     25 CA         13.3295   34.7945   17.0150 C.3       3 GLC5        0.0000 
     26 CA         12.7550   36.0600   15.5890 C.3       9 GLL5        0.0000 
     27 CA         13.9040   33.5290   18.4410 C.3       6 GLP5        0.0000 
     28 CA         12.5305   36.2255   18.1725 C.3       3 GLC5        0.0000 
     29 CA         12.5310   38.1110   17.0740 C.3       9 GLL5        0.0000 
     30 CA         12.5300   34.3400   19.2710 C.3       6 GLP5        0.0000 
     31 CA         12.7570   41.1675   18.0765 C.3       3 GLC5        0.0000 
     32 CA         13.2940   39.4950   17.3090 C.3       9 GLL5        0.0000 
     33 CA         12.2200   42.8400   18.8440 C.3       6 GLP5        0.0000 
     34 CA         11.5955   40.7265   16.9410 C.3       3 GLC5        0.0000 
     35 CA          9.8970   41.9580   16.5730 C.3       6 GLP5        0.0000 
     36 CA         14.9735   39.0160   19.1860 C.3       3 GLC5        0.0000 
     37 CA         14.7170   38.9970   17.2980 C.3       9 GLL5        0.0000 
     38 CA         15.2300   39.0350   21.0740 C.3       6 GLP5        0.0000 
     39 CA         11.7260   39.4840   12.9460 C.3       3 GLC5        0.0000 
     40 CA         12.9790   38.3930   14.4630 C.3       9 GLL5        0.0000 
     41 CA         10.4730   40.5750   11.4290 C.3       6 GLP5        0.0000 
     42 CA         13.9770   39.1035   12.6645 C.3       3 GLC5        0.0000 
     43 CA         14.9750   39.8140   10.8660 C.3       6 GLP5        0.0000 
     44 CA          8.8870   38.4685   13.5825 C.3       3 GLC5        0.0000 
     45 CA          8.3320   37.3690   15.2560 C.3       9 GLL5        0.0000 
     46 CA          9.4420   39.5680   11.9090 C.3       6 GLP5        0.0000 
     47 CA          7.0205   36.0720   14.2430 C.3       3 GLC5        0.0000 
     48 CA         15.6880   36.7850   12.5575 C.3       3 GLC5        0.0000 
     49 CA         15.9720   36.4330   14.3830 C.3       9 GLL5        0.0000 
     50 CA         15.4040   37.1370   10.7320 C.3       6 GLP5        0.0000 
     51 CA         15.1790   34.8960   13.4590 C.3       3 GLC5        0.0000 
     52 CA         14.3860   33.3590   12.5350 C.3       6 GLP5        0.0000 
     53 CA         16.9860   34.8490   14.4820 C.3       3 GLC5        0.0000 
     54 CA         18.0000   33.2650   14.5810 C.3       6 GLP5        0.0000 
     55 CA         18.0670   36.0775   16.3560 C.3       3 GLC5        0.0000 
     56 CA         17.3610   38.0110   15.8150 C.3       9 GLL5        0.0000 
     57 CA         18.7730   34.1440   16.8970 C.3       6 GLP5        0.0000 
     58 CA         19.7080   37.7770   13.2665 C.3       3 GLC5        0.0000 
     59 CA         18.4670   38.1220   14.6950 C.3       9 GLL5        0.0000 
     60 CA         20.9490   37.4320   11.8380 C.3       6 GLP5        0.0000 
     61 CA          6.8295   40.4780   18.2925 C.3       3 GLC5        0.0000 
     62 CA          6.7350   39.2900   19.9220 C.3       9 GLL5        0.0000 
     63 CA          6.9240   41.6660   16.6630 C.3       6 GLP5        0.0000 
     64 CA          5.6805   37.6585   20.6330 C.3       3 GLC5        0.0000 
     65 CA          4.6260   36.0270   21.3440 C.3       6 GLP5        0.0000 
     66 CA          5.0615   40.2060   20.7350 C.3       3 GLC5        0.0000 
     67 CA          3.3880   41.1220   21.5480 C.3       6 GLP5        0.0000 
     68 CA          9.4595   39.5505   21.1405 C.3       3 GLC5        0.0000 
     69 CA          8.2140   39.1380   19.5640 C.3       9 GLL5        0.0000 
     70 CA         10.7050   39.9630   22.7170 C.3       6 GLP5        0.0000 
     71 N          21.3905   38.1175   16.4140 N.am      2 SEC2        0.0000 
     72 N          20.5410   37.3480   15.5400 N.am      8 SEL2        0.0000 
     73 N          22.2400   38.8870   17.2880 N.am      5 SEP2        0.0000 
     74 CA          9.0783   33.2600   15.8547 C.3       3 GLC5        0.0000 
     75 CA          9.7230   33.7010   18.7323 C.3       3 GLC5        0.0000 
     76 CA          8.4170   34.1640   17.4020 C.3       9 GLL5        0.0000 
     77 CA          8.8505   34.7177   20.7790 C.3       3 GLC5        0.0000 
     78 CA          7.6930   34.7220   18.7130 C.3       9 GLL5        0.0000 
     79 CA          9.7230   33.9900   22.6420 C.3       6 GLP5        0.0000 
     80 CA          6.3020   35.7362   20.1300 C.3       3 GLC5        0.0000 
     81 CA          7.6773   40.2915   17.7715 C.3       3 GLC5        0.0000 
     82 CA         10.2428   40.1932   17.1005 C.3       3 GLC5        0.0000 
     83 CA         11.6705   35.3398   17.6775 C.3       3 GLC5        0.0000 
     84 CA         10.4430   36.6090   16.7030 C.3       9 GLL5        0.0000 
     85 CA         12.4485   34.5990   14.2215 C.3       3 GLC5        0.0000 
     86 CA         12.9300   33.1330   12.9160 C.3       6 GLP5        0.0000 
     87 CA         13.3778   38.6020   19.1837 C.3       3 GLC5        0.0000 
     88 CA         13.8430   38.4010   21.1760 C.3       6 GLP5        0.0000 
     89 CA         14.1468   40.9940   16.1362 C.3       3 GLC5        0.0000 
     90 CA         14.2880   42.7420   14.9690 C.3       6 GLP5        0.0000 
     91 CA          7.3797   38.6425   21.5030 C.3       3 GLC5        0.0000 
     92 CA          7.2850   38.0710   23.2630 C.3       6 GLP5        0.0000 
     93 CA          7.3003   41.2660   19.9930 C.3       3 GLC5        0.0000 
     94 CA          7.1260   43.3180   20.2430 C.3       6 GLP5        0.0000 
@<TRIPOS>BOND
@<TRIPOS>SUBSTRUCTURE
     1 ALC1        7 GROUP        1 X    ALC  0     ROOT ALC X 1
     2 SEC2        4 GROUP        1 X    SEC  0     **** SEC X 2
     3 GLC5        1 GROUP        1 X    GLC  0     **** GLC X 6
     4 ALP1        9 GROUP        1 Y    ALP  0     ROOT ALP Y 8
     5 SEP2        6 GROUP        1 Y    SEP  0     **** SEP Y 9
     6 GLP5        3 GROUP        1 Y    GLP  0     **** GLP Y 13
     7 ALL1        8 GROUP        1 Z    ALL  0     ROOT ALL Z 15
     8 SEL2        5 GROUP        1 Z    SEL  0     **** SEL Z 16
     9 GLL5        2 GROUP        1 Z    GLL  0     **** GLL Z 20
@<TRIPOS>SET

