#    Name: 1osv_CHC_1_ligand
#    Modification time : Mon Mar 24 20:36:04 2014

@<TRIPOS>MOLECULE
1osv_CHC_1_ligand
   74    77     1     0     0
SMALL
NO_CHARGES


@<TRIPOS>ATOM
      1 C1          8.1840   35.1620   16.2230 C.3       1 CHC202      0.0000 
      2 C2          8.4170   34.1640   17.4020 C.3       1 CHC202      0.0000 
      3 C3          7.6930   34.7220   18.7130 C.3       1 CHC202      0.0000 
      4 O3          7.8730   33.8450   19.7620 O.3       1 CHC202      0.0000 
      5 C4          8.2630   36.1690   19.1190 C.3       1 CHC202      0.0000 
      6 C5          8.0750   37.2330   17.8970 C.3       1 CHC202      0.0000 
      7 C6          8.6470   38.6960   18.1960 C.3       1 CHC202      0.0000 
      8 C7         10.2460   38.7190   18.2750 C.3       1 CHC202      0.0000 
      9 O7         10.7480   37.9790   19.4540 O.3       1 CHC202      0.0000 
     10 C8         10.9310   38.1380   16.9810 C.3       1 CHC202      0.0000 
     11 C9         10.4430   36.6090   16.7030 C.3       1 CHC202      0.0000 
     12 C10         8.7680   36.6150   16.5080 C.3       1 CHC202      0.0000 
     13 C11        11.1790   36.0700   15.4650 C.3       1 CHC202      0.0000 
     14 C12        12.7550   36.0600   15.5890 C.3       1 CHC202      0.0000 
     15 C13        13.2940   37.5270   15.8220 C.3       1 CHC202      0.0000 
     16 C14        12.5310   38.1110   17.0740 C.3       1 CHC202      0.0000 
     17 C15        13.2940   39.4950   17.3090 C.3       1 CHC202      0.0000 
     18 C16        14.7170   38.9970   17.2980 C.3       1 CHC202      0.0000 
     19 C17        14.8150   37.6990   16.3720 C.3       1 CHC202      0.0000 
     20 C18        12.9790   38.3930   14.4630 C.3       1 CHC202      0.0000 
     21 C19         8.3320   37.3690   15.2560 C.3       1 CHC202      0.0000 
     22 C20        15.9590   37.8080   15.2380 C.3       1 CHC202      0.0000 
     23 C21        15.9720   36.4330   14.3830 C.3       1 CHC202      0.0000 
     24 C22        17.3610   38.0110   15.8150 C.3       1 CHC202      0.0000 
     25 C23        18.4670   38.1220   14.6950 C.3       1 CHC202      0.0000 
     26 C24        19.8820   38.3250   15.1140 C.2       1 CHC202      0.0000 
     27 C25         6.7350   39.2900   19.9220 C.3       1 CHC202      0.0000 
     28 C26         8.2140   39.1380   19.5640 C.3       1 CHC202      0.0000 
     29 OT1        20.3510   39.4660   15.0030 O.3       1 CHC202      0.0000 
     30 OT2        20.5410   37.3480   15.5400 O.2       1 CHC202      0.0000 
     31 H           7.1154   35.2576   16.0401 H         1 CHC202      0.0000 
     32 H           8.6638   34.7754   15.3259 H         1 CHC202      0.0000 
     33 H           9.4649   34.0848   17.6058 H         1 CHC202      0.0000 
     34 H           7.9873   33.2138   17.1605 H         1 CHC202      0.0000 
     35 H           6.6528   34.8683   18.4541 H         1 CHC202      0.0000 
     36 H           9.3087   36.0852   19.3272 H         1 CHC202      0.0000 
     37 H           7.7166   36.5339   19.9628 H         1 CHC202      0.0000 
     38 H           7.0189   37.3057   17.6825 H         1 CHC202      0.0000 
     39 H           8.3369   39.3674   17.4663 H         1 CHC202      0.0000 
     40 H          10.5453   39.7669   18.3492 H         1 CHC202      0.0000 
     41 H          10.6554   38.7104   16.1270 H         1 CHC202      0.0000 
     42 H          10.6523   36.0431   17.5651 H         1 CHC202      0.0000 
     43 H          10.9154   36.6779   14.5888 H         1 CHC202      0.0000 
     44 H          10.8519   35.0408   15.2638 H         1 CHC202      0.0000 
     45 H          13.1731   35.6763   14.6763 H         1 CHC202      0.0000 
     46 H          13.0338   35.4493   16.4282 H         1 CHC202      0.0000 
     47 H          12.8332   37.4680   17.9222 H         1 CHC202      0.0000 
     48 H          13.0223   39.8534   18.2457 H         1 CHC202      0.0000 
     49 H          13.0982   40.1090   16.4939 H         1 CHC202      0.0000 
     50 H          15.0337   38.7114   18.2875 H         1 CHC202      0.0000 
     51 H          15.3821   39.7378   16.8857 H         1 CHC202      0.0000 
     52 H          15.0073   36.8679   17.0169 H         1 CHC202      0.0000 
     53 H          15.7026   38.5870   14.5695 H         1 CHC202      0.0000 
     54 H          17.6206   37.1713   16.4611 H         1 CHC202      0.0000 
     55 H          17.3889   38.9272   16.4063 H         1 CHC202      0.0000 
     56 H          18.1471   38.9510   14.0100 H         1 CHC202      0.0000 
     57 H          18.3818   37.1956   14.0679 H         1 CHC202      0.0000 
     58 H           8.7255   40.1283   19.8017 H         1 CHC202      0.0000 
     59 H           8.6805   38.4386   20.3334 H         1 CHC202      0.0000 
     60 H          13.2959   39.3381   14.5431 H         1 CHC202      0.0000 
     61 H          13.4277   38.0004   13.6601 H         1 CHC202      0.0000 
     62 H          11.9997   38.4281   14.2636 H         1 CHC202      0.0000 
     63 H           8.7713   38.2649   15.1901 H         1 CHC202      0.0000 
     64 H           8.5618   36.8678   14.4217 H         1 CHC202      0.0000 
     65 H           7.3444   37.5251   15.2415 H         1 CHC202      0.0000 
     66 H          16.6663   36.4496   13.6635 H         1 CHC202      0.0000 
     67 H          16.1660   35.6391   14.9593 H         1 CHC202      0.0000 
     68 H          15.0926   36.2642   13.9378 H         1 CHC202      0.0000 
     69 H           6.6108   39.5901   20.8678 H         1 CHC202      0.0000 
     70 H           6.2789   39.9623   19.3389 H         1 CHC202      0.0000 
     71 H           6.2378   38.4284   19.8201 H         1 CHC202      0.0000 
     72 H           7.0294   33.9034   20.2957 H         1 CHC202      0.0000 
     73 H          11.7422   37.9655   19.3469 H         1 CHC202      0.0000 
     74 H          21.3104   39.3785   15.2711 H         1 CHC202      0.0000 
@<TRIPOS>BOND
     1    2    1 1    
     2   12    1 1    
     3   31    1 1    
     4   32    1 1    
     5    3    2 1    
     6   33    2 1    
     7   34    2 1    
     8    4    3 1    
     9    5    3 1    
    10   35    3 1    
    11   72    4 1    
    12    6    5 1    
    13   36    5 1    
    14   37    5 1    
    15    7    6 1    
    16   12    6 1    
    17   38    6 1    
    18    8    7 1    
    19   28    7 1    
    20   39    7 1    
    21    9    8 1    
    22   10    8 1    
    23   40    8 1    
    24   73    9 1    
    25   11   10 1    
    26   16   10 1    
    27   41   10 1    
    28   12   11 1    
    29   13   11 1    
    30   42   11 1    
    31   21   12 1    
    32   14   13 1    
    33   43   13 1    
    34   44   13 1    
    35   15   14 1    
    36   45   14 1    
    37   46   14 1    
    38   16   15 1    
    39   19   15 1    
    40   20   15 1    
    41   17   16 1    
    42   47   16 1    
    43   18   17 1    
    44   48   17 1    
    45   49   17 1    
    46   19   18 1    
    47   50   18 1    
    48   51   18 1    
    49   22   19 1    
    50   52   19 1    
    51   60   20 1    
    52   61   20 1    
    53   62   20 1    
    54   63   21 1    
    55   64   21 1    
    56   65   21 1    
    57   23   22 1    
    58   24   22 1    
    59   53   22 1    
    60   66   23 1    
    61   67   23 1    
    62   68   23 1    
    63   25   24 1    
    64   54   24 1    
    65   55   24 1    
    66   26   25 1    
    67   56   25 1    
    68   57   25 1    
    69   29   26 1    
    70   30   26 2    
    71   28   27 1    
    72   69   27 1    
    73   70   27 1    
    74   71   27 1    
    75   58   28 1    
    76   59   28 1    
    77   74   29 1    
@<TRIPOS>SUBSTRUCTURE
     1 CHC202      1 GROUP   
@<TRIPOS>SET

