#    Name: 4l9i_8PR_1_INTS_M
#    Modification time : Tue Mar 25 09:54:22 2014

@<TRIPOS>MOLECULE
4l9i_8PR_1_INTS_M
   60     0     9     0     0
SMALL
NO_CHARGES


@<TRIPOS>ATOM
      1 CA        -12.9475  -45.4720   22.1485 C.3       3 GLC5        0.0000 
      2 CA        -14.8360  -45.2580   21.2530 C.3       9 GLL5        0.0000 
      3 CA        -11.0590  -45.6860   23.0440 C.3       6 GLP5        0.0000 
      4 CA        -15.7005  -43.7940   20.0465 C.3       3 GLC5        0.0000 
      5 CA        -16.5650  -42.3300   18.8400 C.3       6 GLP5        0.0000 
      6 CA        -14.5155  -44.5155   24.5265 C.3       3 GLC5        0.0000 
      7 CA        -16.1180  -45.2200   23.2730 C.3       9 GLL5        0.0000 
      8 CA        -12.9130  -43.8110   25.7800 C.3       6 GLP5        0.0000 
      9 CA        -17.7650  -45.3725   26.1120 C.3       3 GLC5        0.0000 
     10 CA        -17.2970  -45.5520   23.9570 C.3       9 GLL5        0.0000 
     11 CA        -18.2330  -45.1930   28.2670 C.3       6 GLP5        0.0000 
     12 CA        -24.1390  -46.7025   24.7915 C.3       3 GLC5        0.0000 
     13 CA        -22.1240  -46.3600   23.9820 C.3       9 GLL5        0.0000 
     14 CA        -26.1540  -47.0450   25.6010 C.3       6 GLP5        0.0000 
     15 CA        -23.6745  -45.1370   24.0880 C.3       3 GLC5        0.0000 
     16 CA        -25.2250  -43.9140   24.1940 C.3       6 GLP5        0.0000 
     17 CA        -20.7110  -37.3660   24.9790 C.3       3 GLC5        0.0000 
     18 CA        -21.9470  -38.2180   23.9560 C.3       9 GLL5        0.0000 
     19 CA        -19.4750  -36.5140   26.0020 C.3       6 GLP5        0.0000 
     20 CA        -23.5585  -38.1905   22.3870 C.3       3 GLC5        0.0000 
     21 CA        -25.1700  -38.1630   20.8180 C.3       6 GLP5        0.0000 
     22 CA        -20.8660  -37.2155   22.6365 C.3       3 GLC5        0.0000 
     23 CA        -19.7850  -36.2130   21.3170 C.3       6 GLP5        0.0000 
     24 CA        -23.6910  -38.1265   24.4135 C.3       3 GLC5        0.0000 
     25 CA        -25.4350  -38.0350   24.8710 C.3       6 GLP5        0.0000 
     26 CA        -23.2000  -39.9565   23.6410 C.3       3 GLC5        0.0000 
     27 CA        -24.4530  -41.6950   23.3260 C.3       6 GLP5        0.0000 
     28 OD1       -23.3565  -48.2730   24.9820 O.co2     2 ASC3        0.0000 
     29 OD1       -22.1780  -47.7730   24.2900 O.co2     8 ASL3        0.0000 
     30 OD1       -24.5350  -48.7730   25.6740 O.co2     5 ASP3        0.0000 
     31 N         -22.9525  -37.7940   26.2445 N.am      1 SEC2        0.0000 
     32 N         -21.9540  -38.7220   25.3080 N.am      7 SEL2        0.0000 
     33 N         -23.9510  -36.8660   27.1810 N.am      4 SEP2        0.0000 
     34 CA        -17.7205  -44.1825   23.8865 C.3       3 GLC5        0.0000 
     35 CA        -18.3340  -46.2400   23.3160 C.3       9 GLL5        0.0000 
     36 CA        -17.1070  -42.1250   24.4570 C.3       6 GLP5        0.0000 
     37 CA        -20.5425  -38.2770   25.6310 C.3       3 GLC5        0.0000 
     38 CA        -21.6100  -40.0400   25.2600 C.3       9 GLL5        0.0000 
     39 CA        -14.1013  -44.6815   20.4157 C.3       3 GLC5        0.0000 
     40 CA        -15.9610  -45.5660   21.9360 C.3       9 GLL5        0.0000 
     41 CA        -12.8040  -43.9510   19.2370 C.3       6 GLP5        0.0000 
     42 CA        -20.3460  -41.3482   27.9245 C.3       3 GLC5        0.0000 
     43 CA        -21.2160  -42.2720   25.9540 C.3       9 GLL5        0.0000 
     44 CA        -19.2860  -41.0710   29.7300 C.3       6 GLP5        0.0000 
     45 CA        -19.6070  -40.8722   25.9565 C.3       3 GLC5        0.0000 
     46 CA        -21.5960  -40.9790   26.2840 C.3       9 GLL5        0.0000 
     47 CA        -17.8080  -40.1190   25.7940 C.3       6 GLP5        0.0000 
     48 CA        -22.9295  -41.6603   24.7225 C.3       3 GLC5        0.0000 
     49 CA        -23.3915  -39.6332   25.9775 C.3       3 GLC5        0.0000 
     50 CA        -25.1800  -38.7570   26.1830 C.3       6 GLP5        0.0000 
     51 CA        -18.9992  -42.1275   24.2915 C.3       3 GLC5        0.0000 
     52 CA        -20.9070  -41.6510   23.6210 C.3       9 GLL5        0.0000 
     53 CA        -22.6722  -41.9125   23.7260 C.3       3 GLC5        0.0000 
     54 CA        -20.8760  -42.6090   24.6310 C.3       9 GLL5        0.0000 
     55 CA        -16.7206  -43.8005   23.6163 C.3       3 GLC5        0.0000 
     56 CA        -16.5164  -46.4500   24.9442 C.3       3 GLC5        0.0000 
     57 CA        -15.5120  -47.0870   26.4230 C.3       6 GLP5        0.0000 
     58 CA        -19.6273  -40.1615   25.2060 C.3       3 GLC5        0.0000 
     59 CA        -21.2830  -40.3680   23.9760 C.3       9 GLL5        0.0000 
     60 CA        -22.9498  -40.9495   23.9720 C.3       3 GLC5        0.0000 
@<TRIPOS>BOND
@<TRIPOS>SUBSTRUCTURE
     1 SEC2       31 GROUP        1 X    SEC  0     ROOT SEC X 2
     2 ASC3       28 GROUP        1 X    ASC  0     **** ASC X 3
     3 GLC5        1 GROUP        1 X    GLC  0     **** GLC X 6
     4 SEP2       33 GROUP        1 Y    SEP  0     ROOT SEP Y 9
     5 ASP3       30 GROUP        1 Y    ASP  0     **** ASP Y 10
     6 GLP5        3 GROUP        1 Y    GLP  0     **** GLP Y 13
     7 SEL2       32 GROUP        1 Z    SEL  0     ROOT SEL Z 16
     8 ASL3       29 GROUP        1 Z    ASL  0     **** ASL Z 17
     9 GLL5        2 GROUP        1 Z    GLL  0     **** GLL Z 20
@<TRIPOS>SET

