#    Name: 4l9i_8PR_1_ligand
#    Modification time : Tue Mar 25 09:54:22 2014

@<TRIPOS>MOLECULE
4l9i_8PR_1_ligand
   43    46     1     0     0
SMALL
NO_CHARGES


@<TRIPOS>ATOM
      1 FAA       -14.8360  -45.2580   21.2530 F         1 8PR601      0.0000 
      2 CAB       -16.9900  -46.2430   21.2980 C.ar      1 8PR601      0.0000 
      3 CAC       -16.1180  -45.2200   23.2730 C.ar      1 8PR601      0.0000 
      4 CAD       -21.2160  -42.2720   25.9540 C.ar      1 8PR601      0.0000 
      5 CAE       -18.1630  -46.5760   21.9760 C.ar      1 8PR601      0.0000 
      6 CAF       -17.2970  -45.5520   23.9570 C.ar      1 8PR601      0.0000 
      7 CAG       -21.5960  -40.9790   26.2840 C.ar      1 8PR601      0.0000 
      8 CAH       -20.9070  -41.6510   23.6210 C.ar      1 8PR601      0.0000 
      9 CAI       -21.0480  -48.4380   24.9120 C.3       1 8PR601      0.0000 
     10 CAJ       -19.7400  -48.0860   24.2120 C.3       1 8PR601      0.0000 
     11 CAK       -22.1240  -46.3600   23.9820 C.3       1 8PR601      0.0000 
     12 CAL       -21.9470  -38.2180   23.9560 C.3       1 8PR601      0.0000 
     13 CAM       -20.7500  -44.5080   23.0880 C.3       1 8PR601      0.0000 
     14 NAN       -22.1780  -47.7730   24.2900 N.4       1 8PR601      0.0000 
     15 OAO       -20.5170  -43.9000   24.3590 O.3       1 8PR601      0.0000 
     16 OAP       -21.9540  -38.7220   25.3080 O.3       1 8PR601      0.0000 
     17 OAQ       -21.4150  -39.2750   23.1790 O.3       1 8PR601      0.0000 
     18 CAR       -15.9610  -45.5660   21.9360 C.ar      1 8PR601      0.0000 
     19 CAS       -20.8760  -42.6090   24.6310 C.ar      1 8PR601      0.0000 
     20 CAT       -18.3340  -46.2400   23.3160 C.ar      1 8PR601      0.0000 
     21 CAU       -21.6100  -40.0400   25.2600 C.ar      1 8PR601      0.0000 
     22 CAV       -21.2830  -40.3680   23.9760 C.ar      1 8PR601      0.0000 
     23 CAW       -20.8110  -46.0170   23.2810 C.3       1 8PR601      0.0000 
     24 CAX       -19.5960  -46.5780   24.0380 C.3       1 8PR601      0.0000 
     25 H         -16.8891  -46.5073   20.3015 H         1 8PR601      0.0000 
     26 H         -15.3693  -44.7179   23.7685 H         1 8PR601      0.0000 
     27 H         -21.1796  -43.0023   26.6825 H         1 8PR601      0.0000 
     28 H         -18.9144  -47.0790   21.4754 H         1 8PR601      0.0000 
     29 H         -17.4002  -45.2842   24.9483 H         1 8PR601      0.0000 
     30 H         -21.8518  -40.7300   27.2284 H         1 8PR601      0.0000 
     31 H         -20.6641  -41.8875   22.6694 H         1 8PR601      0.0000 
     32 H         -20.9559  -48.1511   25.9705 H         1 8PR601      0.0000 
     33 H         -21.1680  -49.5315   24.8800 H         1 8PR601      0.0000 
     34 H         -19.7162  -48.5650   23.2320 H         1 8PR601      0.0000 
     35 H         -18.9033  -48.4613   24.8031 H         1 8PR601      0.0000 
     36 H         -22.1911  -45.7523   24.8923 H         1 8PR601      0.0000 
     37 H         -22.9481  -46.0658   23.3211 H         1 8PR601      0.0000 
     38 H         -21.3246  -37.3293   23.8912 H         1 8PR601      0.0000 
     39 H         -22.9582  -37.9698   23.6440 H         1 8PR601      0.0000 
     40 H         -19.9481  -44.2904   22.3807 H         1 8PR601      0.0000 
     41 H         -21.6962  -44.1852   22.6509 H         1 8PR601      0.0000 
     42 H         -20.8412  -46.4804   22.2881 H         1 8PR601      0.0000 
     43 H         -19.5809  -46.1212   25.0231 H         1 8PR601      0.0000 
@<TRIPOS>BOND
     1   18    1 1    
     2    5    2 ar   
     3   18    2 ar   
     4   25    2 1    
     5    6    3 ar   
     6   18    3 ar   
     7   26    3 1    
     8    7    4 ar   
     9   19    4 ar   
    10   27    4 1    
    11   20    5 ar   
    12   28    5 1    
    13   20    6 ar   
    14   29    6 1    
    15   21    7 ar   
    16   30    7 1    
    17   19    8 ar   
    18   22    8 ar   
    19   31    8 1    
    20   10    9 1    
    21   14    9 1    
    22   32    9 1    
    23   33    9 1    
    24   24   10 1    
    25   34   10 1    
    26   35   10 1    
    27   14   11 1    
    28   23   11 1    
    29   36   11 1    
    30   37   11 1    
    31   16   12 1    
    32   17   12 1    
    33   38   12 1    
    34   39   12 1    
    35   15   13 1    
    36   23   13 1    
    37   40   13 1    
    38   41   13 1    
    39   19   15 1    
    40   21   16 1    
    41   22   17 1    
    42   24   20 1    
    43   22   21 ar   
    44   24   23 1    
    45   42   23 1    
    46   43   24 1    
@<TRIPOS>SUBSTRUCTURE
     1 8PR601      1 GROUP   
@<TRIPOS>SET

