#    Name: 1w5y_BE6_1_INTS_M
#    Modification time : Tue Mar 25 08:40:48 2014

@<TRIPOS>MOLECULE
1w5y_BE6_1_INTS_M
  133     0     9     0     0
SMALL
NO_CHARGES


@<TRIPOS>ATOM
      1 CA          6.6600   22.2515    1.7675 C.3       3 GLC5        0.0000 
      2 CA          7.5900   23.8330    2.6510 C.3       9 GLL5        0.0000 
      3 CA          5.7300   20.6700    0.8840 C.3       6 GLP5        0.0000 
      4 CA         11.5605   21.9380    2.8635 C.3       3 GLC5        0.0000 
      5 CA         11.5260   23.6260    2.2100 C.3       9 GLL5        0.0000 
      6 CA         11.5950   20.2500    3.5170 C.3       6 GLP5        0.0000 
      7 CA         10.1975   23.5665    0.4945 C.3       3 GLC5        0.0000 
      8 CA          8.8690   23.5070   -1.2210 C.3       6 GLP5        0.0000 
      9 CA         11.8525   22.3045    4.0515 C.3       3 GLC5        0.0000 
     10 CA         12.1100   24.3590    4.5860 C.3       9 GLL5        0.0000 
     11 CA         17.0475   24.2285    5.4130 C.3       3 GLC5        0.0000 
     12 CA         15.3490   23.0370    6.1270 C.3       9 GLL5        0.0000 
     13 CA         18.7460   25.4200    4.6990 C.3       6 GLP5        0.0000 
     14 O          17.6040   22.0160    5.4105 O.2       1 ALC1        0.0000 
     15 O          16.5810   20.9340    5.5800 O.2       7 ALL1        0.0000 
     16 O          18.6270   23.0980    5.2410 O.2       4 ALP1        0.0000 
     17 N          15.6820   25.6240    3.5290 N.am      2 SEC2        0.0000 
     18 N          15.0610   25.0140    4.6130 N.am      8 SEL2        0.0000 
     19 N          16.3030   26.2340    2.4450 N.am      5 SEP2        0.0000 
     20 O          15.4140   25.7665    5.7485 O.2       1 ALC1        0.0000 
     21 O          15.0610   25.0140    4.6130 O.2       7 ALL1        0.0000 
     22 O          15.7670   26.5190    6.8840 O.2       4 ALP1        0.0000 
     23 O          14.5685   25.8900    6.7085 O.2       1 ALC1        0.0000 
     24 O          13.3700   25.2610    6.5330 O.2       7 ALL1        0.0000 
     25 O          10.9195   26.7255    4.4830 O.2       1 ALC1        0.0000 
     26 O          10.2390   25.6640    5.5050 O.2       7 ALL1        0.0000 
     27 O          11.6000   27.7870    3.4610 O.2       4 ALP1        0.0000 
     28 CA          8.5400   23.7505    6.2585 C.3       3 GLC5        0.0000 
     29 CA          9.0380   25.9040    6.2810 C.3       9 GLL5        0.0000 
     30 CA          8.0420   21.5970    6.2360 C.3       6 GLP5        0.0000 
     31 CA         12.4400   26.4475   10.2940 C.3       3 GLC5        0.0000 
     32 CA         10.5970   27.4050    9.6050 C.3       9 GLL5        0.0000 
     33 CA         14.2830   25.4900   10.9830 C.3       6 GLP5        0.0000 
     34 N           9.3210   29.1975    5.3510 N.am      2 SEC2        0.0000 
     35 N           8.5800   27.8700    4.9350 N.am      8 SEL2        0.0000 
     36 N          10.0620   30.5250    5.7670 N.am      5 SEP2        0.0000 
     37 O           7.5390   29.0385    4.5345 O.2       1 ALC1        0.0000 
     38 O           8.5800   27.8700    4.9350 O.2       7 ALL1        0.0000 
     39 O           6.4980   30.2070    4.1340 O.2       4 ALP1        0.0000 
     40 CA          6.7025   27.9340   10.2615 C.3       3 GLC5        0.0000 
     41 CA          8.3510   28.4480    9.0140 C.3       9 GLL5        0.0000 
     42 CA          5.0540   27.4200   11.5090 C.3       6 GLP5        0.0000 
     43 CA         16.7265   15.9545    3.6595 C.3       3 GLC5        0.0000 
     44 CA         17.5240   17.9720    3.7160 C.3       9 GLL5        0.0000 
     45 CA         15.9290   13.9370    3.6030 C.3       6 GLP5        0.0000 
     46 CA         13.6880   19.9035    3.1905 C.3       3 GLC5        0.0000 
     47 CA         15.7810   19.5570    2.8640 C.3       9 GLL5        0.0000 
     48 CA         14.2230   20.0965    0.7475 C.3       3 GLC5        0.0000 
     49 CA         15.9450   18.9790    1.5090 C.3       9 GLL5        0.0000 
     50 CA         12.5010   21.2140   -0.0140 C.3       6 GLP5        0.0000 
     51 N          19.6995   20.2770    4.0650 N.am      2 SEC2        0.0000 
     52 N          19.0760   19.9400    5.3730 N.am      8 SEL2        0.0000 
     53 N          20.3230   20.6140    2.7570 N.am      5 SEP2        0.0000 
     54 O          18.8515   21.5190    5.3070 O.2       1 ALC1        0.0000 
     55 O          19.0760   19.9400    5.3730 O.2       7 ALL1        0.0000 
     56 CA         17.3795   15.4755    2.5145 C.3       3 GLC5        0.0000 
     57 CA         17.7050   17.3800    2.3910 C.3       9 GLL5        0.0000 
     58 CA         17.0540   13.5710    2.6380 C.3       6 GLP5        0.0000 
     59 CA         20.1135   18.2730    4.1580 C.3       3 GLC5        0.0000 
     60 CA         18.1830   17.6340    5.0200 C.3       9 GLL5        0.0000 
     61 CA         22.0440   18.9120    3.2960 C.3       6 GLP5        0.0000 
     62 CA          8.0600   28.9150    0.4600 C.3       3 GLC5        0.0000 
     63 CA          8.4740   27.3950    1.4730 C.3       9 GLL5        0.0000 
     64 CA          7.6460   30.4350   -0.5530 C.3       6 GLP5        0.0000 
     65 CA         22.0075   21.7275    8.2780 C.3       3 GLC5        0.0000 
     66 CA         20.2910   21.5760    8.2200 C.3       9 GLL5        0.0000 
     67 CA         23.7240   21.8790    8.3360 C.3       6 GLP5        0.0000 
     68 CA         14.8930   20.4025   11.5700 C.3       3 GLC5        0.0000 
     69 CA         14.9050   21.0540   10.0000 C.3       9 GLL5        0.0000 
     70 CA         14.8810   19.7510   13.1400 C.3       6 GLP5        0.0000 
     71 CA         16.3170   22.1190   11.1185 C.3       3 GLC5        0.0000 
     72 CA         17.7290   23.1840   12.2370 C.3       6 GLP5        0.0000 
     73 CA         14.0035   19.5985    9.0285 C.3       3 GLC5        0.0000 
     74 CA         13.1020   18.1430    8.0570 C.3       6 GLP5        0.0000 
     75 CA         13.0600   20.7000   10.2345 C.3       3 GLC5        0.0000 
     76 CA         11.2150   20.3460   10.4690 C.3       6 GLP5        0.0000 
     77 CA          8.2740   20.5865    2.0570 C.3       3 GLC5        0.0000 
     78 CA          9.1550   22.1270    2.9620 C.3       9 GLL5        0.0000 
     79 CA          7.3930   19.0460    1.1520 C.3       6 GLP5        0.0000 
     80 CA         15.2850   24.2520    9.8370 C.3       3 GLC5        0.0000 
     81 CA         16.7470   22.4150    8.8490 C.3       9 GLL5        0.0000 
     82 CA         19.7385   23.5005    8.3893 C.3       3 GLC5        0.0000 
     83 CA         19.0930   21.4520    8.6270 C.3       9 GLL5        0.0000 
     84 CA         19.7850   25.4870    8.3550 C.3       6 GLP5        0.0000 
     85 CA         18.3125   22.0128   10.6043 C.3       3 GLC5        0.0000 
     86 CA         15.8585   20.1908   11.3998 C.3       3 GLC5        0.0000 
     87 CA         17.3120   20.0960    9.7750 C.3       9 GLL5        0.0000 
     88 CA         17.2825   21.9073   10.9482 C.3       3 GLC5        0.0000 
     89 CA         16.3600   21.1650    9.5440 C.3       9 GLL5        0.0000 
     90 CA         11.6543   22.5420    1.1050 C.3       3 GLC5        0.0000 
     91 CA         10.0890   24.1140    2.2380 C.3       9 GLL5        0.0000 
     92 CA          8.1762   24.0237    0.6162 C.3       3 GLC5        0.0000 
     93 CA          9.0338   24.6433    0.3187 C.3       3 GLC5        0.0000 
     94 CA          9.8530   25.4940    1.8580 C.3       9 GLL5        0.0000 
     95 CA         18.2097   24.2620    8.4677 C.3       3 GLC5        0.0000 
     96 CA         15.8270   23.6130    8.5330 C.3       9 GLL5        0.0000 
     97 CA         17.1818   23.1105   10.4087 C.3       3 GLC5        0.0000 
     98 CA         18.1370   22.5070    8.4070 C.3       9 GLL5        0.0000 
     99 CA         10.6453   27.7237    6.3625 C.3       3 GLC5        0.0000 
    100 CA          9.3830   26.6970    7.5010 C.3       9 GLL5        0.0000 
    101 CA         12.0800   29.1470    5.8340 C.3       6 GLP5        0.0000 
    102 CA         10.1785   25.3635    9.4623 C.3       3 GLC5        0.0000 
    103 CA         10.3970   24.0920   10.9820 C.3       6 GLP5        0.0000 
    104 CA         11.0110   27.5225   11.4523 C.3       3 GLC5        0.0000 
    105 CA         11.9710   27.1800   13.1530 C.3       6 GLP5        0.0000 
    106 CA          8.7960   26.9005   11.0872 C.3       3 GLC5        0.0000 
    107 CA          7.5410   25.9360   12.4230 C.3       6 GLP5        0.0000 
    108 CA         10.2240   25.9785   10.3667 C.3       3 GLC5        0.0000 
    109 CA          9.5050   28.3250    9.8980 C.3       9 GLL5        0.0000 
    110 CA         11.4330   28.3160    8.3061 C.3       3 GLC5        0.0000 
    111 CA         10.5370   26.5730    8.3840 C.3       9 GLL5        0.0000 
    112 CA         12.8300   28.9750    7.1660 C.3       6 GLP5        0.0000 
    113 CA          8.6530   30.2462    9.8815 C.3       3 GLC5        0.0000 
    114 CA          8.3780   32.1060   10.3070 C.3       6 GLP5        0.0000 
    115 CA         17.5740   20.7600    3.6450 C.3       3 GLC5        0.0000 
    116 CA         16.7060   19.5050    5.4160 C.3       9 GLL5        0.0000 
    117 CA         18.5020   22.2490    2.6030 C.3       6 GLP5        0.0000 
    118 CA         15.8215   17.4440    0.0057 C.3       3 GLC5        0.0000 
    119 CA         15.2190   16.4460   -1.3950 C.3       6 GLP5        0.0000 
    120 CA         15.4225   16.6110    1.5692 C.3       3 GLC5        0.0000 
    121 CA         16.9030   17.9050    1.3040 C.3       9 GLL5        0.0000 
    122 CA         14.4210   14.7800    1.7320 C.3       6 GLP5        0.0000 
    123 CA         16.9585   20.3762    1.5876 C.3       3 GLC5        0.0000 
    124 CA         17.5340   22.1660    1.4300 C.3       6 GLP5        0.0000 
    125 CA         18.6980   17.2253    0.6308 C.3       3 GLC5        0.0000 
    126 CA         20.0920   16.8080   -0.5860 C.3       6 GLP5        0.0000 
    127 CA         10.3466   26.9216    0.6009 C.3       3 GLC5        0.0000 
    128 CA          8.5440   26.0650    1.8590 C.3       9 GLL5        0.0000 
    129 CA         11.8570   27.2560   -0.4640 C.3       6 GLP5        0.0000 
    130 CA          8.3790   22.2180    4.5198 C.3       3 GLC5        0.0000 
    131 CA          8.9640   23.2690    2.6390 C.3       9 GLL5        0.0000 
    132 CA         10.4679   21.5796    3.1086 C.3       3 GLC5        0.0000 
    133 CA          9.1049   23.2081    0.7396 C.3       3 GLC5        0.0000 
@<TRIPOS>BOND
@<TRIPOS>SUBSTRUCTURE
     1 ALC1       14 GROUP        1 X    ALC  0     ROOT ALC X 1
     2 SEC2       17 GROUP        1 X    SEC  0     **** SEC X 2
     3 GLC5        1 GROUP        1 X    GLC  0     **** GLC X 6
     4 ALP1       16 GROUP        1 Y    ALP  0     ROOT ALP Y 8
     5 SEP2       19 GROUP        1 Y    SEP  0     **** SEP Y 9
     6 GLP5        3 GROUP        1 Y    GLP  0     **** GLP Y 13
     7 ALL1       15 GROUP        1 Z    ALL  0     ROOT ALL Z 15
     8 SEL2       18 GROUP        1 Z    SEL  0     **** SEL Z 16
     9 GLL5        2 GROUP        1 Z    GLL  0     **** GLL Z 20
@<TRIPOS>SET

