#    Name: 1w5y_BE6_1_ligand
#    Modification time : Tue Mar 25 08:40:48 2014

@<TRIPOS>MOLECULE
1w5y_BE6_1_ligand
   88    93     1     0     0
SMALL
NO_CHARGES


@<TRIPOS>ATOM
      1 C01        16.7470   22.4150    8.8490 C.ar      1 BE61100     0.0000 
      2 C02        18.1370   22.5070    8.4070 C.ar      1 BE61100     0.0000 
      3 C03        19.0930   21.4520    8.6270 C.ar      1 BE61100     0.0000 
      4 C04        18.6990   20.2310    9.3160 C.ar      1 BE61100     0.0000 
      5 C05        17.3120   20.0960    9.7750 C.ar      1 BE61100     0.0000 
      6 C06        16.3600   21.1650    9.5440 C.ar      1 BE61100     0.0000 
      7 C07        10.0890   24.1140    2.2380 C.ar      1 BE61100     0.0000 
      8 C08         8.9640   23.2690    2.6390 C.ar      1 BE61100     0.0000 
      9 C09         7.5900   23.8330    2.6510 C.ar      1 BE61100     0.0000 
     10 C10         7.3770   25.2480    2.2560 C.ar      1 BE61100     0.0000 
     11 C11         8.5440   26.0650    1.8590 C.ar      1 BE61100     0.0000 
     12 C12         9.8530   25.4940    1.8580 C.ar      1 BE61100     0.0000 
     13 C13        11.5260   23.6260    2.2100 C.3       1 BE61100     0.0000 
     14 O14        12.0850   23.2880    3.5080 O.3       1 BE61100     0.0000 
     15 C15        12.1100   24.3590    4.5860 C.3       1 BE61100     0.0000 
     16 C16        13.1530   24.0940    5.6590 C.3       1 BE61100     0.0000 
     17 C17        14.4610   23.7650    5.0460 C.3       1 BE61100     0.0000 
     18 C18        15.3490   23.0370    6.1270 C.3       1 BE61100     0.0000 
     19 C19        15.4050   21.5370    5.9420 C.2       1 BE61100     0.0000 
     20 O20        14.3900   20.8530    6.1490 O.2       1 BE61100     0.0000 
     21 N21        16.5810   20.9340    5.5800 N.am      1 BE61100     0.0000 
     22 O22        14.8490   23.3370    7.4870 O.3       1 BE61100     0.0000 
     23 C23        15.8270   23.6130    8.5330 C.3       1 BE61100     0.0000 
     24 O24        15.0610   25.0140    4.6130 O.3       1 BE61100     0.0000 
     25 O25        13.3700   25.2610    6.5330 O.3       1 BE61100     0.0000 
     26 C26        10.8810   24.4500    5.4300 C.2       1 BE61100     0.0000 
     27 O27        10.4930   23.4220    6.0300 O.2       1 BE61100     0.0000 
     28 N28        10.2390   25.6640    5.5050 N.am      1 BE61100     0.0000 
     29 C29         9.0380   25.9040    6.2810 C.3       1 BE61100     0.0000 
     30 C30         9.3830   26.6970    7.5010 C.ar      1 BE61100     0.0000 
     31 C31         8.3090   27.6230    7.8140 C.ar      1 BE61100     0.0000 
     32 C32        10.5370   26.5730    8.3840 C.ar      1 BE61100     0.0000 
     33 C33        10.5970   27.4050    9.6050 C.ar      1 BE61100     0.0000 
     34 C34         9.5050   28.3250    9.8980 C.ar      1 BE61100     0.0000 
     35 C35         7.9280   26.8150    5.6690 C.3       1 BE61100     0.0000 
     36 O36         8.5800   27.8700    4.9350 O.3       1 BE61100     0.0000 
     37 C37         8.3510   28.4480    9.0140 C.ar      1 BE61100     0.0000 
     38 C38         7.1650   27.3230    6.9250 C.3       1 BE61100     0.0000 
     39 C39        16.7060   19.5050    5.4160 C.3       1 BE61100     0.0000 
     40 C40        16.5860   19.0370    3.9580 C.ar      1 BE61100     0.0000 
     41 C41        17.5240   17.9720    3.7160 C.ar      1 BE61100     0.0000 
     42 C42        15.7810   19.5570    2.8640 C.ar      1 BE61100     0.0000 
     43 C43        15.9450   18.9790    1.5090 C.ar      1 BE61100     0.0000 
     44 C44        16.9030   17.9050    1.3040 C.ar      1 BE61100     0.0000 
     45 C45        18.1020   18.9560    5.7940 C.3       1 BE61100     0.0000 
     46 O46        19.0760   19.9400    5.3730 O.3       1 BE61100     0.0000 
     47 C47        17.7050   17.3800    2.3910 C.ar      1 BE61100     0.0000 
     48 C48        18.1830   17.6340    5.0200 C.3       1 BE61100     0.0000 
     49 F49         8.4740   27.3950    1.4730 F         1 BE61100     0.0000 
     50 F50        20.2910   21.5760    8.2200 F         1 BE61100     0.0000 
     51 F51        14.9050   21.0540   10.0000 F         1 BE61100     0.0000 
     52 F52         9.1550   22.1270    2.9620 F         1 BE61100     0.0000 
     53 H          18.4358   23.3613    7.9209 H         1 BE61100     0.0000 
     54 H          19.3545   19.4991    9.4749 H         1 BE61100     0.0000 
     55 H          17.0277   19.2554   10.2512 H         1 BE61100     0.0000 
     56 H           6.8197   23.2674    2.9213 H         1 BE61100     0.0000 
     57 H           6.4660   25.6368    2.2591 H         1 BE61100     0.0000 
     58 H          10.6568   26.0692    1.5818 H         1 BE61100     0.0000 
     59 H          12.1439   24.4126    1.7142 H         1 BE61100     0.0000 
     60 H          11.5741   22.7454    1.5254 H         1 BE61100     0.0000 
     61 H          12.3167   25.3277    4.1742 H         1 BE61100     0.0000 
     62 H          12.8314   23.2514    6.2597 H         1 BE61100     0.0000 
     63 H          14.3190   23.0928    4.2323 H         1 BE61100     0.0000 
     64 H          16.3608   23.4374    6.0293 H         1 BE61100     0.0000 
     65 H          17.4373   21.5032    5.4091 H         1 BE61100     0.0000 
     66 H          16.4754   24.4648    8.2509 H         1 BE61100     0.0000 
     67 H          15.3241   23.9036    9.4754 H         1 BE61100     0.0000 
     68 H          10.6200   26.4895    4.9766 H         1 BE61100     0.0000 
     69 H           8.5577   25.0053    6.6201 H         1 BE61100     0.0000 
     70 H          11.2768   25.9414    8.1763 H         1 BE61100     0.0000 
     71 H          11.3818   27.3305   10.2168 H         1 BE61100     0.0000 
     72 H           9.5481   28.8955   10.7394 H         1 BE61100     0.0000 
     73 H           7.2963   26.2087    5.1021 H         1 BE61100     0.0000 
     74 H           7.6131   29.0786    9.2258 H         1 BE61100     0.0000 
     75 H           6.6377   28.1918    6.6662 H         1 BE61100     0.0000 
     76 H           6.5792   26.5379    7.2996 H         1 BE61100     0.0000 
     77 H          15.9895   18.9407    5.9860 H         1 BE61100     0.0000 
     78 H          15.1246   20.2918    3.0107 H         1 BE61100     0.0000 
     79 H          15.3975   19.3322    0.7535 H         1 BE61100     0.0000 
     80 H          17.0124   17.5112    0.3684 H         1 BE61100     0.0000 
     81 H          18.1012   18.7663    6.8242 H         1 BE61100     0.0000 
     82 H          18.3540   16.6468    2.2479 H         1 BE61100     0.0000 
     83 H          19.1997   17.3784    4.8702 H         1 BE61100     0.0000 
     84 H          17.6315   16.8921    5.5367 H         1 BE61100     0.0000 
     85 H          15.7223   25.2444    5.3268 H         1 BE61100     0.0000 
     86 H          14.3385   25.4865    6.4277 H         1 BE61100     0.0000 
     87 H           7.8507   28.5147    4.7059 H         1 BE61100     0.0000 
     88 H          18.6826   20.8216    5.6340 H         1 BE61100     0.0000 
@<TRIPOS>BOND
     1    2    1 ar   
     2    6    1 ar   
     3   23    1 1    
     4    3    2 ar   
     5   53    2 1    
     6    4    3 ar   
     7   50    3 1    
     8    5    4 ar   
     9   54    4 1    
    10    6    5 ar   
    11   55    5 1    
    12   51    6 1    
    13    8    7 ar   
    14   12    7 ar   
    15   13    7 1    
    16    9    8 ar   
    17   52    8 1    
    18   10    9 ar   
    19   56    9 1    
    20   11   10 ar   
    21   57   10 1    
    22   12   11 ar   
    23   49   11 1    
    24   58   12 1    
    25   14   13 1    
    26   59   13 1    
    27   60   13 1    
    28   15   14 1    
    29   16   15 1    
    30   26   15 1    
    31   61   15 1    
    32   17   16 1    
    33   25   16 1    
    34   62   16 1    
    35   18   17 1    
    36   24   17 1    
    37   63   17 1    
    38   19   18 1    
    39   22   18 1    
    40   64   18 1    
    41   20   19 2    
    42   21   19 am   
    43   39   21 1    
    44   65   21 1    
    45   23   22 1    
    46   66   23 1    
    47   67   23 1    
    48   85   24 1    
    49   86   25 1    
    50   27   26 2    
    51   28   26 am   
    52   29   28 1    
    53   68   28 1    
    54   30   29 1    
    55   35   29 1    
    56   69   29 1    
    57   31   30 ar   
    58   32   30 ar   
    59   37   31 ar   
    60   38   31 1    
    61   33   32 ar   
    62   70   32 1    
    63   34   33 ar   
    64   71   33 1    
    65   37   34 ar   
    66   72   34 1    
    67   36   35 1    
    68   38   35 1    
    69   73   35 1    
    70   87   36 1    
    71   74   37 1    
    72   75   38 1    
    73   76   38 1    
    74   40   39 1    
    75   45   39 1    
    76   77   39 1    
    77   41   40 ar   
    78   42   40 ar   
    79   47   41 ar   
    80   48   41 1    
    81   43   42 ar   
    82   78   42 1    
    83   44   43 ar   
    84   79   43 1    
    85   47   44 ar   
    86   80   44 1    
    87   46   45 1    
    88   48   45 1    
    89   81   45 1    
    90   88   46 1    
    91   82   47 1    
    92   83   48 1    
    93   84   48 1    
@<TRIPOS>SUBSTRUCTURE
     1 BE61100     1 GROUP   
@<TRIPOS>SET

