#    Name: 3sru_Q26_1_INTS_M
#    Modification time : Mon Mar 24 18:08:23 2014

@<TRIPOS>MOLECULE
3sru_Q26_1_INTS_M
   75     0     9     0     0
SMALL
NO_CHARGES


@<TRIPOS>ATOM
      1 CA         -4.7550   27.9480   -1.9795 C.3       3 GLC5        0.0000 
      2 CA         -3.9820   28.6600   -3.8730 C.3       9 GLL5        0.0000 
      3 CA         -5.5280   27.2360   -0.0860 C.3       6 GLP5        0.0000 
      4 CA         -3.7555   26.6640   -3.8890 C.3       3 GLC5        0.0000 
      5 CA         -3.5290   24.6680   -3.9050 C.3       6 GLP5        0.0000 
      6 CA         -5.8400   27.5350   -2.2575 C.3       3 GLC5        0.0000 
      7 CA         -6.1520   27.8340   -4.4290 C.3       9 GLL5        0.0000 
      8 CA         -4.8405   26.2510   -4.1670 C.3       3 GLC5        0.0000 
      9 CA         -6.3145   26.6050   -6.0385 C.3       3 GLC5        0.0000 
     10 CA         -6.4770   25.3760   -7.6480 C.3       6 GLP5        0.0000 
     11 CA         -7.2620   28.8260   -3.4910 C.3       3 GLC5        0.0000 
     12 CA         -8.3720   29.8180   -2.5530 C.3       6 GLP5        0.0000 
     13 N          -7.6655   28.7475   -5.8075 N.am      2 SEC2        0.0000 
     14 N          -6.4720   28.9270   -5.1770 N.am      8 SEL2        0.0000 
     15 N          -8.8590   28.5680   -6.4380 N.am      5 SEP2        0.0000 
     16 CA         -7.7835   31.8805   -6.3595 C.3       3 GLC5        0.0000 
     17 CA         -5.9470   31.0990   -6.0220 C.3       9 GLL5        0.0000 
     18 CA         -9.6200   32.6620   -6.6970 C.3       6 GLP5        0.0000 
     19 CA         -2.8680   34.0665   -5.0110 C.3       3 GLC5        0.0000 
     20 CA         -3.7470   32.0740   -5.5140 C.3       9 GLL5        0.0000 
     21 CA         -1.9890   36.0590   -4.5080 C.3       6 GLP5        0.0000 
     22 O          -2.5610   27.3270   -2.5775 O.2       1 ALC1        0.0000 
     23 O          -2.7980   28.4860   -3.2480 O.2       7 ALL1        0.0000 
     24 O          -2.3240   26.1680   -1.9070 O.2       4 ALP1        0.0000 
     25 O          -1.5785   29.1800   -3.1965 O.2       1 ALC1        0.0000 
     26 O          -0.3590   29.8740   -3.1450 O.2       4 ALP1        0.0000 
     27 O          -8.3075   26.7675   -4.9405 O.2       1 ALC1        0.0000 
     28 O          -7.0850   26.8520   -4.3450 O.2       7 ALL1        0.0000 
     29 O          -9.5300   26.6830   -5.5360 O.2       4 ALP1        0.0000 
     30 O          -7.9720   27.7100   -5.3915 O.2       1 ALC1        0.0000 
     31 O          -8.8590   28.5680   -6.4380 O.2       4 ALP1        0.0000 
     32 O          -7.4995   25.6145   -3.3850 O.2       1 ALC1        0.0000 
     33 O          -7.9140   24.3770   -2.4250 O.2       4 ALP1        0.0000 
     34 CA         -3.6735   32.5215   -9.9005 C.3       3 GLC5        0.0000 
     35 CA         -2.4880   33.9140   -9.1640 C.3       9 GLL5        0.0000 
     36 CA         -4.8590   31.1290  -10.6370 C.3       6 GLP5        0.0000 
     37 CA         -2.4075   35.3205   -7.4915 C.3       3 GLC5        0.0000 
     38 CA         -2.3270   36.7270   -5.8190 C.3       6 GLP5        0.0000 
     39 CA         -2.5705   31.6515   -9.4500 C.3       3 GLC5        0.0000 
     40 CA         -1.1880   33.1930   -8.9110 C.3       9 GLL5        0.0000 
     41 CA         -3.9530   30.1100   -9.9890 C.3       6 GLP5        0.0000 
     42 CA         -0.0980   33.3030   -6.9565 C.3       3 GLC5        0.0000 
     43 CA          0.9920   33.4130   -5.0020 C.3       6 GLP5        0.0000 
     44 CA          0.0215   32.1900   -9.6555 C.3       3 GLC5        0.0000 
     45 CA          1.2310   31.1870  -10.4000 C.3       6 GLP5        0.0000 
     46 N          -9.2175   35.0830    0.1765 N.am      2 SEC2        0.0000 
     47 N         -10.0820   35.1100   -0.9180 N.am      8 SEL2        0.0000 
     48 N          -8.3530   35.0560    1.2710 N.am      5 SEP2        0.0000 
     49 N          -9.8055   36.0605    0.3170 N.am      2 SEC2        0.0000 
     50 N          -9.5290   37.0110    1.5520 N.am      5 SEP2        0.0000 
     51 CA        -11.8995   34.1715   -4.2385 C.3       3 GLC5        0.0000 
     52 CA        -11.8200   35.3920   -2.7900 C.3       9 GLL5        0.0000 
     53 CA        -11.9790   32.9510   -5.6870 C.3       6 GLP5        0.0000 
     54 CA        -12.4635   34.5295   -1.1535 C.3       3 GLC5        0.0000 
     55 CA        -13.1070   33.6670    0.4830 C.3       6 GLP5        0.0000 
     56 CA         -7.0735   30.1747   -4.1042 C.3       3 GLC5        0.0000 
     57 CA         -5.8427   31.3833   -8.0020 C.3       3 GLC5        0.0000 
     58 CA         -6.2090   31.1550   -9.9240 C.3       6 GLP5        0.0000 
     59 CA         -5.5633   32.4283   -8.6328 C.3       3 GLC5        0.0000 
     60 CA         -5.3190   33.4060   -6.8070 C.3       9 GLL5        0.0000 
     61 CA         -7.7312   33.2203   -6.6100 C.3       3 GLC5        0.0000 
     62 CA         -3.6463   35.7642   -6.9000 C.3       3 GLC5        0.0000 
     63 CA         -5.9580   35.9470   -7.8020 C.3       9 GLL5        0.0000 
     64 CA         -0.6375   34.9917   -9.3938 C.3       3 GLC5        0.0000 
     65 CA          0.5630   36.4300   -9.7500 C.3       6 GLP5        0.0000 
     66 CA         -7.0665   37.2168   -4.0300 C.3       3 GLC5        0.0000 
     67 CA         -7.8510   36.1860   -6.1520 C.3       9 GLL5        0.0000 
     68 CA         -6.1380   38.3280   -2.5910 C.3       6 GLP5        0.0000 
     69 CA        -10.3415   36.0174   -6.6359 C.3       3 GLC5        0.0000 
     70 CA         -8.5870   37.1190   -6.8990 C.3       9 GLL5        0.0000 
     71 CA        -11.1750   34.4580   -7.5080 C.3       6 GLP5        0.0000 
     72 CA         -7.8390   37.7700   -3.5720 C.3       3 GLC5        0.0000 
     73 CA         -9.9100   37.6690   -4.9330 C.3       9 GLL5        0.0000 
     74 CA         -8.6659   34.2860   -6.1584 C.3       3 GLC5        0.0000 
     75 CA         -8.1390   36.0250   -4.7860 C.3       9 GLL5        0.0000 
@<TRIPOS>BOND
@<TRIPOS>SUBSTRUCTURE
     1 ALC1       22 GROUP        1 X    ALC  0     ROOT ALC X 1
     2 SEC2       13 GROUP        1 X    SEC  0     **** SEC X 2
     3 GLC5        1 GROUP        1 X    GLC  0     **** GLC X 6
     4 ALP1       24 GROUP        1 Y    ALP  0     ROOT ALP Y 8
     5 SEP2       15 GROUP        1 Y    SEP  0     **** SEP Y 9
     6 GLP5        3 GROUP        1 Y    GLP  0     **** GLP Y 13
     7 ALL1       23 GROUP        1 Z    ALL  0     ROOT ALL Z 15
     8 SEL2       14 GROUP        1 Z    SEL  0     **** SEL Z 16
     9 GLL5        2 GROUP        1 Z    GLL  0     **** GLL Z 20
@<TRIPOS>SET

