#    Name: 3sru_Q26_1_ligand
#    Modification time : Mon Mar 24 18:08:23 2014

@<TRIPOS>MOLECULE
3sru_Q26_1_ligand
   55    58     1     0     0
SMALL
NO_CHARGES


@<TRIPOS>ATOM
      1 C1         -3.9820   28.6600   -3.8730 C.ar      1 Q26169      0.0000 
      2 N2         -4.9520   27.7100   -3.8020 N.ar      1 Q26169      0.0000 
      3 C3         -6.1520   27.8340   -4.4290 C.ar      1 Q26169      0.0000 
      4 N4         -6.4720   28.9270   -5.1770 N.ar      1 Q26169      0.0000 
      5 C5         -5.6030   29.9640   -5.2890 C.ar      1 Q26169      0.0000 
      6 C6         -4.2850   29.8950   -4.6490 C.ar      1 Q26169      0.0000 
      7 C7         -5.9470   31.0990   -6.0220 C.ar      1 Q26169      0.0000 
      8 C8         -5.0060   32.1240   -6.1380 C.ar      1 Q26169      0.0000 
      9 C9         -3.7470   32.0740   -5.5140 C.ar      1 Q26169      0.0000 
     10 C10        -3.3650   30.9420   -4.7700 C.ar      1 Q26169      0.0000 
     11 N11        -2.7980   28.4860   -3.2480 N.pl3     1 Q26169      0.0000 
     12 N12        -7.0850   26.8520   -4.3450 N.pl3     1 Q26169      0.0000 
     13 C13        -5.3190   33.4060   -6.8070 C.ar      1 Q26169      0.0000 
     14 C14        -6.3660   34.1510   -6.2390 C.ar      1 Q26169      0.0000 
     15 C15        -6.7180   35.4040   -6.7550 C.ar      1 Q26169      0.0000 
     16 C16        -5.9580   35.9470   -7.8020 C.ar      1 Q26169      0.0000 
     17 C17        -4.8720   35.2650   -8.3700 C.ar      1 Q26169      0.0000 
     18 C18        -4.5160   33.9970   -7.8760 C.ar      1 Q26169      0.0000 
     19 O19        -3.4740   33.2570   -8.3480 O.3       1 Q26169      0.0000 
     20 C20        -2.4880   33.9140   -9.1640 C.3       1 Q26169      0.0000 
     21 C21        -1.1880   33.1930   -8.9110 C.3       1 Q26169      0.0000 
     22 C22        -7.8510   36.1860   -6.1520 C.ar      1 Q26169      0.0000 
     23 C23        -8.5870   37.1190   -6.8990 C.ar      1 Q26169      0.0000 
     24 C24        -9.6250   37.8500   -6.2900 C.ar      1 Q26169      0.0000 
     25 C25        -9.9100   37.6690   -4.9330 C.ar      1 Q26169      0.0000 
     26 C26        -9.1700   36.7550   -4.1730 C.ar      1 Q26169      0.0000 
     27 C27        -8.1390   36.0250   -4.7860 C.ar      1 Q26169      0.0000 
     28 N28        -9.4430   36.5750   -2.8460 N.pl3     1 Q26169      0.0000 
     29 S29       -10.2230   35.2610   -2.3420 S.o2      1 Q26169      0.0000 
     30 O30       -10.0820   35.1100   -0.9180 O.2       1 Q26169      0.0000 
     31 O31        -9.6440   34.0920   -3.0080 O.2       1 Q26169      0.0000 
     32 C32       -11.8200   35.3920   -2.7900 C.3       1 Q26169      0.0000 
     33 H          -6.8589   31.1791   -6.4609 H         1 Q26169      0.0000 
     34 H          -3.1024   32.8672   -5.6012 H         1 Q26169      0.0000 
     35 H          -2.4536   30.8909   -4.3381 H         1 Q26169      0.0000 
     36 H          -2.4629   27.5453   -3.1942 H         1 Q26169      0.0000 
     37 H          -2.3613   29.3133   -2.8945 H         1 Q26169      0.0000 
     38 H          -7.7056   26.7668   -5.1244 H         1 Q26169      0.0000 
     39 H          -7.0694   26.3004   -3.5111 H         1 Q26169      0.0000 
     40 H          -6.8802   33.7684   -5.4322 H         1 Q26169      0.0000 
     41 H          -6.2087   36.8873   -8.1693 H         1 Q26169      0.0000 
     42 H          -4.3434   35.6836   -9.1352 H         1 Q26169      0.0000 
     43 H          -2.3693   34.9530   -8.8859 H         1 Q26169      0.0000 
     44 H          -2.7282   33.8390  -10.2164 H         1 Q26169      0.0000 
     45 H          -8.3703   37.2697   -7.8883 H         1 Q26169      0.0000 
     46 H         -10.1709   38.5158   -6.8468 H         1 Q26169      0.0000 
     47 H         -10.6646   38.2079   -4.4915 H         1 Q26169      0.0000 
     48 H          -7.5846   35.3607   -4.2258 H         1 Q26169      0.0000 
     49 H          -9.1996   37.2046   -2.1004 H         1 Q26169      0.0000 
     50 H          -0.4365   33.5851   -9.4415 H         1 Q26169      0.0000 
     51 H          -0.9208   33.2359   -7.9483 H         1 Q26169      0.0000 
     52 H          -1.2462   32.2253   -9.1562 H         1 Q26169      0.0000 
     53 H         -11.9222   35.4716   -3.7816 H         1 Q26169      0.0000 
     54 H         -12.3526   34.5957   -2.5034 H         1 Q26169      0.0000 
     55 H         -12.2545   36.1965   -2.3850 H         1 Q26169      0.0000 
@<TRIPOS>BOND
     1    2    1 ar   
     2    6    1 ar   
     3   11    1 1    
     4    3    2 ar   
     5    4    3 ar   
     6   12    3 1    
     7    5    4 ar   
     8    6    5 ar   
     9    7    5 ar   
    10   10    6 ar   
    11    8    7 ar   
    12   33    7 1    
    13    9    8 ar   
    14   13    8 1    
    15   10    9 ar   
    16   34    9 1    
    17   35   10 1    
    18   36   11 1    
    19   37   11 1    
    20   38   12 1    
    21   39   12 1    
    22   14   13 ar   
    23   18   13 ar   
    24   15   14 ar   
    25   40   14 1    
    26   16   15 ar   
    27   22   15 1    
    28   17   16 ar   
    29   41   16 1    
    30   18   17 ar   
    31   42   17 1    
    32   19   18 1    
    33   20   19 1    
    34   21   20 1    
    35   43   20 1    
    36   44   20 1    
    37   50   21 1    
    38   51   21 1    
    39   52   21 1    
    40   23   22 ar   
    41   27   22 ar   
    42   24   23 ar   
    43   45   23 1    
    44   25   24 ar   
    45   46   24 1    
    46   26   25 ar   
    47   47   25 1    
    48   27   26 ar   
    49   28   26 1    
    50   48   27 1    
    51   29   28 1    
    52   49   28 1    
    53   30   29 2    
    54   31   29 2    
    55   32   29 1    
    56   53   32 1    
    57   54   32 1    
    58   55   32 1    
@<TRIPOS>SUBSTRUCTURE
     1 Q26169      1 GROUP   
@<TRIPOS>SET

