#    Name: 2xbk_XBK_1_INTS_M
#    Modification time : Tue Mar 25 05:48:18 2014

@<TRIPOS>MOLECULE
2xbk_XBK_1_INTS_M
   87     0     9     0     0
SMALL
NO_CHARGES


@<TRIPOS>ATOM
      1 CA         31.1110    5.6345    4.9660 C.3       3 GLC5        0.0000 
      2 CA         32.3180    4.4330    3.7360 C.3       9 GLL5        0.0000 
      3 CA         29.9040    6.8360    6.1960 C.3       6 GLP5        0.0000 
      4 CA         31.6360    2.4405    1.6125 C.3       3 GLC5        0.0000 
      5 CA         31.6460    3.3250    3.5930 C.3       9 GLL5        0.0000 
      6 CA         31.6260    1.5560   -0.3680 C.3       6 GLP5        0.0000 
      7 CA         31.2240    0.7385    2.4315 C.3       3 GLC5        0.0000 
      8 CA         30.8250    1.2870    4.5400 C.3       9 GLL5        0.0000 
      9 CA         31.6230    0.1900    0.3230 C.3       6 GLP5        0.0000 
     10 CA         26.5650   -0.6130    8.9310 C.3       3 GLC5        0.0000 
     11 CA         27.3730   -2.4490    8.2630 C.3       9 GLL5        0.0000 
     12 CA         25.7570    1.2230    9.5990 C.3       6 GLP5        0.0000 
     13 CA         27.4585   -3.1700   10.3705 C.3       3 GLC5        0.0000 
     14 CA         27.5440   -3.8910   12.4780 C.3       6 GLP5        0.0000 
     15 CA         30.7650    9.9975    2.4175 C.3       3 GLC5        0.0000 
     16 CA         32.2250    8.8670    2.1110 C.3       9 GLL5        0.0000 
     17 CA         29.3050   11.1280    2.7240 C.3       6 GLP5        0.0000 
     18 CA         29.7715    9.1855    2.0410 C.3       3 GLC5        0.0000 
     19 CA         30.2380    7.2430    1.3580 C.3       9 GLL5        0.0000 
     20 CA         28.9230    3.6725   -0.6480 C.3       3 GLC5        0.0000 
     21 CA         29.3560    4.7320    1.1900 C.3       9 GLL5        0.0000 
     22 CA         28.4900    2.6130   -2.4860 C.3       6 GLP5        0.0000 
     23 CA         30.7435    4.7835   -0.5625 C.3       3 GLC5        0.0000 
     24 CA         32.1310    4.8350   -2.3150 C.3       6 GLP5        0.0000 
     25 CA         28.4875    2.5090   -0.4315 C.3       3 GLC5        0.0000 
     26 CA         28.4850    2.4050    1.6230 C.3       9 GLL5        0.0000 
     27 CA         26.7625    2.4450    0.2905 C.3       3 GLC5        0.0000 
     28 CA         25.0400    2.4850   -1.0420 C.3       6 GLP5        0.0000 
     29 CA         26.0420    1.3690    0.9720 C.3       3 GLC5        0.0000 
     30 CA         27.6710    1.5210    2.4400 C.3       9 GLL5        0.0000 
     31 CA         24.4130    1.2170   -0.4960 C.3       6 GLP5        0.0000 
     32 CA         29.6315    0.2170    1.2360 C.3       3 GLC5        0.0000 
     33 CA         27.6400    0.2440    2.1490 C.3       9 GLL5        0.0000 
     34 CA         27.6010   -5.3640    4.2175 C.3       3 GLC5        0.0000 
     35 CA         26.8610   -3.7190    4.2030 C.3       9 GLL5        0.0000 
     36 CA         28.3410   -7.0090    4.2320 C.3       6 GLP5        0.0000 
     37 CA         27.6505   -5.5495    6.1330 C.3       3 GLC5        0.0000 
     38 CA         26.4160   -4.0990    6.6030 C.3       9 GLL5        0.0000 
     39 CA         28.8850   -7.0000    5.6630 C.3       6 GLP5        0.0000 
     40 N          26.6650   -6.8455    6.2900 N.am      2 SEC2        0.0000 
     41 N          25.5580   -6.3470    6.0570 N.am      8 SEL2        0.0000 
     42 N          27.7720   -7.3440    6.5230 N.am      5 SEP2        0.0000 
     43 CA         24.7275   -2.9530    9.0935 C.3       3 GLC5        0.0000 
     44 CA         26.1940   -3.3760    7.9490 C.3       9 GLL5        0.0000 
     45 CA         23.2610   -2.5300   10.2380 C.3       6 GLP5        0.0000 
     46 O          24.8685   -4.1380    9.5780 O.2       1 ALC1        0.0000 
     47 O          26.0950   -4.3420    9.0140 O.2       7 ALL1        0.0000 
     48 O          23.6420   -3.9340   10.1420 O.2       4 ALP1        0.0000 
     49 N          23.2820   -2.0000    1.4325 N.am      2 SEC2        0.0000 
     50 N          23.7090   -3.4870    0.9400 N.am      8 SEL2        0.0000 
     51 N          22.8550   -0.5130    1.9250 N.am      5 SEP2        0.0000 
     52 CA         23.2280   -4.3280   -3.1760 C.3       3 GLC5        0.0000 
     53 CA         22.6440   -3.9590   -1.1100 C.3       9 GLL5        0.0000 
     54 CA         23.8120   -4.6970   -5.2420 C.3       6 GLP5        0.0000 
     55 CA         21.7105   -3.0850   -2.3850 C.3       3 GLC5        0.0000 
     56 CA         20.7770   -2.2110   -3.6600 C.3       6 GLP5        0.0000 
     57 CA         22.3745   -1.9220   -0.7160 C.3       3 GLC5        0.0000 
     58 CA         22.1050    0.1150   -0.3220 C.3       6 GLP5        0.0000 
     59 O          19.8785   -5.4025    3.2480 O.2       1 ALC1        0.0000 
     60 O          21.2830   -6.1460    3.0600 O.2       7 ALL1        0.0000 
     61 O          18.4740   -4.6590    3.4360 O.2       4 ALP1        0.0000 
     62 CA         31.5130   -0.9243    4.4170 C.3       3 GLC5        0.0000 
     63 CA         30.6670    0.3240    5.6700 C.3       9 GLL5        0.0000 
     64 CA         32.2800   -2.6540    3.7290 C.3       6 GLP5        0.0000 
     65 CA         27.7624    0.4602    8.0854 C.3       3 GLC5        0.0000 
     66 CA         29.2090    0.0200    5.8950 C.3       9 GLL5        0.0000 
     67 CA         27.1310    1.8870    9.3600 C.3       6 GLP5        0.0000 
     68 CA         31.9393    7.3465   -0.3270 C.3       3 GLC5        0.0000 
     69 CA         32.8810    7.3520   -2.2130 C.3       6 GLP5        0.0000 
     70 CA         28.1932    6.5509    0.5230 C.3       3 GLC5        0.0000 
     71 CA         26.7680    7.4380   -0.3340 C.3       6 GLP5        0.0000 
     72 CA         27.3017    5.1050    2.1458 C.3       3 GLC5        0.0000 
     73 CA         28.5750    3.7060    1.9090 C.3       9 GLL5        0.0000 
     74 CA         25.5960    5.6870    2.5940 C.3       6 GLP5        0.0000 
     75 CA         26.5160    3.2190    2.1502 C.3       3 GLC5        0.0000 
     76 CA         24.9540    4.4750    2.2690 C.3       6 GLP5        0.0000 
     77 CA         30.1756    2.4340    0.6091 C.3       3 GLC5        0.0000 
     78 CA         25.4354    0.5259    3.1866 C.3       3 GLC5        0.0000 
     79 CA         26.8520   -0.6510    2.9520 C.3       9 GLL5        0.0000 
     80 CA         23.6170    0.9360    3.7500 C.3       6 GLP5        0.0000 
     81 CA         26.1415   -0.5144    0.7716 C.3       3 GLC5        0.0000 
     82 CA         25.2140   -0.0070   -0.9560 C.3       6 GLP5        0.0000 
     83 CA         24.7195   -1.4220    3.0445 C.3       3 GLC5        0.0000 
     84 CA         26.8920   -1.8400    2.4480 C.3       9 GLL5        0.0000 
     85 CA         22.9020   -0.3930    3.3740 C.3       6 GLP5        0.0000 
     86 CA         23.2540   -2.3205    3.0245 C.3       3 GLC5        0.0000 
     87 CA         24.1360   -3.8910    2.2530 C.3       9 GLL5        0.0000 
@<TRIPOS>BOND
@<TRIPOS>SUBSTRUCTURE
     1 ALC1       46 GROUP        1 X    ALC  0     ROOT ALC X 1
     2 SEC2       40 GROUP        1 X    SEC  0     **** SEC X 2
     3 GLC5        1 GROUP        1 X    GLC  0     **** GLC X 6
     4 ALP1       48 GROUP        1 Y    ALP  0     ROOT ALP Y 8
     5 SEP2       42 GROUP        1 Y    SEP  0     **** SEP Y 9
     6 GLP5        3 GROUP        1 Y    GLP  0     **** GLP Y 13
     7 ALL1       47 GROUP        1 Z    ALL  0     ROOT ALL Z 15
     8 SEL2       41 GROUP        1 Z    SEL  0     **** SEL Z 16
     9 GLL5        2 GROUP        1 Z    GLL  0     **** GLL Z 20
@<TRIPOS>SET

