#    Name: 2xbk_XBK_1_ligand
#    Modification time : Tue Mar 25 05:48:18 2014

@<TRIPOS>MOLECULE
2xbk_XBK_1_ligand
   93    95     1     0     0
SMALL
NO_CHARGES


@<TRIPOS>ATOM
      1 O9         32.6470    5.0620    1.4430 O.2       1 XBK1399     0.0000 
      2 C24        32.4170    5.3480    2.5950 C.2       1 XBK1399     0.0000 
      3 C25        32.3180    4.4330    3.7360 C.2       1 XBK1399     0.0000 
      4 C26        31.6460    3.3250    3.5930 C.2       1 XBK1399     0.0000 
      5 C27        31.4900    2.4140    4.7380 C.2       1 XBK1399     0.0000 
      6 C28        30.8250    1.2870    4.5400 C.2       1 XBK1399     0.0000 
      7 C29        30.6670    0.3240    5.6700 C.3       1 XBK1399     0.0000 
      8 C30        29.2090    0.0200    5.8950 C.3       1 XBK1399     0.0000 
      9 C31        29.0520   -0.8540    7.1660 C.3       1 XBK1399     0.0000 
     10 C32        27.6570   -1.5160    7.0910 C.3       1 XBK1399     0.0000 
     11 O12        27.6480   -2.1800    5.8550 O.3       1 XBK1399     0.0000 
     12 C33        27.3730   -2.4490    8.2630 C.3       1 XBK1399     0.0000 
     13 O11        26.5820   -0.5550    7.0120 O.3       1 XBK1399     0.0000 
     14 O10        28.5400    1.2950    5.9710 O.3       1 XBK1399     0.0000 
     15 O8         32.1800    6.6820    2.8960 O.3       1 XBK1399     0.0000 
     16 C22        31.7570    7.4390    1.7600 C.3       1 XBK1399     0.0000 
     17 C23        32.2250    8.8670    2.1110 C.3       1 XBK1399     0.0000 
     18 C21        30.2380    7.2430    1.3580 C.3       1 XBK1399     0.0000 
     19 C20        29.5240    5.9480    1.7820 C.2       1 XBK1399     0.0000 
     20 C19        29.3560    4.7320    1.1900 C.2       1 XBK1399     0.0000 
     21 C18        28.5750    3.7060    1.9090 C.2       1 XBK1399     0.0000 
     22 C17        28.4850    2.4050    1.6230 C.2       1 XBK1399     0.0000 
     23 C16        27.6710    1.5210    2.4400 C.2       1 XBK1399     0.0000 
     24 C15        27.6400    0.2440    2.1490 C.2       1 XBK1399     0.0000 
     25 C14        26.8520   -0.6510    2.9520 C.2       1 XBK1399     0.0000 
     26 C13        26.8920   -1.8400    2.4480 C.2       1 XBK1399     0.0000 
     27 C6         26.1820   -3.0620    2.9820 C.3       1 XBK1399     0.0000 
     28 C5         26.8610   -3.7190    4.2030 C.3       1 XBK1399     0.0000 
     29 C4         26.4980   -3.0370    5.5270 C.3       1 XBK1399     0.0000 
     30 C2         26.4160   -4.0990    6.6030 C.3       1 XBK1399     0.0000 
     31 C3         25.3210   -5.0770    6.2850 C.2       1 XBK1399     0.0000 
     32 O2         24.1660   -4.7210    6.2200 O.co2     1 XBK1399     0.0000 
     33 O3         25.5580   -6.3470    6.0570 O.co2     1 XBK1399     0.0000 
     34 C1         26.1940   -3.3760    7.9490 C.3       1 XBK1399     0.0000 
     35 O1         26.0950   -4.3420    9.0140 O.3       1 XBK1399     0.0000 
     36 O4         24.7570   -2.8160    3.0000 O.3       1 XBK1399     0.0000 
     37 C7         24.1360   -3.8910    2.2530 C.3       1 XBK1399     0.0000 
     38 O7         23.7090   -3.4870    0.9400 O.3       1 XBK1399     0.0000 
     39 C11        23.1540   -4.5820    0.1730 C.3       1 XBK1399     0.0000 
     40 C12        22.6440   -3.9590   -1.1100 C.3       1 XBK1399     0.0000 
     41 C10        22.0250   -5.2880    0.9160 C.3       1 XBK1399     0.0000 
     42 O6         21.5110   -6.3730    0.1510 O.3       1 XBK1399     0.0000 
     43 C9         22.4440   -5.7700    2.3110 C.3       1 XBK1399     0.0000 
     44 N          21.2830   -6.1460    3.0600 N.4       1 XBK1399     0.0000 
     45 C8         23.0760   -4.6050    3.0970 C.3       1 XBK1399     0.0000 
     46 O5         22.0760   -3.6910    3.5520 O.3       1 XBK1399     0.0000 
     47 H          32.7926    4.7256    4.5945 H         1 XBK1399     0.0000 
     48 H          31.1988    3.0213    2.7164 H         1 XBK1399     0.0000 
     49 H          31.9018    2.7019    5.6161 H         1 XBK1399     0.0000 
     50 H          30.3975    1.0093    3.6563 H         1 XBK1399     0.0000 
     51 H          31.0915    0.7502    6.5819 H         1 XBK1399     0.0000 
     52 H          31.1981   -0.6034    5.4432 H         1 XBK1399     0.0000 
     53 H          28.8585   -0.5496    5.0454 H         1 XBK1399     0.0000 
     54 H          29.1050   -0.2308    8.0323 H         1 XBK1399     0.0000 
     55 H          29.8062   -1.6108    7.1700 H         1 XBK1399     0.0000 
     56 H          27.1364   -1.8584    9.1465 H         1 XBK1399     0.0000 
     57 H          28.2559   -3.0523    8.4673 H         1 XBK1399     0.0000 
     58 H          32.3762    7.1277    0.8891 H         1 XBK1399     0.0000 
     59 H          30.1736    7.3461    0.2476 H         1 XBK1399     0.0000 
     60 H          29.6732    8.1179    1.7622 H         1 XBK1399     0.0000 
     61 H          29.0681    6.0883    2.7870 H         1 XBK1399     0.0000 
     62 H          29.7333    4.4884    0.2880 H         1 XBK1399     0.0000 
     63 H          28.0340    4.1047    2.7530 H         1 XBK1399     0.0000 
     64 H          28.9785    1.9727    0.8249 H         1 XBK1399     0.0000 
     65 H          27.1557    1.9520    3.2139 H         1 XBK1399     0.0000 
     66 H          28.1586   -0.1741    1.3589 H         1 XBK1399     0.0000 
     67 H          26.3887   -0.3294    3.7422 H         1 XBK1399     0.0000 
     68 H          27.4607   -2.0672    1.5658 H         1 XBK1399     0.0000 
     69 H          26.3457   -3.8451    2.1141 H         1 XBK1399     0.0000 
     70 H          27.9471   -3.6811    4.0646 H         1 XBK1399     0.0000 
     71 H          26.5629   -4.7723    4.2472 H         1 XBK1399     0.0000 
     72 H          25.6233   -2.5094    5.4394 H         1 XBK1399     0.0000 
     73 H          27.3660   -4.6072    6.6500 H         1 XBK1399     0.0000 
     74 H          25.3057   -2.7839    7.8779 H         1 XBK1399     0.0000 
     75 H          24.9580   -4.6839    2.1103 H         1 XBK1399     0.0000 
     76 H          23.9171   -5.2916   -0.0804 H         1 XBK1399     0.0000 
     77 H          21.2229   -4.5371    1.0713 H         1 XBK1399     0.0000 
     78 H          23.1438   -6.5485    2.2338 H         1 XBK1399     0.0000 
     79 H          23.5992   -5.0528    3.9568 H         1 XBK1399     0.0000 
     80 H          33.2159    8.9125    2.2374 H         1 XBK1399     0.0000 
     81 H          31.9908    9.5217    1.3923 H         1 XBK1399     0.0000 
     82 H          31.8061    9.1978    2.9567 H         1 XBK1399     0.0000 
     83 H          23.3774   -3.5138   -1.6238 H         1 XBK1399     0.0000 
     84 H          22.2333   -4.6402   -1.7160 H         1 XBK1399     0.0000 
     85 H          21.9462   -3.2647   -0.9339 H         1 XBK1399     0.0000 
     86 H          20.6474   -5.3816    3.1687 H         1 XBK1399     0.0000 
     87 H          20.7781   -6.8861    2.6158 H         1 XBK1399     0.0000 
     88 H          21.5201   -6.4629    3.9784 H         1 XBK1399     0.0000 
     89 H          26.9998    0.2697    6.6309 H         1 XBK1399     0.0000 
     90 H          29.1400    1.8692    6.5281 H         1 XBK1399     0.0000 
     91 H          25.1791   -4.2146    9.3945 H         1 XBK1399     0.0000 
     92 H          22.0893   -7.1536    0.3881 H         1 XBK1399     0.0000 
     93 H          21.2075   -4.1660    3.4100 H         1 XBK1399     0.0000 
@<TRIPOS>BOND
     1    2    1 2    
     2    3    2 1    
     3   15    2 1    
     4    4    3 2    
     5   47    3 1    
     6    5    4 1    
     7   48    4 1    
     8    6    5 2    
     9   49    5 1    
    10    7    6 1    
    11   50    6 1    
    12    8    7 1    
    13   51    7 1    
    14   52    7 1    
    15    9    8 1    
    16   14    8 1    
    17   53    8 1    
    18   10    9 1    
    19   54    9 1    
    20   55    9 1    
    21   11   10 1    
    22   12   10 1    
    23   13   10 1    
    24   29   11 1    
    25   34   12 1    
    26   56   12 1    
    27   57   12 1    
    28   89   13 1    
    29   90   14 1    
    30   16   15 1    
    31   17   16 1    
    32   18   16 1    
    33   58   16 1    
    34   80   17 1    
    35   81   17 1    
    36   82   17 1    
    37   19   18 1    
    38   59   18 1    
    39   60   18 1    
    40   20   19 2    
    41   61   19 1    
    42   21   20 1    
    43   62   20 1    
    44   22   21 2    
    45   63   21 1    
    46   23   22 1    
    47   64   22 1    
    48   24   23 2    
    49   65   23 1    
    50   25   24 1    
    51   66   24 1    
    52   26   25 2    
    53   67   25 1    
    54   27   26 1    
    55   68   26 1    
    56   28   27 1    
    57   36   27 1    
    58   69   27 1    
    59   29   28 1    
    60   70   28 1    
    61   71   28 1    
    62   30   29 1    
    63   72   29 1    
    64   31   30 1    
    65   34   30 1    
    66   73   30 1    
    67   32   31 ar   
    68   33   31 ar   
    69   35   34 1    
    70   74   34 1    
    71   91   35 1    
    72   37   36 1    
    73   38   37 1    
    74   45   37 1    
    75   75   37 1    
    76   39   38 1    
    77   40   39 1    
    78   41   39 1    
    79   76   39 1    
    80   83   40 1    
    81   84   40 1    
    82   85   40 1    
    83   42   41 1    
    84   43   41 1    
    85   77   41 1    
    86   92   42 1    
    87   44   43 1    
    88   45   43 1    
    89   78   43 1    
    90   86   44 1    
    91   87   44 1    
    92   88   44 1    
    93   46   45 1    
    94   79   45 1    
    95   93   46 1    
@<TRIPOS>SUBSTRUCTURE
     1 XBK1399     1 GROUP   
@<TRIPOS>SET

