#    Name: 2clo_F19_1_INTS_M
#    Modification time : Tue Mar 25 01:01:19 2014

@<TRIPOS>MOLECULE
2clo_F19_1_INTS_M
   53     0     6     0     0
SMALL
NO_CHARGES


@<TRIPOS>ATOM
      1 CA         53.9270   22.5745   14.2875 C.3       2 GLC5        0.0000 
      2 CA         52.1590   22.3520   14.6760 C.3       6 GLL5        0.0000 
      3 CA         55.6950   22.7970   13.8990 C.3       4 GLP5        0.0000 
      4 CA         49.9645   21.1745   16.9545 C.3       2 GLC5        0.0000 
      5 CA         50.0890   20.7640   14.8830 C.3       6 GLL5        0.0000 
      6 CA         49.8400   21.5850   19.0260 C.3       4 GLP5        0.0000 
      7 CA         49.2150   19.4260   15.6315 C.3       2 GLC5        0.0000 
      8 CA         48.3410   18.0880   16.3800 C.3       4 GLP5        0.0000 
      9 CA         48.3990   20.6335   15.8625 C.3       2 GLC5        0.0000 
     10 CA         49.2780   21.9740   14.9090 C.3       6 GLL5        0.0000 
     11 CA         47.5200   19.2930   16.8160 C.3       4 GLP5        0.0000 
     12 CA         48.5680   21.3740   12.8670 C.3       2 GLC5        0.0000 
     13 CA         47.8580   20.7740   10.8250 C.3       4 GLP5        0.0000 
     14 N          46.7010   25.8365   14.7335 N.am      1 SEC2        0.0000 
     15 N          47.1070   26.6160   15.8310 N.am      5 SEL2        0.0000 
     16 N          46.2950   25.0570   13.6360 N.am      3 SEP2        0.0000 
     17 CA         48.0490   26.5240   11.6080 C.3       2 GLC5        0.0000 
     18 CA         47.8530   28.5610   12.3680 C.3       6 GLL5        0.0000 
     19 CA         48.2450   24.4870   10.8480 C.3       4 GLP5        0.0000 
     20 CA         47.6885   30.5685   12.5290 C.3       2 GLC5        0.0000 
     21 CA         47.5240   32.5760   12.6900 C.3       4 GLP5        0.0000 
     22 CA         49.0625   25.9950   12.4965 C.3       2 GLC5        0.0000 
     23 CA         48.8440   27.8480   13.2690 C.3       6 GLL5        0.0000 
     24 CA         49.2810   24.1420   11.7240 C.3       4 GLP5        0.0000 
     25 N          49.3150   31.5715   10.6650 N.am      1 SEC2        0.0000 
     26 N          49.5860   30.1620   10.4770 N.am      5 SEL2        0.0000 
     27 N          49.0440   32.9810   10.8530 N.am      3 SEP2        0.0000 
     28 N          50.4200   31.0430    9.8685 N.am      1 SEC2        0.0000 
     29 N          51.2540   31.9240    9.2600 N.am      3 SEP2        0.0000 
     30 N          50.0805   28.7290    8.1455 N.am      1 SEC2        0.0000 
     31 N          48.7570   28.7080    8.7170 N.am      5 SEL2        0.0000 
     32 N          51.4040   28.7500    7.5740 N.am      3 SEP2        0.0000 
     33 N          47.6725   28.1825    7.8520 N.am      1 SEC2        0.0000 
     34 N          46.5880   27.6570    6.9870 N.am      3 SEP2        0.0000 
     35 N          46.8685   31.1950   10.8515 N.am      1 SEC2        0.0000 
     36 N          47.4070   30.3470    9.6480 N.am      5 SEL2        0.0000 
     37 N          46.3300   32.0430   12.0550 N.am      3 SEP2        0.0000 
     38 N          48.2255   31.6640   10.2505 N.am      1 SEC2        0.0000 
     39 CA         51.2300   25.2675   17.0198 C.3       2 GLC5        0.0000 
     40 CA         50.9820   25.8810   15.4060 C.3       6 GLL5        0.0000 
     41 CA         51.0670   25.1800   18.8400 C.3       4 GLP5        0.0000 
     42 CA         51.6220   26.0990   13.4763 C.3       2 GLC5        0.0000 
     43 CA         51.8040   24.8290   14.9930 C.3       6 GLL5        0.0000 
     44 CA         51.8510   26.8430   11.7530 C.3       4 GLP5        0.0000 
     45 CA         50.1890   25.1082   17.2308 C.3       2 GLC5        0.0000 
     46 CA         49.5570   25.6950   15.6140 C.3       6 GLL5        0.0000 
     47 CA         50.8215   24.2775   16.9462 C.3       2 GLC5        0.0000 
     48 CA         49.8620   23.2710   15.1660 C.3       6 GLL5        0.0000 
     49 CA         53.0495   22.7705   16.3010 C.3       2 GLC5        0.0000 
     50 CA         54.2460   22.2880   17.7810 C.3       4 GLP5        0.0000 
     51 CA         48.4899   22.7616   16.8481 C.3       2 GLC5        0.0000 
     52 CA         47.6090   22.6240   18.5430 C.3       4 GLP5        0.0000 
     53 CA         50.0998   27.5237   12.2858 C.3       2 GLC5        0.0000 
@<TRIPOS>BOND
@<TRIPOS>SUBSTRUCTURE
     1 SEC2       14 GROUP        1 X    SEC  0     ROOT SEC X 2
     2 GLC5        1 GROUP        1 X    GLC  0     **** GLC X 6
     3 SEP2       16 GROUP        1 Y    SEP  0     ROOT SEP Y 9
     4 GLP5        3 GROUP        1 Y    GLP  0     **** GLP Y 13
     5 SEL2       15 GROUP        1 Z    SEL  0     ROOT SEL Z 16
     6 GLL5        2 GROUP        1 Z    GLL  0     **** GLL Z 20
@<TRIPOS>SET

