#    Name: 2clo_F19_1_ligand
#    Modification time : Tue Mar 25 01:01:19 2014

@<TRIPOS>MOLECULE
2clo_F19_1_ligand
   33    34     1     0     0
SMALL
NO_CHARGES


@<TRIPOS>ATOM
      1 C1         51.8040   24.8290   14.9930 C.ar      1 F191268     0.0000 
      2 C2         50.9820   25.8810   15.4060 C.ar      1 F191268     0.0000 
      3 C3         49.5570   25.6950   15.6140 C.ar      1 F191268     0.0000 
      4 C4         49.0650   24.3780   15.6290 C.ar      1 F191268     0.0000 
      5 C5         49.8620   23.2710   15.1660 C.ar      1 F191268     0.0000 
      6 C6         51.2900   23.4790   14.9390 C.ar      1 F191268     0.0000 
      7 C7         52.1590   22.3520   14.6760 C.ar      1 F191268     0.0000 
      8 C8         51.3630   21.0430   14.3010 C.ar      1 F191268     0.0000 
      9 C9         50.0890   20.7640   14.8830 C.ar      1 F191268     0.0000 
     10 C10        49.2780   21.9740   14.9090 C.ar      1 F191268     0.0000 
     11 S11        48.4710   27.1280   15.8450 S.o2      1 F191268     0.0000 
     12 O12        47.1070   26.6160   15.8310 O.2       1 F191268     0.0000 
     13 O13        48.8360   27.7440   17.1040 O.2       1 F191268     0.0000 
     14 C16        47.8530   28.5610   12.3680 C.3       1 F191268     0.0000 
     15 O17        48.1510   28.2100   11.0300 O.3       1 F191268     0.0000 
     16 C18        48.8440   27.8480   13.2690 C.3       1 F191268     0.0000 
     17 N1         48.6980   28.3070   14.6480 N.pl3     1 F191268     0.0000 
     18 O20        49.5860   30.1620   10.4770 O.co2     1 F191268     0.0000 
     19 O21        48.7570   28.7080    8.7170 O.co2     1 F191268     0.0000 
     20 P          48.4010   29.3880    9.9410 P.3       1 F191268     0.0000 
     21 O22        47.4070   30.3470    9.6480 O.co2     1 F191268     0.0000 
     22 H          52.7747   24.9928   14.7240 H         1 F191268     0.0000 
     23 H          51.3730   26.8173   15.5727 H         1 F191268     0.0000 
     24 H          48.1161   24.1852   15.9757 H         1 F191268     0.0000 
     25 H          53.0936   22.3343   14.7073 H         1 F191268     0.0000 
     26 H          51.8106   20.4395   13.6399 H         1 F191268     0.0000 
     27 H          49.8014   19.9292   15.2060 H         1 F191268     0.0000 
     28 H          48.2751   21.8990   14.7413 H         1 F191268     0.0000 
     29 H          46.8483   28.2509   12.6605 H         1 F191268     0.0000 
     30 H          47.9500   29.6338   12.5431 H         1 F191268     0.0000 
     31 H          49.8557   28.0470   12.8986 H         1 F191268     0.0000 
     32 H          48.6646   26.7696   13.1977 H         1 F191268     0.0000 
     33 H          48.7141   29.2025   14.9691 H         1 F191268     0.0000 
@<TRIPOS>BOND
     1    2    1 ar   
     2    6    1 ar   
     3   22    1 1    
     4    3    2 ar   
     5   23    2 1    
     6    4    3 ar   
     7   11    3 1    
     8    5    4 ar   
     9   24    4 1    
    10    6    5 ar   
    11   10    5 ar   
    12    7    6 ar   
    13    8    7 ar   
    14   25    7 1    
    15    9    8 ar   
    16   26    8 1    
    17   10    9 ar   
    18   27    9 1    
    19   28   10 1    
    20   12   11 2    
    21   13   11 2    
    22   17   11 1    
    23   15   14 1    
    24   16   14 1    
    25   29   14 1    
    26   30   14 1    
    27   20   15 1    
    28   17   16 1    
    29   31   16 1    
    30   32   16 1    
    31   33   17 1    
    32   20   18 ar   
    33   20   19 ar   
    34   21   20 ar   
@<TRIPOS>SUBSTRUCTURE
     1 F191268     1 GROUP   
@<TRIPOS>SET

