#    Name: 3M2X_1_CAVITY_N1_ALL.mol2
#    Modification time : Tue Mar 11 12:48:54 2014

@<TRIPOS>MOLECULE
3M2X_1_CAVITY_N1_ALL.mol2
   87     0     6     0     0
SMALL
NO_CHARGES


@<TRIPOS>ATOM
      1 CA         20.3181   11.4622   15.2699 C.3       5 GLY6        0.0000 
      2 CA         19.3333   10.4555   15.7862 C.3       5 GLY6        0.0000 
      3 CA         20.5376    8.8853   15.0219 C.3       5 GLY6        0.0000 
      4 CZ         19.4087    9.7141   14.4844 C.ar      4 PHE5        0.0000 
      5 CZ         21.9682    5.0908   10.3523 C.ar      4 PHE5        0.0000 
      6 CA         18.3484    9.4488   16.3025 C.3       5 GLY6        0.0000 
      7 CA         18.4238    8.7074   15.0008 C.3       5 GLY6        0.0000 
      8 CZ         17.2950    9.5361   14.4633 C.ar      4 PHE5        0.0000 
      9 CA         19.6281    7.1372   14.2364 C.3       5 GLY6        0.0000 
     10 DU         18.4993    7.9659   13.6990 H         6 CUB7        0.0000 
     11 CZ         17.3704    8.7947   13.1616 C.ar      4 PHE5        0.0000 
     12 CZ         16.2415    9.6234   12.6241 C.ar      4 PHE5        0.0000 
     13 N          19.7036    6.3957   12.9347 N.2       2 ALA2        0.0000 
     14 DU         18.5747    7.2245   12.3972 H         6 CUB7        0.0000 
     15 DU         17.4458    8.0532   11.8598 H         6 CUB7        0.0000 
     16 N          20.9079    4.8255   12.1704 N.2       2 ALA2        0.0000 
     17 DU         19.7790    5.6543   11.6329 H         6 CUB7        0.0000 
     18 DU         18.6501    6.4830   11.0955 H         6 CUB7        0.0000 
     19 DU         17.5213    7.3118   10.5580 H         6 CUB7        0.0000 
     20 CZ         20.9833    4.0841   10.8686 C.ar      4 PHE5        0.0000 
     21 O          19.8544    4.9128   10.3312 O.2       2 ALA2        0.0000 
     22 O          18.7256    5.7416    9.7937 O.2       2 ALA2        0.0000 
     23 O          17.5967    6.5703    9.2563 O.2       2 ALA2        0.0000 
     24 O          16.4678    7.3991    8.7188 O.2       2 ALA2        0.0000 
     25 O          17.6721    5.8289    7.9545 O.2       2 ALA2        0.0000 
     26 CA         17.4390    7.7007   15.5171 C.3       5 GLY6        0.0000 
     27 CZ         16.3101    8.5294   14.9796 C.ar      4 PHE5        0.0000 
     28 OG         18.6433    6.1305   14.7528 O.2       1 SER1        0.0000 
     29 CA         17.5144    6.9592   14.2153 C.3       5 GLY6        0.0000 
     30 CZ         16.3855    7.7880   13.6779 C.ar      4 PHE5        0.0000 
     31 CZ         15.2567    8.6167   13.1404 C.ar      4 PHE5        0.0000 
     32 OG         18.7187    5.3890   13.4510 O.2       1 SER1        0.0000 
     33 DU         17.5898    6.2178   12.9136 H         6 CUB7        0.0000 
     34 DU         16.4610    7.0465   12.3761 H         6 CUB7        0.0000 
     35 O          15.3321    7.8753   11.8387 O.2       2 ALA2        0.0000 
     36 OG         18.7941    4.6476   12.1492 O.2       1 SER1        0.0000 
     37 DU         17.6653    5.4763   11.6118 H         6 CUB7        0.0000 
     38 O          16.5364    6.3051   11.0744 O.2       2 ALA2        0.0000 
     39 O          15.4075    7.1338   10.5369 O.2       2 ALA2        0.0000 
     40 CZ         19.9984    3.0774   11.3849 C.ar      4 PHE5        0.0000 
     41 O          18.8696    3.9061   10.8475 O.2       2 ALA2        0.0000 
     42 O          17.7407    4.7349   10.3100 O.2       2 ALA2        0.0000 
     43 O          16.6118    5.5636    9.7726 O.2       2 ALA2        0.0000 
     44 CA         15.3252    7.5227   15.4959 C.3       5 GLY6        0.0000 
     45 CZ         14.1964    8.3515   14.9585 C.ar      4 PHE5        0.0000 
     46 OG         17.6584    5.1238   15.2691 O.2       1 SER1        0.0000 
     47 CA         16.5295    5.9525   14.7316 C.3       5 GLY6        0.0000 
     48 DU         15.4007    6.7813   14.1942 H         6 CUB7        0.0000 
     49 CA         14.2718    7.6100   13.6567 C.3       5 GLY6        0.0000 
     50 OG         16.6050    5.2111   13.4299 O.2       1 SER1        0.0000 
     51 O          15.4761    6.0398   12.8924 O.2       2 ALA2        0.0000 
     52 O          14.3472    6.8686   12.3550 O.2       2 ALA2        0.0000 
     53 OG         17.8093    3.6409   12.6656 O.2       1 SER1        0.0000 
     54 DU         16.6804    4.4696   12.1281 H         6 CUB7        0.0000 
     55 O          15.5515    5.2984   11.5907 O.2       2 ALA2        0.0000 
     56 CA         19.0136    2.0707   11.9013 C.3       5 GLY6        0.0000 
     57 O          17.8847    2.8995   11.3638 O.2       2 ALA2        0.0000 
     58 N          16.7558    3.7282   10.8264 N.2       2 ALA2        0.0000 
     59 O          15.6270    4.5569   10.2889 O.2       2 ALA2        0.0000 
     60 CA         19.0890    1.3293   10.5995 C.3       5 GLY6        0.0000 
     61 O          17.9601    2.1580   10.0620 O.2       2 ALA2        0.0000 
     62 CA         14.3404    6.5160   16.0123 C.3       5 GLY6        0.0000 
     63 OG         16.6735    4.1171   15.7854 O.2       1 SER1        0.0000 
     64 CA         15.5447    4.9458   15.2479 C.3       5 GLY6        0.0000 
     65 CA         14.4158    5.7746   14.7105 C.3       5 GLY6        0.0000 
     66 OG         16.7490    3.3756   14.4836 O.2       1 SER1        0.0000 
     67 O          15.6201    4.2044   13.9462 O.2       2 ALA2        0.0000 
     68 O          14.4912    5.0331   13.4087 O.2       2 ALA2        0.0000 
     69 OG         16.8244    2.6342   13.1819 O.2       1 SER1        0.0000 
     70 O          15.6955    3.4629   12.6444 O.2       2 ALA2        0.0000 
     71 O          14.5667    4.2917   12.1070 O.2       2 ALA2        0.0000 
     72 CA         18.0287    1.0640   12.4176 C.3       5 GLY6        0.0000 
     73 N          16.8998    1.8928   11.8801 N.2       2 ALA2        0.0000 
     74 O          15.7710    2.7215   11.3427 O.2       2 ALA2        0.0000 
     75 OG         19.2330   -0.5062   11.6533 O.2       1 SER1        0.0000 
     76 CA         18.1041    0.3226   11.1158 C.3       5 GLY6        0.0000 
     77 CA         16.9753    1.1513   10.5784 C.3       5 GLY6        0.0000 
     78 N          15.8464    1.9801   10.0409 N.2       2 ALA2        0.0000 
     79 O          18.1795   -0.4189    9.8141 O.2       2 ALA2        0.0000 
     80 CA         15.6132    3.8518   17.6035 C.3       5 GLY6        0.0000 
     81 CA         14.4843    4.6806   17.0660 C.3       5 GLY6        0.0000 
     82 OD1        15.6886    3.1104   16.3017 O.3       3 ASP3        0.0000 
     83 CA         14.5598    3.9391   15.7643 C.3       5 GLY6        0.0000 
     84 N          15.7641    2.3689   15.0000 N.2       2 ALA2        0.0000 
     85 CA         17.0438    0.0573   12.9339 C.3       5 GLY6        0.0000 
     86 CA         17.1192   -0.6841   11.6321 C.3       5 GLY6        0.0000 
     87 CA         15.9904    0.1446   11.0947 C.3       5 GLY6        0.0000 
@<TRIPOS>BOND
@<TRIPOS>SUBSTRUCTURE
     1 SER1       28 GROUP   
     2 ALA2       13 GROUP   
     3 ASP3       82 GROUP   
     4 PHE5        4 GROUP   
     5 GLY6        1 GROUP   
     6 CUB7       10 GROUP   
@<TRIPOS>SET

