#    Name: 3m2x_BEX_1_INTS_M
#    Modification time : Mon Mar 24 22:42:13 2014

@<TRIPOS>MOLECULE
3m2x_BEX_1_INTS_M
   45     0    12     0     0
SMALL
NO_CHARGES


@<TRIPOS>ATOM
      1 CA         13.1645   11.7085   11.4765 C.3       4 GLC5        0.0000 
      2 CA         14.8460   10.8370   11.4170 C.3      12 GLL5        0.0000 
      3 CA         11.4830   12.5800   11.5360 C.3       8 GLP5        0.0000 
      4 CA         15.4310   11.3230   13.0420 C.3       4 GLC5        0.0000 
      5 CA         16.0160   11.8090   14.6670 C.3       8 GLP5        0.0000 
      6 CA         19.1000    8.1245   15.9575 C.3       4 GLC5        0.0000 
      7 CA         19.2720    8.7300   14.0050 C.3      12 GLL5        0.0000 
      8 CA         18.9280    7.5190   17.9100 C.3       8 GLP5        0.0000 
      9 CA         20.9810    8.2410   14.8930 C.3       4 GLC5        0.0000 
     10 CA         22.6900    7.7520   15.7810 C.3       8 GLP5        0.0000 
     11 Zn         15.5145    1.5805   15.1315 Zn        3 ZIC7        0.0000 
     12 Zn         16.5460    3.0800   14.8420 Zn       11 ZIL7        0.0000 
     13 Zn         14.4830    0.0810   15.4210 Zn        7 ZIP7        0.0000 
     14 N          17.5795    2.5915   18.2335 N.am      2 SEC2        0.0000 
     15 N          16.7210    3.2300   17.3540 N.am     10 SEL2        0.0000 
     16 N          18.4380    1.9530   19.1130 N.am      6 SEP2        0.0000 
     17 O          16.5920    0.3730   17.1410 O.2       1 ALC1        0.0000 
     18 O          15.7180    1.0830   16.5120 O.2       9 ALL1        0.0000 
     19 O          17.4660   -0.3370   17.7700 O.2       5 ALP1        0.0000 
     20 Zn         15.1005    0.5820   15.9665 Zn        3 ZIC7        0.0000 
     21 Zn         15.7180    1.0830   16.5120 Zn       11 ZIL7        0.0000 
     22 CA         16.5000    6.7130   16.0565 C.3       4 GLC5        0.0000 
     23 CA         15.7840    6.4520   13.9990 C.3      12 GLL5        0.0000 
     24 CA         16.6250    6.5980   18.1340 C.3       8 GLP5        0.0000 
     25 CA         19.3185    1.7478   12.8350 C.3       4 GLC5        0.0000 
     26 CA         18.6930    3.2260   11.7270 C.3      12 GLL5        0.0000 
     27 CA         19.7270    0.8040   14.3430 C.3       8 GLP5        0.0000 
     28 CA         19.6845    0.6895    9.6890 C.3       4 GLC5        0.0000 
     29 CA         19.1270    2.1570   10.9270 C.3      12 GLL5        0.0000 
     30 CA         20.6870   -0.2550    8.5870 C.3       8 GLP5        0.0000 
     31 CA         16.7925   -0.1670    9.7812 C.3       4 GLC5        0.0000 
     32 CA         18.2370    1.1110   10.6550 C.3      12 GLL5        0.0000 
     33 CA         15.9960   -1.4510    8.6420 C.3       8 GLP5        0.0000 
     34 CA         18.6580    0.9605   12.6318 C.3       4 GLC5        0.0000 
     35 CA         16.9410    1.1230   11.1860 C.3      12 GLL5        0.0000 
     36 CA         15.1463    0.9638   12.1327 C.3       4 GLC5        0.0000 
     37 CA         13.5630    0.2700   12.6840 C.3       8 GLP5        0.0000 
     38 CA         18.3407    1.7628   13.2300 C.3       4 GLC5        0.0000 
     39 CA         16.5180    2.1920   11.9770 C.3      12 GLL5        0.0000 
     40 CA         13.0535    7.2142   11.8905 C.3       4 GLC5        0.0000 
     41 CA         14.6520    6.9390   13.3270 C.3      12 GLL5        0.0000 
     42 CA         11.4310    6.8780   10.8000 C.3       8 GLP5        0.0000 
     43 CA         13.1550    7.5602   14.3465 C.3       4 GLC5        0.0000 
     44 CA         14.7000    8.1620   12.6350 C.3      12 GLL5        0.0000 
     45 CA         11.6340    7.5700   15.7120 C.3       8 GLP5        0.0000 
@<TRIPOS>BOND
@<TRIPOS>SUBSTRUCTURE
     1 ALC1       17 GROUP        1 X    ALC  0     ROOT ALC X 1
     2 SEC2       14 GROUP        1 X    SEC  0     **** SEC X 2
     3 ZIC7       11 GROUP        1 X    ZIC  0     **** ZIC X 5
     4 GLC5        1 GROUP        1 X    GLC  0     **** GLC X 6
     5 ALP1       19 GROUP        1 Y    ALP  0     ROOT ALP Y 8
     6 SEP2       16 GROUP        1 Y    SEP  0     **** SEP Y 9
     7 ZIP7       13 GROUP        1 Y    ZIP  0     **** ZIP Y 12
     8 GLP5        3 GROUP        1 Y    GLP  0     **** GLP Y 13
     9 ALL1       18 GROUP        1 Z    ALL  0     ROOT ALL Z 15
    10 SEL2       15 GROUP        1 Z    SEL  0     **** SEL Z 16
    11 ZIL7       12 GROUP        1 Z    ZIL  0     **** ZIL Z 19
    12 GLL5        2 GROUP        1 Z    GLL  0     **** GLL Z 20
@<TRIPOS>SET

