#    Name: 3m2x_BEX_1_ligand
#    Modification time : Mon Mar 24 22:42:13 2014

@<TRIPOS>MOLECULE
3m2x_BEX_1_ligand
   42    43     1     0     0
SMALL
NO_CHARGES


@<TRIPOS>ATOM
      1 C4         15.7840    6.4520   13.9990 C.ar      1 BEX502      0.0000 
      2 C5         16.9660    7.2040   13.9590 C.ar      1 BEX502      0.0000 
      3 C6         17.0170    8.4180   13.2700 C.ar      1 BEX502      0.0000 
      4 C8         14.8460   10.8370   11.4170 C.3       1 BEX502      0.0000 
      5 C10        19.2720    8.7300   14.0050 C.3       1 BEX502      0.0000 
      6 C20        18.6930    3.2260   11.7270 C.ar      1 BEX502      0.0000 
      7 C21        19.1270    2.1570   10.9270 C.ar      1 BEX502      0.0000 
      8 C22        18.2370    1.1110   10.6550 C.ar      1 BEX502      0.0000 
      9 C24        16.5180    2.1920   11.9770 C.ar      1 BEX502      0.0000 
     10 O7         16.0000   10.1340   11.9270 O.3       1 BEX502      0.0000 
     11 C1         15.8800    8.9030   12.6030 C.ar      1 BEX502      0.0000 
     12 O9         18.1780    9.2040   13.2070 O.3       1 BEX502      0.0000 
     13 N11        15.6690    5.2170   14.6820 N.pl3     1 BEX502      0.0000 
     14 C12        16.2180    4.1340   14.1200 C.3       1 BEX502      0.0000 
     15 N13        16.5460    3.0800   14.8420 N.pl3     1 BEX502      0.0000 
     16 S14        15.8760    2.6950   16.2870 S.o2      1 BEX502      0.0000 
     17 O15        16.7210    3.2300   17.3540 O.2       1 BEX502      0.0000 
     18 O16        14.5710    3.2610   16.3980 O.2       1 BEX502      0.0000 
     19 N17        15.7180    1.0830   16.5120 N.pl3     1 BEX502      0.0000 
     20 O18        16.9980    4.3230   13.0440 O.3       1 BEX502      0.0000 
     21 C19        17.3910    3.2510   12.2570 C.ar      1 BEX502      0.0000 
     22 C23        16.9410    1.1230   11.1860 C.ar      1 BEX502      0.0000 
     23 C3         14.6520    6.9390   13.3270 C.ar      1 BEX502      0.0000 
     24 C2         14.7000    8.1620   12.6350 C.ar      1 BEX502      0.0000 
     25 H          17.8060    6.8556   14.4441 H         1 BEX502      0.0000 
     26 H          19.3375    4.0041   11.9292 H         1 BEX502      0.0000 
     27 H          20.0720    2.1443   10.5523 H         1 BEX502      0.0000 
     28 H          18.5372    0.3270   10.0602 H         1 BEX502      0.0000 
     29 H          15.5633    2.2045   12.3564 H         1 BEX502      0.0000 
     30 H          15.1751    5.1919   15.5740 H         1 BEX502      0.0000 
     31 H          15.1830    3.6587   13.5152 H         1 BEX502      0.0000 
     32 H          17.2646    2.3689   14.5853 H         1 BEX502      0.0000 
     33 H          16.2436    0.6904   17.2667 H         1 BEX502      0.0000 
     34 H          16.3027    0.3427   10.9916 H         1 BEX502      0.0000 
     35 H          13.7785    6.3968   13.3403 H         1 BEX502      0.0000 
     36 H          13.8608    8.5053   12.1538 H         1 BEX502      0.0000 
     37 H          15.1012   11.6933   10.9681 H         1 BEX502      0.0000 
     38 H          14.3459   10.2913   10.7446 H         1 BEX502      0.0000 
     39 H          14.2006   11.0687   12.1449 H         1 BEX502      0.0000 
     40 H          19.5612    7.8127   13.7313 H         1 BEX502      0.0000 
     41 H          20.0724    9.3246   13.9287 H         1 BEX502      0.0000 
     42 H          19.0320    8.6846   14.9747 H         1 BEX502      0.0000 
@<TRIPOS>BOND
     1    2    1 ar   
     2   13    1 1    
     3   23    1 ar   
     4    3    2 ar   
     5   25    2 1    
     6   11    3 ar   
     7   12    3 1    
     8   10    4 1    
     9   37    4 1    
    10   38    4 1    
    11   39    4 1    
    12   12    5 1    
    13   40    5 1    
    14   41    5 1    
    15   42    5 1    
    16    7    6 ar   
    17   21    6 ar   
    18   26    6 1    
    19    8    7 ar   
    20   27    7 1    
    21   22    8 ar   
    22   28    8 1    
    23   21    9 ar   
    24   22    9 ar   
    25   29    9 1    
    26   11   10 1    
    27   24   11 ar   
    28   14   13 1    
    29   30   13 1    
    30   15   14 1    
    31   20   14 1    
    32   31   14 1    
    33   16   15 1    
    34   32   15 1    
    35   17   16 2    
    36   18   16 2    
    37   19   16 1    
    38   33   19 1    
    39   21   20 1    
    40   34   22 1    
    41   24   23 ar   
    42   35   23 1    
    43   36   24 1    
@<TRIPOS>SUBSTRUCTURE
     1 BEX502      1 GROUP   
@<TRIPOS>SET

