#    Name: 2r9z_FAD_2_INTS_M
#    Modification time : Mon Mar 24 23:31:38 2014

@<TRIPOS>MOLECULE
2r9z_FAD_2_INTS_M
  129     0     9     0     0
SMALL
NO_CHARGES


@<TRIPOS>ATOM
      1 N          11.7205   26.5450   69.5260 N.am      2 SEC2        0.0000 
      2 N          10.1030   26.2060   69.1310 N.am      8 SEL2        0.0000 
      3 N          13.3380   26.8840   69.9210 N.am      5 SEP2        0.0000 
      4 N           8.9310   27.2860   69.0470 N.am      2 SEC2        0.0000 
      5 N           7.7590   28.3660   68.9630 N.am      5 SEP2        0.0000 
      6 N           8.0155   26.8345   68.3015 N.am      2 SEC2        0.0000 
      7 N           8.2720   25.3030   67.6400 N.am      8 SEL2        0.0000 
      8 N           7.0315   25.8605   67.9840 N.am      2 SEC2        0.0000 
      9 N           5.7910   26.4180   68.3280 N.am      5 SEP2        0.0000 
     10 CA          9.7070   23.7450   65.6130 C.3       3 GLC5        0.0000 
     11 CA         10.5160   25.4720   65.3870 C.3       9 GLL5        0.0000 
     12 CA          8.8980   22.0180   65.8390 C.3       6 GLP5        0.0000 
     13 CA         12.4060   26.5330   63.5270 C.3       3 GLC5        0.0000 
     14 CA         10.6870   26.6740   64.4590 C.3       9 GLL5        0.0000 
     15 CA         14.1250   26.3920   62.5950 C.3       6 GLP5        0.0000 
     16 CA          9.5165   28.5150   66.1440 C.3       3 GLC5        0.0000 
     17 CA          9.4450   27.5500   64.4030 C.3       9 GLL5        0.0000 
     18 CA          9.5880   29.4800   67.8850 C.3       6 GLP5        0.0000 
     19 O          10.9430   29.2890   63.9035 O.2       1 ALC1        0.0000 
     20 O           9.8940   28.8800   64.6600 O.2       7 ALL1        0.0000 
     21 O          11.9920   29.6980   63.1470 O.2       4 ALP1        0.0000 
     22 O           9.3555   29.5840   62.2775 O.2       1 ALC1        0.0000 
     23 O           8.3860   28.5970   62.4760 O.2       7 ALL1        0.0000 
     24 O          10.3250   30.5710   62.0790 O.2       4 ALP1        0.0000 
     25 CA         12.1455   26.7150   62.3955 C.3       3 GLC5        0.0000 
     26 CA         10.1660   27.0380   62.1960 C.3       9 GLL5        0.0000 
     27 CA         12.9220   24.5355   58.1850 C.3       3 GLC5        0.0000 
     28 CA         11.1180   25.2620   57.7550 C.3       9 GLL5        0.0000 
     29 CA         14.7260   23.8090   58.6150 C.3       6 GLP5        0.0000 
     30 O          11.6350   23.7540   55.7290 O.2       1 ALC1        0.0000 
     31 O          11.0450   24.1410   57.0200 O.2       7 ALL1        0.0000 
     32 O          12.2250   23.3670   54.4380 O.2       4 ALP1        0.0000 
     33 N          12.4005   26.1775   56.0200 N.am      2 SEC2        0.0000 
     34 N          12.0790   26.1960   57.4620 N.am      8 SEL2        0.0000 
     35 N          12.7220   26.1590   54.5780 N.am      5 SEP2        0.0000 
     36 CA         13.5735   25.5035   58.4865 C.3       3 GLC5        0.0000 
     37 CA         12.4210   27.1980   58.3580 C.3       9 GLL5        0.0000 
     38 CA         14.0225   27.8880   57.4320 C.3       3 GLC5        0.0000 
     39 CA         15.6240   28.5780   56.5060 C.3       6 GLP5        0.0000 
     40 CA         12.9120   28.8935   59.2485 C.3       3 GLC5        0.0000 
     41 CA         13.4030   30.5890   60.1390 C.3       6 GLP5        0.0000 
     42 CA         10.8775   28.4940   58.0450 C.3       3 GLC5        0.0000 
     43 CA          9.3340   29.7900   57.7320 C.3       6 GLP5        0.0000 
     44 CA         11.6430   27.4680   56.4405 C.3       3 GLC5        0.0000 
     45 CA         10.8650   27.7380   54.5230 C.3       6 GLP5        0.0000 
     46 N          11.5125   28.9020   59.3085 N.am      2 SEC2        0.0000 
     47 N          11.7820   27.2670   59.5880 N.am      8 SEL2        0.0000 
     48 N          11.2430   30.5370   59.0290 N.am      5 SEP2        0.0000 
     49 CA         12.4810   26.3685   61.2415 C.3       3 GLC5        0.0000 
     50 CA         10.8370   26.3450   59.8880 C.3       9 GLL5        0.0000 
     51 CA         10.0855   28.0675   58.8100 C.3       3 GLC5        0.0000 
     52 N           9.9090   23.3000   77.1930 N.am      2 SEC2        0.0000 
     53 N           9.1510   23.7110   78.4680 N.am      8 SEL2        0.0000 
     54 N          10.6670   22.8890   75.9180 N.am      5 SEP2        0.0000 
     55 O           7.9210   25.2190   80.3045 O.2       1 ALC1        0.0000 
     56 O           7.3540   24.8140   79.1590 O.2       7 ALL1        0.0000 
     57 O           8.4880   25.6240   81.4500 O.2       4 ALP1        0.0000 
     58 N           4.1840   25.8705   79.8840 N.am      2 SEC2        0.0000 
     59 N           5.5210   25.9200   79.8530 N.am      8 SEL2        0.0000 
     60 N           2.8470   25.8210   79.9150 N.am      5 SEP2        0.0000 
     61 N           3.5540   25.7420   78.6455 N.am      2 SEC2        0.0000 
     62 N           4.2610   25.6630   77.3760 N.am      8 SEL2        0.0000 
     63 CA          1.7365   26.6615   77.6945 C.3       3 GLC5        0.0000 
     64 CA          2.4400   26.0180   75.8150 C.3       9 GLL5        0.0000 
     65 CA          1.0330   27.3050   79.5740 C.3       6 GLP5        0.0000 
     66 CA         -1.1420   26.4925   73.1220 C.3       3 GLC5        0.0000 
     67 CA          0.5500   26.4180   74.1750 C.3       9 GLL5        0.0000 
     68 CA         -2.8340   26.5670   72.0690 C.3       6 GLP5        0.0000 
     69 CA         -0.1520   28.2345   74.1410 C.3       3 GLC5        0.0000 
     70 CA         -0.8540   30.0510   74.1070 C.3       6 GLP5        0.0000 
     71 CA          2.3285   23.3345   71.1770 C.3       3 GLC5        0.0000 
     72 CA          2.1510   25.1440   72.1130 C.3       9 GLL5        0.0000 
     73 CA          2.5060   21.5250   70.2410 C.3       6 GLP5        0.0000 
     74 CA          6.1305   26.0435   75.7800 C.3       3 GLC5        0.0000 
     75 CA          4.4500   24.8290   75.1320 C.3       9 GLL5        0.0000 
     76 CA          7.8110   27.2580   76.4280 C.3       6 GLP5        0.0000 
     77 CA          8.3145   26.1840   73.7750 C.3       3 GLC5        0.0000 
     78 CA          7.5730   24.0980   73.7870 C.3       9 GLL5        0.0000 
     79 CA          9.0560   28.2700   73.7630 C.3       6 GLP5        0.0000 
     80 CA          7.6920   25.6780   75.1075 C.3       3 GLC5        0.0000 
     81 CA          9.4000   24.6900   74.8050 C.3       3 GLC5        0.0000 
     82 CA         11.2270   25.2820   75.8230 C.3       6 GLP5        0.0000 
     83 O           8.7245   21.0120   72.3105 O.2       1 ALC1        0.0000 
     84 O           8.6070   21.9920   73.1870 O.2       7 ALL1        0.0000 
     85 O           8.8420   20.0320   71.4340 O.2       4 ALP1        0.0000 
     86 O           7.9620   21.5520   71.7695 O.2       1 ALC1        0.0000 
     87 O           7.3170   21.1120   70.3520 O.2       4 ALP1        0.0000 
     88 CA         10.5270   23.9065   73.7875 C.3       3 GLC5        0.0000 
     89 CA          9.3750   24.0020   72.0760 C.3       9 GLL5        0.0000 
     90 CA         11.6790   23.8110   75.4990 C.3       6 GLP5        0.0000 
     91 CA          9.2785   21.2585   70.1160 C.3       3 GLC5        0.0000 
     92 CA         10.0660   23.0390   71.1510 C.3       9 GLL5        0.0000 
     93 CA          8.4910   19.4780   69.0810 C.3       6 GLP5        0.0000 
     94 CA         12.0635   22.5280   71.6910 C.3       3 GLC5        0.0000 
     95 CA         14.0610   22.0170   72.2310 C.3       6 GLP5        0.0000 
     96 N          13.9660   24.2055   69.2950 N.am      2 SEC2        0.0000 
     97 N          12.7780   23.8340   68.5870 N.am      8 SEL2        0.0000 
     98 N          15.1540   24.5770   70.0030 N.am      5 SEP2        0.0000 
     99 N          11.1425   20.4140   69.0160 N.am      2 SEC2        0.0000 
    100 N          11.3900   21.7720   68.7630 N.am      8 SEL2        0.0000 
    101 N          10.8950   19.0560   69.2690 N.am      5 SEP2        0.0000 
    102 CA         11.7438   26.9925   66.3645 C.3       3 GLC5        0.0000 
    103 CA         12.8860   27.9120   67.8060 C.3       6 GLP5        0.0000 
    104 CA         10.8952   24.3415   63.8680 C.3       3 GLC5        0.0000 
    105 CA         11.1890   22.6100   62.8130 C.3       6 GLP5        0.0000 
    106 CA          9.5030   25.4390   56.9123 C.3       3 GLC5        0.0000 
    107 CA         10.4840   25.3360   58.9960 C.3       9 GLL5        0.0000 
    108 CA          8.2050   25.5790   55.4490 C.3       6 GLP5        0.0000 
    109 CA         11.3875   24.0525   59.7844 C.3       3 GLC5        0.0000 
    110 CA         11.9560   22.2830   60.4370 C.3       6 GLP5        0.0000 
    111 CA          3.3615   27.2873   74.9862 C.3       3 GLC5        0.0000 
    112 CA          3.7100   25.5030   76.1140 C.3       9 GLL5        0.0000 
    113 CA          3.6480   28.8140   74.0080 C.3       6 GLP5        0.0000 
    114 CA          4.2810   27.2982   76.6583 C.3       3 GLC5        0.0000 
    115 CA          5.4870   28.8360   77.3520 C.3       6 GLP5        0.0000 
    116 CA          2.4363   27.4748   74.1805 C.3       3 GLC5        0.0000 
    117 CA         -0.1181   26.0169   75.8095 C.3       3 GLC5        0.0000 
    118 CA         -1.5960   25.8570   76.9450 C.3       6 GLP5        0.0000 
    119 CA          3.0202   26.9895   73.4185 C.3       3 GLC5        0.0000 
    120 CA          4.0026   25.7457   71.9480 C.3       3 GLC5        0.0000 
    121 CA          2.6340   25.1860   73.5450 C.3       9 GLL5        0.0000 
    122 CA          4.8590   26.5690   70.5560 C.3       6 GLP5        0.0000 
    123 CA          3.9115   26.7843   74.2497 C.3       3 GLC5        0.0000 
    124 CA          3.9000   24.6800   73.8510 C.3       9 GLL5        0.0000 
    125 CA          8.5589   22.1504   74.7748 C.3       3 GLC5        0.0000 
    126 CA          6.4080   23.3670   74.4470 C.3       9 GLL5        0.0000 
    127 CA          9.5280   20.8040   76.1440 C.3       6 GLP5        0.0000 
    128 CA         11.4842   24.6313   71.8477 C.3       3 GLC5        0.0000 
    129 CA         13.2480   25.7420   72.0820 C.3       6 GLP5        0.0000 
@<TRIPOS>BOND
@<TRIPOS>SUBSTRUCTURE
     1 ALC1       19 GROUP        1 X    ALC  0     ROOT ALC X 1
     2 SEC2        1 GROUP        1 X    SEC  0     **** SEC X 2
     3 GLC5       10 GROUP        1 X    GLC  0     **** GLC X 6
     4 ALP1       21 GROUP        1 Y    ALP  0     ROOT ALP Y 8
     5 SEP2        3 GROUP        1 Y    SEP  0     **** SEP Y 9
     6 GLP5       12 GROUP        1 Y    GLP  0     **** GLP Y 13
     7 ALL1       20 GROUP        1 Z    ALL  0     ROOT ALL Z 15
     8 SEL2        2 GROUP        1 Z    SEL  0     **** SEL Z 16
     9 GLL5       11 GROUP        1 Z    GLL  0     **** GLL Z 20
@<TRIPOS>SET

