#    Name: 2r9z_FAD_2_ligand
#    Modification time : Mon Mar 24 23:31:39 2014

@<TRIPOS>MOLECULE
2r9z_FAD_2_ligand
   84    89     1     0     0
SMALL
NO_CHARGES


@<TRIPOS>ATOM
      1 PA          9.7680   25.4100   67.9320 P.3       1 FAD500      0.0000 
      2 O1A        10.1030   26.2060   69.1310 O.co2     1 FAD500      0.0000 
      3 O2A         8.2720   25.3030   67.6400 O.co2     1 FAD500      0.0000 
      4 O5B        10.6170   25.9650   66.7030 O.3       1 FAD500      0.0000 
      5 C5B        10.5160   25.4720   65.3870 C.3       1 FAD500      0.0000 
      6 C4B        10.6870   26.6740   64.4590 C.3       1 FAD500      0.0000 
      7 O4B        10.9160   26.2490   63.1070 O.3       1 FAD500      0.0000 
      8 C3B         9.4450   27.5500   64.4030 C.3       1 FAD500      0.0000 
      9 O3B         9.8940   28.8800   64.6600 O.3       1 FAD500      0.0000 
     10 C2B         8.9030   27.3870   62.9740 C.3       1 FAD500      0.0000 
     11 O2B         8.3860   28.5970   62.4760 O.3       1 FAD500      0.0000 
     12 C1B        10.1660   27.0380   62.1960 C.3       1 FAD500      0.0000 
     13 N9A        10.0580   26.1850   60.9880 N.pl3     1 FAD500      0.0000 
     14 C8A         9.2570   25.0850   60.7830 C.2       1 FAD500      0.0000 
     15 N7A         9.5040   24.5900   59.5640 N.2       1 FAD500      0.0000 
     16 C5A        10.4840   25.3360   58.9960 C.ar      1 FAD500      0.0000 
     17 C6A        11.1180   25.2620   57.7550 C.ar      1 FAD500      0.0000 
     18 N6A        11.0450   24.1410   57.0200 N.pl3     1 FAD500      0.0000 
     19 N1A        12.0790   26.1960   57.4620 N.ar      1 FAD500      0.0000 
     20 C2A        12.4210   27.1980   58.3580 C.ar      1 FAD500      0.0000 
     21 N3A        11.7820   27.2670   59.5880 N.ar      1 FAD500      0.0000 
     22 C4A        10.8370   26.3450   59.8880 C.ar      1 FAD500      0.0000 
     23 N1          7.4990   23.9790   76.9420 N.2       1 FAD500      0.0000 
     24 C2          8.0450   24.1480   78.1930 C.2       1 FAD500      0.0000 
     25 O2          9.1510   23.7110   78.4680 O.2       1 FAD500      0.0000 
     26 N3          7.3540   24.8140   79.1590 N.am      1 FAD500      0.0000 
     27 C4          6.0900   25.3270   78.9340 C.2       1 FAD500      0.0000 
     28 O4          5.5210   25.9200   79.8530 O.2       1 FAD500      0.0000 
     29 C4X         5.5140   25.1700   77.6600 C.2       1 FAD500      0.0000 
     30 N5          4.2610   25.6630   77.3760 N.2       1 FAD500      0.0000 
     31 C5X         3.7100   25.5030   76.1140 C.ar      1 FAD500      0.0000 
     32 C6          2.4400   26.0180   75.8150 C.ar      1 FAD500      0.0000 
     33 C7          1.8990   25.8530   74.5310 C.ar      1 FAD500      0.0000 
     34 C7M         0.5500   26.4180   74.1750 C.3       1 FAD500      0.0000 
     35 C8          2.6340   25.1860   73.5450 C.ar      1 FAD500      0.0000 
     36 C8M         2.1510   25.1440   72.1130 C.3       1 FAD500      0.0000 
     37 C9          3.9000   24.6800   73.8510 C.ar      1 FAD500      0.0000 
     38 C9A         4.4500   24.8290   75.1320 C.ar      1 FAD500      0.0000 
     39 N10         5.7180   24.3120   75.4160 N.pl3     1 FAD500      0.0000 
     40 C10         6.2420   24.4740   76.6670 C.2       1 FAD500      0.0000 
     41 C1'         6.4080   23.3670   74.4470 C.3       1 FAD500      0.0000 
     42 C2'         7.5730   24.0980   73.7870 C.3       1 FAD500      0.0000 
     43 O2'         7.0880   25.3150   73.2160 O.3       1 FAD500      0.0000 
     44 C3'         8.1890   23.2610   72.6940 C.3       1 FAD500      0.0000 
     45 O3'         8.6070   21.9920   73.1870 O.3       1 FAD500      0.0000 
     46 C4'         9.3750   24.0020   72.0760 C.3       1 FAD500      0.0000 
     47 O4'         9.0320   25.2460   71.4250 O.3       1 FAD500      0.0000 
     48 C5'        10.0660   23.0390   71.1510 C.3       1 FAD500      0.0000 
     49 O5'        11.1600   23.6410   70.5100 O.3       1 FAD500      0.0000 
     50 P          11.4290   23.2690   68.9980 P.3       1 FAD500      0.0000 
     51 O1P        12.7780   23.8340   68.5870 O.co2     1 FAD500      0.0000 
     52 O2P        11.3900   21.7720   68.7630 O.co2     1 FAD500      0.0000 
     53 O3P        10.2920   23.8950   68.0280 O.3       1 FAD500      0.0000 
     54 H           9.5463   25.0301   65.1803 H         1 FAD500      0.0000 
     55 H          11.2967   24.7564   65.1485 H         1 FAD500      0.0000 
     56 H          11.5077   27.2784   64.8055 H         1 FAD500      0.0000 
     57 H           8.7482   27.1925   65.0928 H         1 FAD500      0.0000 
     58 H           8.2565   26.5708   62.9464 H         1 FAD500      0.0000 
     59 H          10.7139   27.9343   61.9841 H         1 FAD500      0.0000 
     60 H           8.6252   24.7424   61.4282 H         1 FAD500      0.0000 
     61 H          11.5335   24.1543   56.1476 H         1 FAD500      0.0000 
     62 H          10.5086   23.3929   57.4106 H         1 FAD500      0.0000 
     63 H          13.1434   27.8856   58.1128 H         1 FAD500      0.0000 
     64 H           7.7858   24.9465   80.1051 H         1 FAD500      0.0000 
     65 H           1.9067   26.5152   76.5349 H         1 FAD500      0.0000 
     66 H           4.4418   24.1872   73.1221 H         1 FAD500      0.0000 
     67 H           5.7062   23.0504   73.6866 H         1 FAD500      0.0000 
     68 H           6.7830   22.5059   74.9844 H         1 FAD500      0.0000 
     69 H           8.3183   24.2966   74.5373 H         1 FAD500      0.0000 
     70 H           7.4426   23.1394   71.9037 H         1 FAD500      0.0000 
     71 H          10.0844   24.1936   72.9106 H         1 FAD500      0.0000 
     72 H           9.3150   22.6708   70.4237 H         1 FAD500      0.0000 
     73 H          10.3737   22.1577   71.7487 H         1 FAD500      0.0000 
     74 H           0.5239   27.4120   74.2812 H         1 FAD500      0.0000 
     75 H           0.3019   26.2179   73.2272 H         1 FAD500      0.0000 
     76 H          -0.1743   26.0424   74.7532 H         1 FAD500      0.0000 
     77 H           2.0675   26.0607   71.7222 H         1 FAD500      0.0000 
     78 H           2.7761   24.6305   71.5251 H         1 FAD500      0.0000 
     79 H           1.2534   24.7099   72.0364 H         1 FAD500      0.0000 
     80 H          10.6591   29.0207   64.0317 H         1 FAD500      0.0000 
     81 H           9.1762   29.2054   62.4031 H         1 FAD500      0.0000 
     82 H           7.3690   25.2808   72.2569 H         1 FAD500      0.0000 
     83 H           8.6062   21.3909   72.3878 H         1 FAD500      0.0000 
     84 H           9.6044   25.2756   70.6056 H         1 FAD500      0.0000 
@<TRIPOS>BOND
     1    2    1 ar   
     2    3    1 ar   
     3    4    1 1    
     4   53    1 1    
     5    5    4 1    
     6    6    5 1    
     7   54    5 1    
     8   55    5 1    
     9    7    6 1    
    10    8    6 1    
    11   56    6 1    
    12   12    7 1    
    13    9    8 1    
    14   10    8 1    
    15   57    8 1    
    16   80    9 1    
    17   11   10 1    
    18   12   10 1    
    19   58   10 1    
    20   81   11 1    
    21   13   12 1    
    22   59   12 1    
    23   14   13 1    
    24   22   13 1    
    25   15   14 2    
    26   60   14 1    
    27   16   15 1    
    28   17   16 ar   
    29   22   16 ar   
    30   18   17 1    
    31   19   17 ar   
    32   61   18 1    
    33   62   18 1    
    34   20   19 ar   
    35   21   20 ar   
    36   63   20 1    
    37   22   21 ar   
    38   24   23 1    
    39   40   23 2    
    40   25   24 2    
    41   26   24 am   
    42   27   26 am   
    43   64   26 1    
    44   28   27 2    
    45   29   27 1    
    46   30   29 2    
    47   40   29 1    
    48   31   30 1    
    49   32   31 ar   
    50   38   31 ar   
    51   33   32 ar   
    52   65   32 1    
    53   34   33 1    
    54   35   33 ar   
    55   74   34 1    
    56   75   34 1    
    57   76   34 1    
    58   36   35 1    
    59   37   35 ar   
    60   77   36 1    
    61   78   36 1    
    62   79   36 1    
    63   38   37 ar   
    64   66   37 1    
    65   39   38 1    
    66   40   39 1    
    67   41   39 1    
    68   42   41 1    
    69   67   41 1    
    70   68   41 1    
    71   43   42 1    
    72   44   42 1    
    73   69   42 1    
    74   82   43 1    
    75   45   44 1    
    76   46   44 1    
    77   70   44 1    
    78   83   45 1    
    79   47   46 1    
    80   48   46 1    
    81   71   46 1    
    82   84   47 1    
    83   49   48 1    
    84   72   48 1    
    85   73   48 1    
    86   50   49 1    
    87   51   50 ar   
    88   52   50 ar   
    89   53   50 1    
@<TRIPOS>SUBSTRUCTURE
     1 FAD500      1 GROUP   
@<TRIPOS>SET

