#    Name: 2chg_ANP_3_INTS_M
#    Modification time : Mon Mar 24 23:49:00 2014

@<TRIPOS>MOLECULE
2chg_ANP_3_INTS_M
   73     0    15     0     0
SMALL
NO_CHARGES


@<TRIPOS>ATOM
      1 Zn        -34.3095   -0.3830   43.4610 Zn        4 ZIC7        0.0000 
      2 Zn        -35.0650    0.4190   43.3560 Zn       14 ZIL7        0.0000 
      3 Zn        -33.5540   -1.1850   43.5660 Zn        9 ZIP7        0.0000 
      4 N         -35.9185    0.7280   44.4275 N.am      2 SEC2        0.0000 
      5 N         -35.0650    0.4190   43.3560 N.am     12 SEL2        0.0000 
      6 N         -36.7720    1.0370   45.4990 N.am      7 SEP2        0.0000 
      7 N         -35.7455    0.9575   39.4835 N.am      2 SEC2        0.0000 
      8 N         -35.1810    0.6040   40.9100 N.am     12 SEL2        0.0000 
      9 N         -36.3100    1.3110   38.0570 N.am      7 SEP2        0.0000 
     10 N         -34.6500    0.0905   39.7200 N.am      2 SEC2        0.0000 
     11 N         -34.1190   -0.4230   38.5300 N.am      7 SEP2        0.0000 
     12 NZ        -36.1150    3.0915   42.6980 N.4       3 LYC4        0.0000 
     13 NZ        -36.9650    1.7550   42.2790 N.4      13 LYL4        0.0000 
     14 NZ        -35.2650    4.4280   43.1170 N.4       8 LYP4        0.0000 
     15 N         -36.8685    1.3960   43.8890 N.am      2 SEC2        0.0000 
     16 N         -36.9650    1.7550   42.2790 N.am     12 SEL2        0.0000 
     17 N         -38.4430    1.7755   42.1265 N.am      2 SEC2        0.0000 
     18 N         -39.9210    1.7960   41.9740 N.am      7 SEP2        0.0000 
     19 N         -37.5625    2.1905   41.0785 N.am      2 SEC2        0.0000 
     20 N         -38.1600    2.6260   39.8780 N.am      7 SEP2        0.0000 
     21 N         -36.1150    3.0915   42.6980 N.am      2 SEC2        0.0000 
     22 N         -35.2650    4.4280   43.1170 N.am      7 SEP2        0.0000 
     23 Zn        -34.3475   -1.7540   43.0690 Zn        4 ZIC7        0.0000 
     24 Zn        -35.1410   -2.3230   42.5720 Zn       14 ZIL7        0.0000 
     25 NZ        -37.7145   -4.8960   37.8225 N.4       3 LYC4        0.0000 
     26 NZ        -37.6520   -3.5960   38.5190 N.4      13 LYL4        0.0000 
     27 NZ        -38.4650   -5.7420   36.0970 N.4       8 LYP4        0.0000 
     28 N         -38.1885   -4.0185   37.2680 N.am      2 SEC2        0.0000 
     29 N         -37.6520   -3.5960   38.5190 N.am     12 SEL2        0.0000 
     30 N         -38.7250   -4.4410   36.0170 N.am      7 SEP2        0.0000 
     31 N         -37.7145   -4.8960   37.8225 N.am      2 SEC2        0.0000 
     32 N         -37.7770   -6.1960   37.1260 N.am      7 SEP2        0.0000 
     33 N         -38.2900   -0.9200   38.2735 N.am      2 SEC2        0.0000 
     34 N         -38.4160   -1.3330   39.6640 N.am     12 SEL2        0.0000 
     35 N         -38.1640   -0.5070   36.8830 N.am      7 SEP2        0.0000 
     36 CA        -38.9525   -5.6290   42.6740 C.3       5 GLC5        0.0000 
     37 CA        -39.0600   -5.0150   40.5280 C.3      15 GLL5        0.0000 
     38 CA        -38.8450   -6.2430   44.8200 C.3      10 GLP5        0.0000 
     39 CA        -40.5410   -7.4470   41.4195 C.3       5 GLC5        0.0000 
     40 CA        -40.4770   -5.5770   40.6260 C.3      15 GLL5        0.0000 
     41 CA        -40.6050   -9.3170   42.2130 C.3      10 GLP5        0.0000 
     42 CA        -43.1895   -4.2950   37.7400 C.3       5 GLC5        0.0000 
     43 CA        -42.3760   -4.8030   39.3690 C.3      15 GLL5        0.0000 
     44 CA        -44.0030   -3.7870   36.1110 C.3      10 GLP5        0.0000 
     45 CA        -42.9785   -4.0565   42.4930 C.3       5 GLC5        0.0000 
     46 CA        -42.5310   -4.4150   40.8220 C.3      15 GLL5        0.0000 
     47 CA        -43.4260   -3.6980   44.1640 C.3      10 GLP5        0.0000 
     48 CA        -43.6265   -5.9340   41.6415 C.3       5 GLC5        0.0000 
     49 CA        -44.7220   -7.4530   42.4610 C.3      10 GLP5        0.0000 
     50 CA        -44.4465    1.6115   38.8860 C.3       5 GLC5        0.0000 
     51 CA        -44.3100    0.2530   40.4350 C.3      15 GLL5        0.0000 
     52 CA        -44.5830    2.9700   37.3370 C.3      10 GLP5        0.0000 
     53 O         -45.3120    2.2110   40.8635 O.2       1 ALC1        0.0000 
     54 O         -44.0720    1.5550   40.7760 O.2      11 ALL1        0.0000 
     55 O         -46.5520    2.8670   40.9510 O.2       6 ALP1        0.0000 
     56 O         -42.9845    2.2205   41.5105 O.2       1 ALC1        0.0000 
     57 O         -41.8970    2.8860   42.2450 O.2       6 ALP1        0.0000 
     58 N         -46.3700    0.8030   39.1770 N.am      2 SEC2        0.0000 
     59 N         -45.4070   -0.1340   39.7460 N.am     12 SEL2        0.0000 
     60 N         -47.3330    1.7400   38.6080 N.am      7 SEP2        0.0000 
     61 CA        -45.0695   -1.9075   37.6385 C.3       5 GLC5        0.0000 
     62 CA        -45.6570   -1.4300   39.4200 C.3      15 GLL5        0.0000 
     63 CA        -44.4820   -2.3850   35.8570 C.3      10 GLP5        0.0000 
     64 CA        -45.9940   -0.0800   37.9525 C.3       5 GLC5        0.0000 
     65 CA        -46.3310    1.2700   36.4850 C.3      10 GLP5        0.0000 
     66 CA        -47.3670   -0.2660   39.7260 C.3       5 GLC5        0.0000 
     67 CA        -49.0770    0.8980   40.0320 C.3      10 GLP5        0.0000 
     68 CA        -42.4997   -5.9068   37.4832 C.3       5 GLC5        0.0000 
     69 CA        -43.2310   -6.5880   35.6370 C.3      10 GLP5        0.0000 
     70 CA        -42.0048    0.5737   40.6145 C.3       5 GLC5        0.0000 
     71 CA        -43.3750   -0.8120   40.8290 C.3      15 GLL5        0.0000 
     72 CA        -40.1670    1.4270   40.5970 C.3      10 GLP5        0.0000 
     73 CA        -43.4788   -2.5997   42.4020 C.3       5 GLC5        0.0000 
@<TRIPOS>BOND
@<TRIPOS>SUBSTRUCTURE
     1 ALC1       53 GROUP        1 X    ALC  0     ROOT ALC X 1
     2 SEC2        4 GROUP        1 X    SEC  0     **** SEC X 2
     3 LYC4       12 GROUP        1 X    LYC  0     **** LYC X 4
     4 ZIC7        1 GROUP        1 X    ZIC  0     **** ZIC X 5
     5 GLC5       36 GROUP        1 X    GLC  0     **** GLC X 6
     6 ALP1       55 GROUP        1 Y    ALP  0     ROOT ALP Y 8
     7 SEP2        6 GROUP        1 Y    SEP  0     **** SEP Y 9
     8 LYP4       14 GROUP        1 Y    LYP  0     **** LYP Y 11
     9 ZIP7        3 GROUP        1 Y    ZIP  0     **** ZIP Y 12
    10 GLP5       38 GROUP        1 Y    GLP  0     **** GLP Y 13
    11 ALL1       54 GROUP        1 Z    ALL  0     ROOT ALL Z 15
    12 SEL2        5 GROUP        1 Z    SEL  0     **** SEL Z 16
    13 LYL4       13 GROUP        1 Z    LYL  0     **** LYL Z 18
    14 ZIL7        2 GROUP        1 Z    ZIL  0     **** ZIL Z 19
    15 GLL5       37 GROUP        1 Z    GLL  0     **** GLL Z 20
@<TRIPOS>SET

