#    Name: 2chg_ANP_3_ligand
#    Modification time : Mon Mar 24 23:49:00 2014

@<TRIPOS>MOLECULE
2chg_ANP_3_ligand
   43    45     1     0     0
SMALL
NO_CHARGES


@<TRIPOS>ATOM
      1 PG        -35.9780    0.6120   42.1930 P.3       1 ANP1225     0.0000 
      2 O1G       -35.0650    0.4190   43.3560 O.co2     1 ANP1225     0.0000 
      3 O2G       -35.1810    0.6040   40.9100 O.co2     1 ANP1225     0.0000 
      4 O3G       -36.9650    1.7550   42.2790 O.co2     1 ANP1225     0.0000 
      5 PB        -36.5840   -2.2130   42.2260 P.3       1 ANP1225     0.0000 
      6 O1B       -37.5360   -2.9130   43.1630 O.co2     1 ANP1225     0.0000 
      7 O2B       -35.1410   -2.3230   42.5720 O.co2     1 ANP1225     0.0000 
      8 N3B       -36.9720   -0.6550   42.1470 N.4       1 ANP1225     0.0000 
      9 PA        -37.9680   -2.7780   39.7370 P.3       1 ANP1225     0.0000 
     10 O1A       -37.6520   -3.5960   38.5190 O.co2     1 ANP1225     0.0000 
     11 O2A       -38.4160   -1.3330   39.6640 O.co2     1 ANP1225     0.0000 
     12 O3A       -36.7400   -2.9640   40.7940 O.3       1 ANP1225     0.0000 
     13 O5'       -39.1110   -3.5970   40.4990 O.3       1 ANP1225     0.0000 
     14 C5'       -39.0600   -5.0150   40.5280 C.3       1 ANP1225     0.0000 
     15 C4'       -40.4770   -5.5770   40.6260 C.3       1 ANP1225     0.0000 
     16 O4'       -41.3420   -4.8300   41.4920 O.3       1 ANP1225     0.0000 
     17 C3'       -41.1610   -5.6480   39.2900 C.3       1 ANP1225     0.0000 
     18 O3'       -41.8400   -6.8990   39.3620 O.3       1 ANP1225     0.0000 
     19 C2'       -42.3760   -4.8030   39.3690 C.3       1 ANP1225     0.0000 
     20 O2'       -43.4150   -5.7450   39.0670 O.3       1 ANP1225     0.0000 
     21 C1'       -42.5310   -4.4150   40.8220 C.3       1 ANP1225     0.0000 
     22 N9        -42.6860   -2.9420   40.9400 N.pl3     1 ANP1225     0.0000 
     23 C8        -41.8110   -2.1410   41.5650 C.2       1 ANP1225     0.0000 
     24 N7        -42.2300   -0.8560   41.5070 N.2       1 ANP1225     0.0000 
     25 C5        -43.3750   -0.8120   40.8290 C.ar      1 ANP1225     0.0000 
     26 C6        -44.3100    0.2530   40.4350 C.ar      1 ANP1225     0.0000 
     27 N6        -44.0720    1.5550   40.7760 N.pl3     1 ANP1225     0.0000 
     28 N1        -45.4070   -0.1340   39.7460 N.ar      1 ANP1225     0.0000 
     29 C2        -45.6570   -1.4300   39.4200 C.ar      1 ANP1225     0.0000 
     30 N3        -44.8370   -2.4320   39.7610 N.ar      1 ANP1225     0.0000 
     31 C4        -43.6880   -2.1910   40.4510 C.ar      1 ANP1225     0.0000 
     32 H         -38.4942   -5.3883   41.3902 H         1 ANP1225     0.0000 
     33 H         -38.6007   -5.4283   39.6219 H         1 ANP1225     0.0000 
     34 H         -40.4024   -6.6150   40.9986 H         1 ANP1225     0.0000 
     35 H         -40.6095   -5.5082   38.5160 H         1 ANP1225     0.0000 
     36 H         -42.3360   -4.0094   38.7517 H         1 ANP1225     0.0000 
     37 H         -43.3915   -4.9089   41.2162 H         1 ANP1225     0.0000 
     38 H         -40.9871   -2.4364   42.0017 H         1 ANP1225     0.0000 
     39 H         -44.8787    2.1359   40.8843 H         1 ANP1225     0.0000 
     40 H         -43.1121    1.8124   40.8872 H         1 ANP1225     0.0000 
     41 H         -46.5393   -1.6470   38.8735 H         1 ANP1225     0.0000 
     42 H         -41.8889   -7.2216   38.4167 H         1 ANP1225     0.0000 
     43 H         -44.2567   -5.2054   39.0508 H         1 ANP1225     0.0000 
@<TRIPOS>BOND
     1    2    1 ar   
     2    3    1 ar   
     3    4    1 ar   
     4    8    1 1    
     5    6    5 ar   
     6    7    5 ar   
     7    8    5 1    
     8   12    5 1    
     9   10    9 ar   
    10   11    9 ar   
    11   12    9 1    
    12   13    9 1    
    13   14   13 1    
    14   15   14 1    
    15   32   14 1    
    16   33   14 1    
    17   16   15 1    
    18   17   15 1    
    19   34   15 1    
    20   21   16 1    
    21   18   17 1    
    22   19   17 1    
    23   35   17 1    
    24   42   18 1    
    25   20   19 1    
    26   21   19 1    
    27   36   19 1    
    28   43   20 1    
    29   22   21 1    
    30   37   21 1    
    31   23   22 1    
    32   31   22 1    
    33   24   23 2    
    34   38   23 1    
    35   25   24 1    
    36   26   25 ar   
    37   31   25 ar   
    38   27   26 1    
    39   28   26 ar   
    40   39   27 1    
    41   40   27 1    
    42   29   28 ar   
    43   30   29 ar   
    44   41   29 1    
    45   31   30 ar   
@<TRIPOS>SUBSTRUCTURE
     1 ANP1225     1 GROUP   
@<TRIPOS>SET

