#    Name: 4h3i_10V_2_INTS_M
#    Modification time : Tue Mar 25 00:15:45 2014

@<TRIPOS>MOLECULE
4h3i_10V_2_INTS_M
   63     0     9     0     0
SMALL
NO_CHARGES


@<TRIPOS>ATOM
      1 CA         12.0205   34.7585   54.1270 C.3       3 GLC5        0.0000 
      2 CA         14.0820   34.5500   54.5770 C.3       9 GLL5        0.0000 
      3 CA          9.9590   34.9670   53.6770 C.3       6 GLP5        0.0000 
      4 CA         16.6420   36.0510   57.4265 C.3       3 GLC5        0.0000 
      5 CA         16.2580   34.7250   55.7080 C.3       9 GLL5        0.0000 
      6 CA         17.0260   37.3770   59.1450 C.3       6 GLP5        0.0000 
      7 CA         20.7315   35.9550   53.9025 C.3       3 GLC5        0.0000 
      8 CA         20.9220   33.7310   53.8770 C.3       9 GLL5        0.0000 
      9 CA         20.5410   38.1790   53.9280 C.3       6 GLP5        0.0000 
     10 CA         22.5850   31.7345   55.9425 C.3       3 GLC5        0.0000 
     11 CA         22.4180   33.4530   56.9210 C.3       9 GLL5        0.0000 
     12 CA         22.7520   30.0160   54.9640 C.3       6 GLP5        0.0000 
     13 OD1        20.8445   37.1470   58.3645 O.co2     2 ASC3        0.0000 
     14 OD1        20.8510   35.1260   58.6630 O.co2     8 ASL3        0.0000 
     15 OD1        19.9920   38.6440   58.8190 O.co2     5 ASP3        0.0000 
     16 OD1        21.3590   38.3210   57.1760 O.co2     5 ASP3        0.0000 
     17 OD1        19.8635   35.8435   60.8280 O.co2     2 ASC3        0.0000 
     18 OD1        19.3970   35.7140   62.1030 O.co2     5 ASP3        0.0000 
     19 O          21.3565   36.9690   57.3295 O.2       1 ALC1        0.0000 
     20 O          21.3540   35.6170   57.4830 O.2       7 ALL1        0.0000 
     21 O          21.3590   38.3210   57.1760 O.2       4 ALP1        0.0000 
     22 O          20.1610   37.3085   59.1860 O.2       1 ALC1        0.0000 
     23 O          20.3300   35.9730   59.5530 O.2       7 ALL1        0.0000 
     24 O          19.9920   38.6440   58.8190 O.2       4 ALP1        0.0000 
     25 O          20.8445   37.1470   58.3645 O.2       1 ALC1        0.0000 
     26 O          19.8635   35.8435   60.8280 O.2       1 ALC1        0.0000 
     27 O          19.3970   35.7140   62.1030 O.2       4 ALP1        0.0000 
     28 CA         23.7825   37.0225   56.6470 C.3       3 GLC5        0.0000 
     29 CA         23.0270   35.4860   55.7070 C.3       9 GLL5        0.0000 
     30 CA         24.5380   38.5590   57.5870 C.3       6 GLP5        0.0000 
     31 CA         15.6155   36.3085   58.0475 C.3       3 GLC5        0.0000 
     32 CA         14.2050   35.2400   56.9500 C.3       9 GLL5        0.0000 
     33 CA         24.5120   31.9335   56.4960 C.3       3 GLC5        0.0000 
     34 CA         23.8720   33.7780   57.2520 C.3       9 GLL5        0.0000 
     35 CA         25.1520   30.0890   55.7400 C.3       6 GLP5        0.0000 
     36 CA         26.7000   34.3870   54.7195 C.3       3 GLC5        0.0000 
     37 CA         25.4980   35.4210   56.1690 C.3       9 GLL5        0.0000 
     38 CA         27.9020   33.3530   53.2700 C.3       6 GLP5        0.0000 
     39 CA         25.7620   37.4665   56.0885 C.3       3 GLC5        0.0000 
     40 CA         26.9860   36.3740   54.5900 C.3       9 GLL5        0.0000 
     41 CA         27.3795   38.4230   53.8860 C.3       3 GLC5        0.0000 
     42 CA         27.7730   40.4720   53.1820 C.3       6 GLP5        0.0000 
     43 CA         26.5260   35.6925   61.5175 C.3       3 GLC5        0.0000 
     44 CA         27.1600   35.1810   59.5730 C.3       9 GLL5        0.0000 
     45 CA         25.8920   36.2040   63.4620 C.3       6 GLP5        0.0000 
     46 CA         15.5668   36.1365   53.8515 C.3       3 GLC5        0.0000 
     47 CA         16.7130   37.9210   53.7150 C.3       6 GLP5        0.0000 
     48 CA         16.1333   36.3505   54.7175 C.3       3 GLC5        0.0000 
     49 CA         14.8490   34.8350   55.7320 C.3       9 GLL5        0.0000 
     50 CA         17.1135   36.0627   53.9826 C.3       3 GLC5        0.0000 
     51 CA         16.9540   34.3320   54.5370 C.3       9 GLL5        0.0000 
     52 CA         20.2665   36.3560   54.7210 C.3       3 GLC5        0.0000 
     53 CA         19.2810   34.6360   55.6200 C.3       9 GLL5        0.0000 
     54 CA         21.4845   36.6522   54.9815 C.3       3 GLC5        0.0000 
     55 CA         21.8290   34.7650   56.3630 C.3       9 GLL5        0.0000 
     56 CA         13.0086   36.3506   55.8331 C.3       3 GLC5        0.0000 
     57 CA         11.6820   37.7350   55.6140 C.3       6 GLP5        0.0000 
     58 CA         25.4305   37.0721   57.0898 C.3       3 GLC5        0.0000 
     59 CA         26.5130   35.4810   57.2010 C.3       9 GLL5        0.0000 
     60 CA         27.6733   34.8305   54.3269 C.3       3 GLC5        0.0000 
     61 CA         27.7830   36.0180   56.8310 C.3       9 GLL5        0.0000 
     62 CA         29.4078   36.2415   55.2899 C.3       3 GLC5        0.0000 
     63 CA         31.3710   36.1750   55.1960 C.3       6 GLP5        0.0000 
@<TRIPOS>BOND
@<TRIPOS>SUBSTRUCTURE
     1 ALC1       19 GROUP        1 X    ALC  0     ROOT ALC X 1
     2 ASC3       13 GROUP        1 X    ASC  0     **** ASC X 3
     3 GLC5        1 GROUP        1 X    GLC  0     **** GLC X 6
     4 ALP1       21 GROUP        1 Y    ALP  0     ROOT ALP Y 8
     5 ASP3       15 GROUP        1 Y    ASP  0     **** ASP Y 10
     6 GLP5        3 GROUP        1 Y    GLP  0     **** GLP Y 13
     7 ALL1       20 GROUP        1 Z    ALL  0     ROOT ALL Z 15
     8 ASL3       14 GROUP        1 Z    ASL  0     **** ASL Z 17
     9 GLL5        2 GROUP        1 Z    GLL  0     **** GLL Z 20
@<TRIPOS>SET

