#    Name: 4h3i_10V_2_ligand
#    Modification time : Tue Mar 25 00:15:45 2014

@<TRIPOS>MOLECULE
4h3i_10V_2_ligand
   56    60     1     0     0
SMALL
NO_CHARGES


@<TRIPOS>ATOM
      1 C1         14.7590   34.1540   53.3990 C.ar      1 10V503      0.0000 
      2 C2         14.0820   34.5500   54.5770 C.ar      1 10V503      0.0000 
      3 C3         14.8490   34.8350   55.7320 C.ar      1 10V503      0.0000 
      4 C4         16.2580   34.7250   55.7080 C.ar      1 10V503      0.0000 
      5 C5         16.9540   34.3320   54.5370 C.ar      1 10V503      0.0000 
      6 C6         16.1760   34.0480   53.3840 C.ar      1 10V503      0.0000 
      7 C7         18.4630   34.2190   54.5400 C.2       1 10V503      0.0000 
      8 C8         19.2810   34.6360   55.6200 C.2       1 10V503      0.0000 
      9 C9         20.7030   34.4300   55.4080 C.2       1 10V503      0.0000 
     10 S1         20.9220   33.7310   53.8770 S.3       1 10V503      0.0000 
     11 C10        19.2490   33.6940   53.4970 C.2       1 10V503      0.0000 
     12 C11        21.8290   34.7650   56.3630 C.3       1 10V503      0.0000 
     13 C12        22.4180   33.4530   56.9210 C.3       1 10V503      0.0000 
     14 C13        21.6450   32.8610   58.1400 C.2       1 10V503      0.0000 
     15 N1         20.8930   33.7570   58.9090 N.am      1 10V503      0.0000 
     16 C14        20.8510   35.1260   58.6630 C.cat     1 10V503      0.0000 
     17 N2         21.3540   35.6170   57.4830 N.pl3     1 10V503      0.0000 
     18 N3         20.3300   35.9730   59.5530 N.pl3     1 10V503      0.0000 
     19 C15        23.0270   35.4860   55.7070 C.3       1 10V503      0.0000 
     20 C16        20.1220   33.1510   60.0360 C.3       1 10V503      0.0000 
     21 O1         21.7110   31.6620   58.3830 O.2       1 10V503      0.0000 
     22 C17        14.2050   35.2400   56.9500 C.1       1 10V503      0.0000 
     23 N4         13.7130   35.5690   57.9450 N.1       1 10V503      0.0000 
     24 C18        23.8720   33.7780   57.2520 C.3       1 10V503      0.0000 
     25 N5         24.2010   34.9190   56.3800 N.3       1 10V503      0.0000 
     26 C19        27.7830   36.0180   56.8310 C.ar      1 10V503      0.0000 
     27 C20        26.5130   35.4810   57.2010 C.ar      1 10V503      0.0000 
     28 C21        25.4980   35.4210   56.1690 C.ar      1 10V503      0.0000 
     29 C23        26.9860   36.3740   54.5900 C.ar      1 10V503      0.0000 
     30 C24        28.0230   36.4660   55.5240 C.ar      1 10V503      0.0000 
     31 C25        27.1600   35.1810   59.5730 C.3       1 10V503      0.0000 
     32 O2         26.2280   35.0170   58.5120 O.3       1 10V503      0.0000 
     33 N6         25.7680   35.8680   54.9050 N.ar      1 10V503      0.0000 
     34 H          14.2274   33.9422   52.5519 H         1 10V503      0.0000 
     35 H          13.0761   34.6274   54.5933 H         1 10V503      0.0000 
     36 H          16.7953   34.9356   56.5634 H         1 10V503      0.0000 
     37 H          16.6488   33.7585   52.5167 H         1 10V503      0.0000 
     38 H          18.9361   35.0288   56.4409 H         1 10V503      0.0000 
     39 H          19.0489   33.3431   52.6713 H         1 10V503      0.0000 
     40 H          22.4213   32.7253   56.1137 H         1 10V503      0.0000 
     41 H          21.4254   36.6476   57.3197 H         1 10V503      0.0000 
     42 H          19.9272   35.5602   60.3699 H         1 10V503      0.0000 
     43 H          20.3892   36.9444   59.3230 H         1 10V503      0.0000 
     44 H          22.9344   36.5327   55.8943 H         1 10V503      0.0000 
     45 H          23.0258   35.2611   54.6636 H         1 10V503      0.0000 
     46 H          24.4793   32.9286   57.0211 H         1 10V503      0.0000 
     47 H          23.9413   34.0490   58.2841 H         1 10V503      0.0000 
     48 H          28.5240   36.0723   57.5398 H         1 10V503      0.0000 
     49 H          27.1753   36.7135   53.6152 H         1 10V503      0.0000 
     50 H          28.9255   36.8465   55.2645 H         1 10V503      0.0000 
     51 H          20.7216   32.6923   60.6918 H         1 10V503      0.0000 
     52 H          19.6040   33.8392   60.5440 H         1 10V503      0.0000 
     53 H          19.4654   32.4696   59.7127 H         1 10V503      0.0000 
     54 H          28.0283   34.7248   59.3784 H         1 10V503      0.0000 
     55 H          27.3665   36.1450   59.7403 H         1 10V503      0.0000 
     56 H          26.8156   34.8017   60.4318 H         1 10V503      0.0000 
@<TRIPOS>BOND
     1    2    1 ar   
     2    6    1 ar   
     3   34    1 1    
     4    3    2 ar   
     5   35    2 1    
     6    4    3 ar   
     7   22    3 1    
     8    5    4 ar   
     9   36    4 1    
    10    6    5 ar   
    11    7    5 1    
    12   37    6 1    
    13    8    7 1    
    14   11    7 2    
    15    9    8 2    
    16   38    8 1    
    17   10    9 1    
    18   12    9 1    
    19   11   10 1    
    20   39   11 1    
    21   13   12 1    
    22   17   12 1    
    23   19   12 1    
    24   14   13 1    
    25   24   13 1    
    26   40   13 1    
    27   15   14 am   
    28   21   14 2    
    29   16   15 ar   
    30   20   15 1    
    31   17   16 ar   
    32   18   16 ar   
    33   41   17 1    
    34   42   18 1    
    35   43   18 1    
    36   25   19 1    
    37   44   19 1    
    38   45   19 1    
    39   51   20 1    
    40   52   20 1    
    41   53   20 1    
    42   23   22 3    
    43   25   24 1    
    44   46   24 1    
    45   47   24 1    
    46   28   25 1    
    47   27   26 ar   
    48   30   26 ar   
    49   48   26 1    
    50   28   27 ar   
    51   32   27 1    
    52   33   28 ar   
    53   30   29 ar   
    54   33   29 ar   
    55   49   29 1    
    56   50   30 1    
    57   32   31 1    
    58   54   31 1    
    59   55   31 1    
    60   56   31 1    
@<TRIPOS>SUBSTRUCTURE
     1 10V503      1 GROUP   
@<TRIPOS>SET

