#    Name: 2d1q_AMP_1_INTS_M
#    Modification time : Tue Mar 25 01:30:38 2014

@<TRIPOS>MOLECULE
2d1q_AMP_1_INTS_M
   59     0    12     0     0
SMALL
NO_CHARGES


@<TRIPOS>ATOM
      1 N          13.8095   27.9840   10.3505 N.am      2 SEC2        0.0000 
      2 N          14.3520   28.4560   11.5520 N.am     10 SEL2        0.0000 
      3 N          13.2670   27.5120    9.1490 N.am      6 SEP2        0.0000 
      4 N          13.1810   27.8385   11.6785 N.am      2 SEC2        0.0000 
      5 N          12.0100   27.2210   11.8050 N.am      6 SEP2        0.0000 
      6 NZ         16.5540   31.1420   13.6520 N.4       3 LYC4        0.0000 
      7 NZ         15.2550   30.4800   12.5190 N.4      11 LYL4        0.0000 
      8 NZ         17.8530   31.8040   14.7850 N.4       7 LYP4        0.0000 
      9 N          14.4720   28.7170   15.0045 N.am      2 SEC2        0.0000 
     10 N          15.2490   28.3760   13.8510 N.am     10 SEL2        0.0000 
     11 N          13.6950   29.0580   16.1580 N.am      6 SEP2        0.0000 
     12 N          15.9180   28.5410   15.1095 N.am      2 SEC2        0.0000 
     13 N          16.5870   28.7060   16.3680 N.am      6 SEP2        0.0000 
     14 N          14.8785   27.0625   14.1120 N.am      2 SEC2        0.0000 
     15 N          14.5080   25.7490   14.3730 N.am      6 SEP2        0.0000 
     16 CA         16.2470   28.4470    9.1950 C.3       4 GLC5        0.0000 
     17 CA         17.2770   29.0100   10.6380 C.3      12 GLL5        0.0000 
     18 CA         15.2170   27.8840    7.7520 C.3       8 GLP5        0.0000 
     19 CA         19.2460   30.1150   12.5490 C.3       4 GLC5        0.0000 
     20 CA         18.5940   29.7500   10.7640 C.3      12 GLL5        0.0000 
     21 CA         19.8980   30.4800   14.3340 C.3       8 GLP5        0.0000 
     22 CA         17.5715   30.2045    8.1405 C.3       4 GLC5        0.0000 
     23 CA         19.1730   30.1480    9.4100 C.3      12 GLL5        0.0000 
     24 CA         15.9700   30.2610    6.8710 C.3       8 GLP5        0.0000 
     25 O          19.7495   32.3520    8.6185 O.2       1 ALC1        0.0000 
     26 O          18.5920   31.3580    8.9380 O.2       9 ALL1        0.0000 
     27 O          20.9070   33.3460    8.2990 O.2       5 ALP1        0.0000 
     28 O          19.2710   31.6690    7.9455 O.2       1 ALC1        0.0000 
     29 O          19.9500   31.9800    6.9530 O.2       5 ALP1        0.0000 
     30 O          20.8230   32.4805    9.3195 O.2       1 ALC1        0.0000 
     31 O          20.7390   31.6150   10.3400 O.2       9 ALL1        0.0000 
     32 O          20.3445   31.7975    8.6465 O.2       1 ALC1        0.0000 
     33 CA         20.3785   29.8810   12.5815 C.3       4 GLC5        0.0000 
     34 CA         20.8590   29.2820   10.8290 C.3      12 GLL5        0.0000 
     35 N          21.7675   24.9680   10.6480 N.am      2 SEC2        0.0000 
     36 N          21.6710   26.0100    9.4130 N.am     10 SEL2        0.0000 
     37 N          21.8640   23.9260   11.8830 N.am      6 SEP2        0.0000 
     38 CA         22.0205   25.6885   11.0805 C.3       4 GLC5        0.0000 
     39 CA         22.8860   26.6080    9.3370 C.3      12 GLL5        0.0000 
     40 CA         21.1550   24.7690   12.8240 C.3       8 GLP5        0.0000 
     41 O          23.5235   23.8430    8.0380 O.2       1 ALC1        0.0000 
     42 O          24.2890   24.9610    8.3600 O.2       9 ALL1        0.0000 
     43 O          22.7580   22.7250    7.7160 O.2       5 ALP1        0.0000 
     44 O          25.1715   25.0990    7.0235 O.2       1 ALC1        0.0000 
     45 O          26.0540   25.2370    5.6870 O.2       5 ALP1        0.0000 
     46 CA         24.5010   27.7790   11.4520 C.3       4 GLC5        0.0000 
     47 CA         25.0530   28.3170    9.4220 C.3      12 GLL5        0.0000 
     48 CA         23.9490   27.2410   13.4820 C.3       8 GLP5        0.0000 
     49 CA         26.2275   28.2395   10.7565 C.3       4 GLC5        0.0000 
     50 CA         27.4020   28.1620   12.0910 C.3       8 GLP5        0.0000 
     51 CA         24.9400   29.3800    7.8955 C.3       4 GLC5        0.0000 
     52 CA         24.8270   30.4430    6.3690 C.3       8 GLP5        0.0000 
     53 CA         20.5232   29.6683    7.8425 C.3       4 GLC5        0.0000 
     54 CA         20.6260   30.3410    9.7520 C.3      12 GLL5        0.0000 
     55 CA         21.1470   29.0920    6.1040 C.3       8 GLP5        0.0000 
     56 CA         23.3843   27.2465   11.5347 C.3       4 GLC5        0.0000 
     57 CA         22.7530   27.8960    9.8380 C.3      12 GLL5        0.0000 
     58 CA         22.9495   25.9767    7.2668 C.3       4 GLC5        0.0000 
     59 CA         22.3920   25.5570    5.4320 C.3       8 GLP5        0.0000 
@<TRIPOS>BOND
@<TRIPOS>SUBSTRUCTURE
     1 ALC1       25 GROUP        1 X    ALC  0     ROOT ALC X 1
     2 SEC2        1 GROUP        1 X    SEC  0     **** SEC X 2
     3 LYC4        6 GROUP        1 X    LYC  0     **** LYC X 4
     4 GLC5       16 GROUP        1 X    GLC  0     **** GLC X 6
     5 ALP1       27 GROUP        1 Y    ALP  0     ROOT ALP Y 8
     6 SEP2        3 GROUP        1 Y    SEP  0     **** SEP Y 9
     7 LYP4        8 GROUP        1 Y    LYP  0     **** LYP Y 11
     8 GLP5       18 GROUP        1 Y    GLP  0     **** GLP Y 13
     9 ALL1       26 GROUP        1 Z    ALL  0     ROOT ALL Z 15
    10 SEL2        2 GROUP        1 Z    SEL  0     **** SEL Z 16
    11 LYL4        7 GROUP        1 Z    LYL  0     **** LYL Z 18
    12 GLL5       17 GROUP        1 Z    GLL  0     **** GLL Z 20
@<TRIPOS>SET

