#    Name: 2d1q_AMP_1_ligand
#    Modification time : Tue Mar 25 01:30:38 2014

@<TRIPOS>MOLECULE
2d1q_AMP_1_ligand
   35    37     1     0     0
SMALL
NO_CHARGES


@<TRIPOS>ATOM
      1 P          15.4090   28.9610   12.4440 P.3       1 AMP1001     0.0000 
      2 O1P        14.3520   28.4560   11.5520 O.co2     1 AMP1001     0.0000 
      3 O2P        15.2550   30.4800   12.5190 O.co2     1 AMP1001     0.0000 
      4 O3P        15.2490   28.3760   13.8510 O.co2     1 AMP1001     0.0000 
      5 O5'        16.8670   28.5980   11.9160 O.3       1 AMP1001     0.0000 
      6 C5'        17.2770   29.0100   10.6380 C.3       1 AMP1001     0.0000 
      7 C4'        18.5940   29.7500   10.7640 C.3       1 AMP1001     0.0000 
      8 O4'        19.5980   28.9880   11.4070 O.3       1 AMP1001     0.0000 
      9 C3'        19.1730   30.1480    9.4100 C.3       1 AMP1001     0.0000 
     10 O3'        18.5920   31.3580    8.9380 O.3       1 AMP1001     0.0000 
     11 C2'        20.6260   30.3410    9.7520 C.3       1 AMP1001     0.0000 
     12 O2'        20.7390   31.6150   10.3400 O.3       1 AMP1001     0.0000 
     13 C1'        20.8590   29.2820   10.8290 C.3       1 AMP1001     0.0000 
     14 N9         21.4450   28.0560   10.2260 N.pl3     1 AMP1001     0.0000 
     15 C8         20.7810   26.8810    9.9440 C.2       1 AMP1001     0.0000 
     16 N7         21.6710   26.0100    9.4130 N.2       1 AMP1001     0.0000 
     17 C5         22.8860   26.6080    9.3370 C.ar      1 AMP1001     0.0000 
     18 C6         24.1280   26.1850    8.8660 C.ar      1 AMP1001     0.0000 
     19 N6         24.2890   24.9610    8.3600 N.pl3     1 AMP1001     0.0000 
     20 N1         25.2090   27.0480    8.9190 N.ar      1 AMP1001     0.0000 
     21 C2         25.0530   28.3170    9.4220 C.ar      1 AMP1001     0.0000 
     22 N3         23.8150   28.7250    9.8830 N.ar      1 AMP1001     0.0000 
     23 C4         22.7530   27.8960    9.8380 C.ar      1 AMP1001     0.0000 
     24 H          16.5556   29.6892   10.1687 H         1 AMP1001     0.0000 
     25 H          17.4327   28.1639    9.9584 H         1 AMP1001     0.0000 
     26 H          18.4206   30.6812   11.3144 H         1 AMP1001     0.0000 
     27 H          19.0809   29.3294    8.7568 H         1 AMP1001     0.0000 
     28 H          21.2166   30.1620    8.9401 H         1 AMP1001     0.0000 
     29 H          21.5351   29.6931   11.5532 H         1 AMP1001     0.0000 
     30 H          19.8499   26.7227   10.1020 H         1 AMP1001     0.0000 
     31 H          25.0028   24.8619    7.6667 H         1 AMP1001     0.0000 
     32 H          23.6814   24.2528    8.7195 H         1 AMP1001     0.0000 
     33 H          25.8534   28.9653    9.4572 H         1 AMP1001     0.0000 
     34 H          19.3496   31.8660    8.5281 H         1 AMP1001     0.0000 
     35 H          20.7998   32.2506    9.5704 H         1 AMP1001     0.0000 
@<TRIPOS>BOND
     1    2    1 ar   
     2    3    1 ar   
     3    4    1 ar   
     4    5    1 1    
     5    6    5 1    
     6    7    6 1    
     7   24    6 1    
     8   25    6 1    
     9    8    7 1    
    10    9    7 1    
    11   26    7 1    
    12   13    8 1    
    13   10    9 1    
    14   11    9 1    
    15   27    9 1    
    16   34   10 1    
    17   12   11 1    
    18   13   11 1    
    19   28   11 1    
    20   35   12 1    
    21   14   13 1    
    22   29   13 1    
    23   15   14 1    
    24   23   14 1    
    25   16   15 2    
    26   30   15 1    
    27   17   16 1    
    28   18   17 ar   
    29   23   17 ar   
    30   19   18 1    
    31   20   18 ar   
    32   31   19 1    
    33   32   19 1    
    34   21   20 ar   
    35   22   21 ar   
    36   33   21 1    
    37   23   22 ar   
@<TRIPOS>SUBSTRUCTURE
     1 AMP1001     1 GROUP   
@<TRIPOS>SET

