#    Name: 3CNS_1_CAVITY_N1_6.mol2
#    Modification time : Tue Mar 11 14:39:53 2014

@<TRIPOS>MOLECULE
3CNS_1_CAVITY_N1_6.mol2
  160     0     6     0     0
SMALL
NO_CHARGES


@<TRIPOS>ATOM
      1 CZ         60.3331  -24.0011   -2.1104 C.ar      4 PHE5        0.0000 
      2 CZ         61.0338  -24.9488   -3.0381 C.ar      4 PHE5        0.0000 
      3 CA         63.1360  -27.7921   -5.8215 C.3       5 GLY6        0.0000 
      4 CZ         59.7796  -23.2565   -3.2890 C.ar      4 PHE5        0.0000 
      5 DU         60.4803  -24.2043   -4.2168 H         6 CUB7        0.0000 
      6 CZ         61.1810  -25.1520   -5.1446 C.ar      4 PHE5        0.0000 
      7 CZ         61.8817  -26.0998   -6.0723 C.ar      4 PHE5        0.0000 
      8 CA         62.5825  -27.0475   -7.0001 C.3       5 GLY6        0.0000 
      9 CZ         59.9268  -23.4597   -5.3955 C.ar      4 PHE5        0.0000 
     10 CZ         60.6275  -24.4075   -6.3232 C.ar      4 PHE5        0.0000 
     11 N          61.3282  -25.3552   -7.2510 N.2       2 ALA2        0.0000 
     12 CA         60.7747  -24.6106   -8.4297 C.3       5 GLY6        0.0000 
     13 N          58.6724  -29.3201   -2.7815 N.2       2 ALA2        0.0000 
     14 N          59.3731  -30.2678   -3.7093 N.2       2 ALA2        0.0000 
     15 CA         60.0739  -31.2156   -4.6370 C.3       5 GLY6        0.0000 
     16 O          57.4181  -27.6278   -3.0324 O.2       2 ALA2        0.0000 
     17 O          58.1189  -28.5755   -3.9602 O.2       2 ALA2        0.0000 
     18 N          58.8196  -29.5233   -4.8879 N.2       2 ALA2        0.0000 
     19 CZ         59.5203  -30.4710   -5.8157 C.ar      4 PHE5        0.0000 
     20 NZ         56.1639  -25.9355   -3.2833 N.2       3 LYS4        0.0000 
     21 NZ         56.8646  -26.8832   -4.2110 N.2       3 LYS4        0.0000 
     22 CZ         57.5653  -27.8310   -5.1388 C.ar      4 PHE5        0.0000 
     23 CZ         58.2661  -28.7787   -6.0666 C.ar      4 PHE5        0.0000 
     24 CZ         58.9668  -29.7264   -6.9944 C.ar      4 PHE5        0.0000 
     25 CZ         56.3111  -26.1387   -5.3897 C.ar      4 PHE5        0.0000 
     26 CZ         58.4133  -28.9819   -8.1730 C.ar      4 PHE5        0.0000 
     27 NZ         55.5612  -30.1583   -1.8499 N.2       3 LYS4        0.0000 
     28 DU         56.2619  -31.1060   -2.7777 H         6 CUB7        0.0000 
     29 NZ         55.0077  -29.4137   -3.0286 N.2       3 LYS4        0.0000 
     30 NZ         55.7084  -30.3615   -3.9563 N.2       3 LYS4        0.0000 
     31 DU         56.4091  -31.3092   -4.8841 H         6 CUB7        0.0000 
     32 NZ         56.9136  -29.4685   -3.9582 N.2       3 LYS4        0.0000 
     33 DU         57.6144  -30.4162   -4.8860 H         6 CUB7        0.0000 
     34 DU         58.3151  -31.3640   -5.8138 H         6 CUB7        0.0000 
     35 NZ         55.6594  -27.7762   -4.2091 N.2       3 LYS4        0.0000 
     36 CZ         56.3601  -28.7239   -5.1369 C.ar      4 PHE5        0.0000 
     37 CZ         57.0608  -29.6717   -6.0647 C.ar      4 PHE5        0.0000 
     38 CZ         57.7616  -30.6194   -6.9924 C.ar      4 PHE5        0.0000 
     39 CZ         57.2080  -29.8749   -8.1711 C.ar      4 PHE5        0.0000 
     40 CZ         61.5383  -23.1081   -2.1123 C.ar      4 PHE5        0.0000 
     41 CZ         62.2391  -24.0558   -3.0401 C.ar      4 PHE5        0.0000 
     42 CZ         61.6855  -23.3113   -4.2187 C.ar      4 PHE5        0.0000 
     43 N          62.3862  -24.2590   -5.1465 N.2       2 ALA2        0.0000 
     44 CA         63.0870  -25.2068   -6.0743 C.3       5 GLY6        0.0000 
     45 N          61.8327  -23.5145   -6.3251 N.2       2 ALA2        0.0000 
     46 N          62.5334  -24.4622   -7.2529 N.2       2 ALA2        0.0000 
     47 N          61.2791  -30.3226   -4.6390 N.2       2 ALA2        0.0000 
     48 N          75.0410  -26.2117   -0.8693 N.2       2 ALA2        0.0000 
     49 N          68.6714  -27.6850    3.1003 N.2       2 ALA2        0.0000 
     50 N          69.3722  -28.6327    2.1725 N.2       2 ALA2        0.0000 
     51 N          70.0729  -29.5805    1.2447 N.2       2 ALA2        0.0000 
     52 DU         70.7736  -30.5282    0.3170 H         6 CUB7        0.0000 
     53 N          68.8186  -27.8881    0.9939 N.2       2 ALA2        0.0000 
     54 O          69.5194  -28.8359    0.0661 O.2       2 ALA2        0.0000 
     55 CA         70.2201  -29.7836   -0.8617 C.3       5 GLY6        0.0000 
     56 NZ         70.9208  -30.7314   -1.7895 N.2       3 LYS4        0.0000 
     57 CA         67.5644  -26.1958    0.7430 C.3       5 GLY6        0.0000 
     58 O          68.2651  -27.1436   -0.1848 O.2       2 ALA2        0.0000 
     59 O          68.9658  -28.0913   -1.1126 O.2       2 ALA2        0.0000 
     60 O          69.6666  -29.0391   -2.0403 O.2       2 ALA2        0.0000 
     61 CA         66.3101  -24.5035    0.4921 C.3       5 GLY6        0.0000 
     62 CZ         67.0108  -25.4513   -0.4357 C.ar      4 PHE5        0.0000 
     63 N          65.7566  -23.7590   -0.6866 N.2       2 ALA2        0.0000 
     64 CZ         66.4573  -24.7067   -1.6143 C.ar      4 PHE5        0.0000 
     65 N          64.5023  -22.0667   -0.9375 N.2       2 ALA2        0.0000 
     66 N          65.2030  -23.0144   -1.8652 N.2       2 ALA2        0.0000 
     67 N          65.9038  -23.9622   -2.7930 N.2       2 ALA2        0.0000 
     68 N          63.9488  -21.3221   -2.1161 N.2       2 ALA2        0.0000 
     69 OG         64.6495  -22.2699   -3.0439 O.2       1 SER1        0.0000 
     70 N          65.3502  -23.2176   -3.9717 N.2       2 ALA2        0.0000 
     71 CA         67.4662  -28.5779    3.1022 C.3       5 GLY6        0.0000 
     72 DU         68.1669  -29.5257    2.1744 H         6 CUB7        0.0000 
     73 CA         68.8677  -30.4734    1.2467 C.3       5 GLY6        0.0000 
     74 CA         66.9127  -27.8334    1.9235 C.3       5 GLY6        0.0000 
     75 CZ         67.6134  -28.7811    0.9958 C.ar      4 PHE5        0.0000 
     76 CA         68.3141  -29.7289    0.0680 C.3       5 GLY6        0.0000 
     77 N          63.9978  -23.9074   -1.8633 N.2       2 ALA2        0.0000 
     78 N          62.7436  -22.2151   -2.1142 N.2       2 ALA2        0.0000 
     79 CZ         63.4443  -23.1629   -3.0420 C.ar      4 PHE5        0.0000 
     80 CZ         64.1450  -24.1106   -3.9697 C.ar      4 PHE5        0.0000 
     81 CZ         62.1900  -21.4706   -3.2929 C.ar      4 PHE5        0.0000 
     82 N          62.8907  -22.4183   -4.2206 N.2       2 ALA2        0.0000 
     83 CZ         60.3821  -26.5864   -1.8576 C.ar      4 PHE5        0.0000 
     84 O          59.1279  -24.8941   -2.1084 O.2       2 ALA2        0.0000 
     85 CZ         59.8286  -25.8418   -3.0362 C.ar      4 PHE5        0.0000 
     86 CZ         60.5293  -26.7895   -3.9640 C.ar      4 PHE5        0.0000 
     87 CZ         61.2301  -27.7373   -4.8918 C.ar      4 PHE5        0.0000 
     88 CZ         61.9308  -28.6850   -5.8195 C.ar      4 PHE5        0.0000 
     89 CA         62.6315  -29.6328   -6.7473 C.3       5 GLY6        0.0000 
     90 CZ         58.5743  -24.1495   -3.2871 C.ar      4 PHE5        0.0000 
     91 DU         59.2751  -25.0972   -4.2149 H         6 CUB7        0.0000 
     92 DU         59.9758  -26.0450   -5.1427 H         6 CUB7        0.0000 
     93 DU         60.6765  -26.9927   -6.0704 H         6 CUB7        0.0000 
     94 CZ         61.3772  -27.9405   -6.9982 C.ar      4 PHE5        0.0000 
     95 CZ         58.0208  -23.4049   -4.4658 C.ar      4 PHE5        0.0000 
     96 CZ         58.7215  -24.3527   -5.3935 C.ar      4 PHE5        0.0000 
     97 CZ         59.4223  -25.3004   -6.3213 C.ar      4 PHE5        0.0000 
     98 CZ         60.1230  -26.2482   -7.2491 C.ar      4 PHE5        0.0000 
     99 CZ         60.8237  -27.1959   -8.1769 C.ar      4 PHE5        0.0000 
    100 CZ         59.5695  -25.5036   -8.4277 C.ar      4 PHE5        0.0000 
    101 CA         60.2702  -26.4514   -9.3555 C.3       5 GLY6        0.0000 
    102 CA         53.8024  -30.3067   -3.0266 C.3       5 GLY6        0.0000 
    103 N          53.9496  -30.5099   -5.1331 N.2       2 ALA2        0.0000 
    104 O          57.9226  -25.7870   -2.1065 O.2       2 ALA2        0.0000 
    105 O          58.6234  -26.7348   -3.0343 O.2       2 ALA2        0.0000 
    106 N          59.3241  -27.6825   -3.9621 N.2       2 ALA2        0.0000 
    107 N          60.0248  -28.6303   -4.8898 N.2       2 ALA2        0.0000 
    108 CZ         60.7256  -29.5780   -5.8176 C.ar      4 PHE5        0.0000 
    109 CZ         61.4263  -30.5258   -6.7454 C.ar      4 PHE5        0.0000 
    110 CA         57.3691  -25.0425   -3.2852 C.3       5 GLY6        0.0000 
    111 DU         58.0698  -25.9902   -4.2130 H         6 CUB7        0.0000 
    112 CZ         58.7706  -26.9380   -5.1407 C.ar      4 PHE5        0.0000 
    113 CZ         59.4713  -27.8857   -6.0685 C.ar      4 PHE5        0.0000 
    114 CZ         60.1720  -28.8335   -6.9963 C.ar      4 PHE5        0.0000 
    115 CA         56.8156  -24.2979   -4.4638 C.3       5 GLY6        0.0000 
    116 CZ         57.5163  -25.2457   -5.3916 C.ar      4 PHE5        0.0000 
    117 CZ         58.2170  -26.1934   -6.3194 C.ar      4 PHE5        0.0000 
    118 CZ         58.9178  -27.1412   -7.2472 C.ar      4 PHE5        0.0000 
    119 CZ         59.6185  -28.0889   -8.1749 C.ar      4 PHE5        0.0000 
    120 CZ         59.0650  -27.3443   -9.3536 C.ar      4 PHE5        0.0000 
    121 CZ         55.1549  -29.6169   -5.1350 C.ar      4 PHE5        0.0000 
    122 CZ         55.8556  -30.5647   -6.0628 C.ar      4 PHE5        0.0000 
    123 CA         71.8317  -29.4320    2.4215 C.3       5 GLY6        0.0000 
    124 N          71.2781  -28.6875    1.2428 N.2       2 ALA2        0.0000 
    125 DU         71.9789  -29.6352    0.3151 H         6 CUB7        0.0000 
    126 N          70.7246  -27.9429    0.0642 N.2       2 ALA2        0.0000 
    127 NZ         71.4253  -28.8907   -0.8636 N.2       3 LYS4        0.0000 
    128 N          68.7696  -25.3029    0.7411 N.2       2 ALA2        0.0000 
    129 N          69.4703  -26.2506   -0.1867 N.2       2 ALA2        0.0000 
    130 O          70.1711  -27.1984   -1.1145 O.2       2 ALA2        0.0000 
    131 O          70.8718  -28.1461   -2.0423 O.2       2 ALA2        0.0000 
    132 NZ         71.5725  -29.0938   -2.9700 N.2       3 LYS4        0.0000 
    133 CA         67.5153  -23.6106    0.4902 C.3       5 GLY6        0.0000 
    134 CA         68.2161  -24.5583   -0.4376 C.3       5 GLY6        0.0000 
    135 O          68.9168  -25.5061   -1.3654 O.2       2 ALA2        0.0000 
    136 O          69.6175  -26.4538   -2.2931 O.2       2 ALA2        0.0000 
    137 O          70.3183  -27.4015   -3.2209 O.2       2 ALA2        0.0000 
    138 CZ         66.9618  -22.8660   -0.6885 C.ar      4 PHE5        0.0000 
    139 OG         67.6625  -23.8138   -1.6163 O.2       1 SER1        0.0000 
    140 OG         66.4083  -22.1215   -1.8671 O.2       1 SER1        0.0000 
    141 CA         72.4834  -27.7945    1.2409 C.3       5 GLY6        0.0000 
    142 CA         73.1841  -28.7422    0.3131 C.3       5 GLY6        0.0000 
    143 N          71.9298  -27.0499    0.0623 N.2       2 ALA2        0.0000 
    144 NZ         72.6306  -27.9977   -0.8655 N.2       3 LYS4        0.0000 
    145 N          70.6756  -25.3576   -0.1886 N.2       2 ALA2        0.0000 
    146 N          71.3763  -26.3054   -1.1164 N.2       2 ALA2        0.0000 
    147 NZ         72.0770  -27.2531   -2.0442 N.2       3 LYS4        0.0000 
    148 N          69.4213  -23.6653   -0.4395 N.2       2 ALA2        0.0000 
    149 CZ         70.1220  -24.6131   -1.3673 C.ar      4 PHE5        0.0000 
    150 CZ         70.8228  -25.5608   -2.2951 C.ar      4 PHE5        0.0000 
    151 O          71.5235  -26.5086   -3.2228 O.2       2 ALA2        0.0000 
    152 CA         74.3893  -27.8492    0.3112 C.3       5 GLY6        0.0000 
    153 N          73.1351  -26.1569    0.0603 N.2       2 ALA2        0.0000 
    154 NZ         73.8358  -27.1047   -0.8674 N.2       3 LYS4        0.0000 
    155 NZ         74.5365  -28.0524   -1.7952 N.2       3 LYS4        0.0000 
    156 N          72.5815  -25.4124   -1.1183 N.2       2 ALA2        0.0000 
    157 N          73.2823  -26.3601   -2.0461 N.2       2 ALA2        0.0000 
    158 CA         58.0207  -30.9576   -1.6009 C.3       5 GLY6        0.0000 
    159 O          57.4672  -30.2131   -2.7796 O.2       2 ALA2        0.0000 
    160 CA         58.1679  -31.1608   -3.7074 C.3       5 GLY6        0.0000 
@<TRIPOS>BOND
@<TRIPOS>SUBSTRUCTURE
     1 SER1       69 GROUP   
     2 ALA2       11 GROUP   
     3 LYS4       20 GROUP   
     4 PHE5        1 GROUP   
     5 GLY6        3 GROUP   
     6 CUB7        5 GROUP   
@<TRIPOS>SET

