#    Name: 3cns_SP8_1_INTS_M
#    Modification time : Mon Mar 24 22:00:24 2014

@<TRIPOS>MOLECULE
3cns_SP8_1_INTS_M
   45     0     3     0     0
SMALL
NO_CHARGES


@<TRIPOS>ATOM
      1 CA         57.3390  -25.2000   -0.5510 C.3       1 GLC5        0.0000 
      2 CA         57.4480  -24.3860   -2.4490 C.3       3 GLL5        0.0000 
      3 CA         57.2300  -26.0140    1.3470 C.3       2 GLP5        0.0000 
      4 CA         63.2280  -24.8490   -3.6065 C.3       1 GLC5        0.0000 
      5 CA         62.7570  -23.1680   -4.0630 C.3       3 GLL5        0.0000 
      6 CA         63.6990  -26.5300   -3.1500 C.3       2 GLP5        0.0000 
      7 CA         63.0300  -23.1925   -7.6265 C.3       1 GLC5        0.0000 
      8 CA         62.9370  -23.2930   -5.5760 C.3       3 GLL5        0.0000 
      9 CA         63.1230  -23.0920   -9.6770 C.3       2 GLP5        0.0000 
     10 CA         64.2955  -24.2360   -5.9230 C.3       1 GLC5        0.0000 
     11 CA         65.6540  -25.1790   -6.2700 C.3       2 GLP5        0.0000 
     12 CA         61.3340  -21.2560   -1.8660 C.3       1 GLC5        0.0000 
     13 CA         63.0460  -21.5940   -2.0880 C.3       3 GLL5        0.0000 
     14 CA         59.6220  -20.9180   -1.6440 C.3       2 GLP5        0.0000 
     15 CA         64.2385  -19.8680   -1.6830 C.3       1 GLC5        0.0000 
     16 CA         65.4310  -18.1420   -1.2780 C.3       2 GLP5        0.0000 
     17 CA         64.2255  -24.6200   -1.8115 C.3       1 GLC5        0.0000 
     18 CA         65.2010  -22.7090   -1.7920 C.3       3 GLL5        0.0000 
     19 CA         63.2500  -26.5310   -1.8310 C.3       2 GLP5        0.0000 
     20 CA         65.4330  -21.2035   -0.3805 C.3       1 GLC5        0.0000 
     21 CA         65.6650  -19.6980    1.0310 C.3       2 GLP5        0.0000 
     22 CA         65.6230  -25.6075   -1.0295 C.3       1 GLC5        0.0000 
     23 CA         65.8580  -23.8800   -1.0570 C.3       3 GLL5        0.0000 
     24 CA         65.3880  -27.3350   -1.0020 C.3       2 GLP5        0.0000 
     25 CA         66.3600  -24.5530    0.9740 C.3       1 GLC5        0.0000 
     26 CA         66.8620  -25.2260    3.0050 C.3       2 GLP5        0.0000 
     27 CA         66.5780  -25.7085   -1.9075 C.3       1 GLC5        0.0000 
     28 CA         67.3120  -24.0840   -1.4840 C.3       3 GLL5        0.0000 
     29 CA         65.8440  -27.3330   -2.3310 C.3       2 GLP5        0.0000 
     30 CA         66.6640  -26.2960   -0.8645 C.3       1 GLC5        0.0000 
     31 CA         67.9400  -25.2570   -0.7270 C.3       3 GLL5        0.0000 
     32 CA         67.4010  -25.2415    1.1390 C.3       1 GLC5        0.0000 
     33 CA         55.5914  -24.5763   -4.0273 C.3       1 GLC5        0.0000 
     34 CA         54.0630  -23.8260   -4.4610 C.3       2 GLP5        0.0000 
     35 CA         61.2452  -21.4832   -3.4025 C.3       1 GLC5        0.0000 
     36 CA         59.5440  -20.5040   -2.9700 C.3       2 GLP5        0.0000 
     37 CA         64.2375  -20.6107   -3.9463 C.3       1 GLC5        0.0000 
     38 CA         63.1360  -21.7570   -3.6070 C.3       3 GLL5        0.0000 
     39 CA         65.3840  -19.5460   -5.0450 C.3       2 GLP5        0.0000 
     40 CA         62.3308  -21.2219   -5.3466 C.3       1 GLC5        0.0000 
     41 CA         61.6700  -19.9500   -6.4800 C.3       2 GLP5        0.0000 
     42 CA         64.4787  -23.8777    0.1333 C.3       1 GLC5        0.0000 
     43 CA         63.4280  -24.4610    1.6910 C.3       2 GLP5        0.0000 
     44 CA         67.6144  -22.5581   -2.4211 C.3       1 GLC5        0.0000 
     45 CA         68.8080  -21.4270   -3.3880 C.3       2 GLP5        0.0000 
@<TRIPOS>BOND
@<TRIPOS>SUBSTRUCTURE
     1 GLC5        1 GROUP        1 X    GLC  0     ROOT GLC X 6
     2 GLP5        3 GROUP        1 Y    GLP  0     ROOT GLP Y 13
     3 GLL5        2 GROUP        1 Z    GLL  0     ROOT GLL Z 20
@<TRIPOS>SET

