#    Name: 3cns_SP8_1_ligand
#    Modification time : Mon Mar 24 22:00:24 2014

@<TRIPOS>MOLECULE
3cns_SP8_1_ligand
   44    44     1     0     0
SMALL
NO_CHARGES


@<TRIPOS>ATOM
      1 CAE        58.7700  -24.1460   -2.8060 C.ar      1 SP8518      0.0000 
      2 CAD        57.4480  -24.3860   -2.4490 C.ar      1 SP8518      0.0000 
      3 CAC        56.6590  -25.2320   -3.2210 C.ar      1 SP8518      0.0000 
      4 CAR        57.1860  -25.8440   -4.3520 C.ar      1 SP8518      0.0000 
      5 CAS        58.5090  -25.6050   -4.7080 C.ar      1 SP8518      0.0000 
      6 CAF        59.2970  -24.7580   -3.9360 C.ar      1 SP8518      0.0000 
      7 CAG        60.7460  -24.5020   -4.3550 C.2       1 SP8518      0.0000 
      8 OAA        61.2750  -25.2100   -5.2100 O.2       1 SP8518      0.0000 
      9 NAH        61.3640  -23.5020   -3.7310 N.am      1 SP8518      0.0000 
     10 CAI        62.7570  -23.1680   -4.0630 C.3       1 SP8518      0.0000 
     11 CAB        62.9370  -23.2930   -5.5760 C.3       1 SP8518      0.0000 
     12 CAJ        63.1360  -21.7570   -3.6070 C.3       1 SP8518      0.0000 
     13 CAK        63.0460  -21.5940   -2.0880 C.3       1 SP8518      0.0000 
     14 NAL        63.7840  -22.6640   -1.4020 N.4       1 SP8518      0.0000 
     15 CAM        65.2010  -22.7090   -1.7920 C.3       1 SP8518      0.0000 
     16 CAN        65.8580  -23.8800   -1.0570 C.3       1 SP8518      0.0000 
     17 CAO        67.3120  -24.0840   -1.4840 C.3       1 SP8518      0.0000 
     18 CAP        67.9400  -25.2570   -0.7270 C.3       1 SP8518      0.0000 
     19 NAQ        69.3170  -25.4700   -1.1970 N.4       1 SP8518      0.0000 
     20 H          59.3520  -23.5209   -2.2382 H         1 SP8518      0.0000 
     21 H          57.0522  -23.9369   -1.6118 H         1 SP8518      0.0000 
     22 H          55.6793  -25.4056   -2.9528 H         1 SP8518      0.0000 
     23 H          56.6037  -26.4677   -4.9205 H         1 SP8518      0.0000 
     24 H          58.9055  -26.0555   -5.5438 H         1 SP8518      0.0000 
     25 H          60.9193  -22.9240   -3.0051 H         1 SP8518      0.0000 
     26 H          63.4300  -23.8742   -3.5934 H         1 SP8518      0.0000 
     27 H          62.4669  -21.0346   -4.0848 H         1 SP8518      0.0000 
     28 H          64.1586  -21.5389   -3.9305 H         1 SP8518      0.0000 
     29 H          61.9884  -21.6093   -1.8032 H         1 SP8518      0.0000 
     30 H          63.4531  -20.6121   -1.8235 H         1 SP8518      0.0000 
     31 H          65.7104  -21.7955   -1.5090 H         1 SP8518      0.0000 
     32 H          65.3048  -22.8700   -2.8585 H         1 SP8518      0.0000 
     33 H          65.2924  -24.7934   -1.2620 H         1 SP8518      0.0000 
     34 H          65.8235  -23.6910    0.0197 H         1 SP8518      0.0000 
     35 H          67.8782  -23.1788   -1.2753 H         1 SP8518      0.0000 
     36 H          67.3478  -24.2869   -2.5522 H         1 SP8518      0.0000 
     37 H          67.3301  -26.1440   -0.9003 H         1 SP8518      0.0000 
     38 H          67.9259  -25.0257    0.3384 H         1 SP8518      0.0000 
     39 H          63.8716  -23.0761   -5.8580 H         1 SP8518      0.0000 
     40 H          62.7412  -24.2193   -5.8980 H         1 SP8518      0.0000 
     41 H          62.3294  -22.6748   -6.0746 H         1 SP8518      0.0000 
     42 H          69.8892  -24.6636   -1.0479 H         1 SP8518      0.0000 
     43 H          69.7571  -26.2332   -0.7238 H         1 SP8518      0.0000 
     44 H          69.3480  -25.6746   -2.1753 H         1 SP8518      0.0000 
@<TRIPOS>BOND
     1    2    1 ar   
     2    6    1 ar   
     3   20    1 1    
     4    3    2 ar   
     5   21    2 1    
     6    4    3 ar   
     7   22    3 1    
     8    5    4 ar   
     9   23    4 1    
    10    6    5 ar   
    11   24    5 1    
    12    7    6 1    
    13    8    7 2    
    14    9    7 am   
    15   10    9 1    
    16   25    9 1    
    17   11   10 1    
    18   12   10 1    
    19   26   10 1    
    20   39   11 1    
    21   40   11 1    
    22   41   11 1    
    23   13   12 1    
    24   27   12 1    
    25   28   12 1    
    26   14   13 1    
    27   29   13 1    
    28   30   13 1    
    29   15   14 1    
    30   16   15 1    
    31   31   15 1    
    32   32   15 1    
    33   17   16 1    
    34   33   16 1    
    35   34   16 1    
    36   18   17 1    
    37   35   17 1    
    38   36   17 1    
    39   19   18 1    
    40   37   18 1    
    41   38   18 1    
    42   42   19 1    
    43   43   19 1    
    44   44   19 1    
@<TRIPOS>SUBSTRUCTURE
     1 SP8518      1 GROUP   
@<TRIPOS>SET

