#    Name: 3k6l_2BB_2_INTS_M
#    Modification time : Mon Mar 24 18:49:20 2014

@<TRIPOS>MOLECULE
3k6l_2BB_2_INTS_M
   59     0     9     0     0
SMALL
NO_CHARGES


@<TRIPOS>ATOM
      1 CA        -32.8565   10.4165  -13.2590 C.3       3 GLC5        0.0000 
      2 CA        -31.9200   11.0810  -14.7730 C.3       9 GLL5        0.0000 
      3 CA        -33.7930    9.7520  -11.7450 C.3       6 GLP5        0.0000 
      4 CA        -29.9585   11.8765  -14.3360 C.3       3 GLC5        0.0000 
      5 CA        -27.9970   12.6720  -13.8990 C.3       6 GLP5        0.0000 
      6 CA        -32.1530   12.7315  -14.2715 C.3       3 GLC5        0.0000 
      7 CA        -32.3860   14.3820  -13.7700 C.3       6 GLP5        0.0000 
      8 CA        -31.4855   12.6190  -16.3050 C.3       3 GLC5        0.0000 
      9 CA        -31.0510   14.1570  -17.8370 C.3       6 GLP5        0.0000 
     10 O         -35.8785   12.0785  -18.2490 O.2       1 ALC1        0.0000 
     11 O         -35.8230   11.1490  -18.8070 O.2       7 ALL1        0.0000 
     12 O         -35.9340   13.0080  -17.6910 O.2       4 ALP1        0.0000 
     13 N         -35.5105    8.1675  -20.9645 N.am      2 SEC2        0.0000 
     14 N         -35.3490    9.3060  -19.9570 N.am      8 SEL2        0.0000 
     15 N         -35.6720    7.0290  -21.9720 N.am      5 SEP2        0.0000 
     16 CA        -29.3605    9.3670  -17.3540 C.3       3 GLC5        0.0000 
     17 CA        -30.9600    9.8260  -16.6930 C.3       9 GLL5        0.0000 
     18 CA        -27.7610    8.9080  -18.0150 C.3       6 GLP5        0.0000 
     19 O         -36.7925   12.2670  -20.7615 O.2       1 ALC1        0.0000 
     20 O         -35.7760   11.9280  -19.9600 O.2       7 ALL1        0.0000 
     21 O         -37.8090   12.6060  -21.5630 O.2       4 ALP1        0.0000 
     22 CA        -34.1725   11.6830  -15.1175 C.3       3 GLC5        0.0000 
     23 CA        -33.4640   10.1950  -16.5490 C.3       9 GLL5        0.0000 
     24 CA        -34.8810   13.1710  -13.6860 C.3       6 GLP5        0.0000 
     25 CA        -33.1645   11.5785  -17.9095 C.3       3 GLC5        0.0000 
     26 CA        -32.8650   12.9620  -19.2700 C.3       6 GLP5        0.0000 
     27 N         -36.0585    8.1015  -14.5040 N.am      2 SEC2        0.0000 
     28 N         -34.7670    8.0700  -14.9210 N.am      8 SEL2        0.0000 
     29 N         -37.3500    8.1330  -14.0870 N.am      5 SEP2        0.0000 
     30 N         -30.3120    6.4815  -16.9835 N.am      2 SEC2        0.0000 
     31 N         -30.7980    6.6150  -15.5820 N.am      8 SEL2        0.0000 
     32 N         -29.8260    6.3480  -18.3850 N.am      5 SEP2        0.0000 
     33 CA        -36.6335    7.5585  -16.4045 C.3       3 GLC5        0.0000 
     34 CA        -35.5140    9.0840  -17.5850 C.3       9 GLL5        0.0000 
     35 CA        -37.7530    6.0330  -15.2240 C.3       6 GLP5        0.0000 
     36 CA        -36.7815   10.5475  -16.4495 C.3       3 GLC5        0.0000 
     37 CA        -38.0490   12.0110  -15.3140 C.3       6 GLP5        0.0000 
     38 CA        -28.6115    7.6390  -12.7780 C.3       3 GLC5        0.0000 
     39 CA        -29.8790    6.3260  -12.9540 C.3       9 GLL5        0.0000 
     40 CA        -27.3440    8.9520  -12.6020 C.3       6 GLP5        0.0000 
     41 CA        -30.0645    7.7920  -11.8020 C.3       3 GLC5        0.0000 
     42 CA        -30.2500    9.2580  -10.6500 C.3       6 GLP5        0.0000 
     43 CA        -33.0120    8.1285  -12.0295 C.3       3 GLC5        0.0000 
     44 CA        -32.2310    6.5050  -12.3140 C.3       9 GLL5        0.0000 
     45 CA        -31.2405    7.8815  -11.4820 C.3       3 GLC5        0.0000 
     46 CA        -36.0275    2.7060  -15.0530 C.3       3 GLC5        0.0000 
     47 CA        -34.6060    4.0270  -15.5400 C.3       9 GLL5        0.0000 
     48 CA        -37.4490    1.3850  -14.5660 C.3       6 GLP5        0.0000 
     49 CA        -36.1795    5.0300  -15.3820 C.3       3 GLC5        0.0000 
     50 CA        -31.5130    4.8560  -18.0110 C.3       3 GLC5        0.0000 
     51 CA        -32.3630    3.9660  -16.5950 C.3       9 GLL5        0.0000 
     52 CA        -30.6630    5.7460  -19.4270 C.3       6 GLP5        0.0000 
     53 CA        -30.6660    3.1720  -17.0535 C.3       3 GLC5        0.0000 
     54 CA        -28.9690    2.3780  -17.5120 C.3       6 GLP5        0.0000 
     55 CA        -33.9228    9.9055  -14.3902 C.3       3 GLC5        0.0000 
     56 CA        -32.1650    9.9690  -15.7740 C.3       9 GLL5        0.0000 
     57 CA        -35.0310    9.7290  -12.6190 C.3       6 GLP5        0.0000 
     58 CA        -31.5882   11.5147  -17.5038 C.3       3 GLC5        0.0000 
     59 CA        -31.6140   13.1320  -18.7740 C.3       6 GLP5        0.0000 
@<TRIPOS>BOND
@<TRIPOS>SUBSTRUCTURE
     1 ALC1       10 GROUP        1 X    ALC  0     ROOT ALC X 1
     2 SEC2       13 GROUP        1 X    SEC  0     **** SEC X 2
     3 GLC5        1 GROUP        1 X    GLC  0     **** GLC X 6
     4 ALP1       12 GROUP        1 Y    ALP  0     ROOT ALP Y 8
     5 SEP2       15 GROUP        1 Y    SEP  0     **** SEP Y 9
     6 GLP5        3 GROUP        1 Y    GLP  0     **** GLP Y 13
     7 ALL1       11 GROUP        1 Z    ALL  0     ROOT ALL Z 15
     8 SEL2       14 GROUP        1 Z    SEL  0     **** SEL Z 16
     9 GLL5        2 GROUP        1 Z    GLL  0     **** GLL Z 20
@<TRIPOS>SET

