#    Name: 3k6l_2BB_2_ligand
#    Modification time : Mon Mar 24 18:49:20 2014

@<TRIPOS>MOLECULE
3k6l_2BB_2_ligand
   55    54     1     0     0
SMALL
NO_CHARGES


@<TRIPOS>ATOM
      1 C1        -31.9200   11.0810  -14.7730 C.3       1 2BB170      0.0000 
      2 N1        -35.8230   11.1490  -18.8070 N.am      1 2BB170      0.0000 
      3 O1        -36.0870    7.7900  -17.7950 O.3       1 2BB170      0.0000 
      4 C2        -32.1650    9.9690  -15.7740 C.3       1 2BB170      0.0000 
      5 N2        -33.4940    6.7060  -16.1750 N.am      1 2BB170      0.0000 
      6 O2        -35.3490    9.3060  -19.9570 O.2       1 2BB170      0.0000 
      7 C3        -30.9600    9.8260  -16.6930 C.3       1 2BB170      0.0000 
      8 N3        -31.2630    6.3850  -13.4000 N.am      1 2BB170      0.0000 
      9 O3        -35.7760   11.9280  -19.9600 O.3       1 2BB170      0.0000 
     10 C4        -33.4640   10.1950  -16.5490 C.3       1 2BB170      0.0000 
     11 O4        -34.7670    8.0700  -14.9210 O.2       1 2BB170      0.0000 
     12 C5        -34.0930    8.8890  -17.0510 C.3       1 2BB170      0.0000 
     13 O5        -30.7980    6.6150  -15.5820 O.2       1 2BB170      0.0000 
     14 C6        -35.5140    9.0840  -17.5850 C.3       1 2BB170      0.0000 
     15 C7        -35.5500    9.8540  -18.8820 C.2       1 2BB170      0.0000 
     16 C8        -34.1440    7.8530  -15.9540 C.2       1 2BB170      0.0000 
     17 C9        -32.9930    5.8900  -15.0710 C.3       1 2BB170      0.0000 
     18 C10       -31.5910    6.3240  -14.6980 C.2       1 2BB170      0.0000 
     19 C11       -29.8790    6.3260  -12.9540 C.3       1 2BB170      0.0000 
     20 C12       -32.2310    6.5050  -12.3140 C.3       1 2BB170      0.0000 
     21 C13       -33.1370    4.3810  -15.3450 C.3       1 2BB170      0.0000 
     22 C14       -34.6060    4.0270  -15.5400 C.3       1 2BB170      0.0000 
     23 C15       -32.6230    3.5280  -14.1920 C.3       1 2BB170      0.0000 
     24 C16       -32.3630    3.9660  -16.5950 C.3       1 2BB170      0.0000 
     25 H         -36.0726   11.6066  -17.9117 H         1 2BB170      0.0000 
     26 H         -32.2678    9.0313  -15.2100 H         1 2BB170      0.0000 
     27 H         -33.3146    6.3417  -17.1289 H         1 2BB170      0.0000 
     28 H         -33.2609   10.8453  -17.4083 H         1 2BB170      0.0000 
     29 H         -34.1834   10.7104  -15.9014 H         1 2BB170      0.0000 
     30 H         -33.4816    8.4958  -17.8602 H         1 2BB170      0.0000 
     31 H         -36.0805    9.6254  -16.8384 H         1 2BB170      0.0000 
     32 H         -33.6388    6.1073  -14.1754 H         1 2BB170      0.0000 
     33 H         -31.1147   10.9014  -14.2080 H         1 2BB170      0.0000 
     34 H         -31.7711   11.9608  -15.2243 H         1 2BB170      0.0000 
     35 H         -32.6942   11.1980  -14.1510 H         1 2BB170      0.0000 
     36 H         -30.1274    9.6105  -16.1828 H         1 2BB170      0.0000 
     37 H         -31.0895    9.0963  -17.3644 H         1 2BB170      0.0000 
     38 H         -30.7811   10.6665  -17.2044 H         1 2BB170      0.0000 
     39 H         -29.4355    5.4736  -13.2311 H         1 2BB170      0.0000 
     40 H         -29.3350    7.0755  -13.3311 H         1 2BB170      0.0000 
     41 H         -29.8069    6.3836  -11.9583 H         1 2BB170      0.0000 
     42 H         -31.7841    6.5377  -11.4200 H         1 2BB170      0.0000 
     43 H         -32.7813    7.3358  -12.3971 H         1 2BB170      0.0000 
     44 H         -32.8665    5.7331  -12.2959 H         1 2BB170      0.0000 
     45 H         -34.7318    3.0522  -15.7243 H         1 2BB170      0.0000 
     46 H         -35.1512    4.2451  -14.7305 H         1 2BB170      0.0000 
     47 H         -35.0092    4.5249  -16.3078 H         1 2BB170      0.0000 
     48 H         -31.6551    3.6982  -14.0068 H         1 2BB170      0.0000 
     49 H         -33.1203    3.7112  -13.3440 H         1 2BB170      0.0000 
     50 H         -32.7177    2.5508  -14.3820 H         1 2BB170      0.0000 
     51 H         -31.3860    4.1609  -16.5087 H         1 2BB170      0.0000 
     52 H         -32.4514    2.9870  -16.7786 H         1 2BB170      0.0000 
     53 H         -32.6871    4.4474  -17.4094 H         1 2BB170      0.0000 
     54 H         -35.9692    7.6103  -18.7716 H         1 2BB170      0.0000 
     55 H         -36.6943   11.8666  -20.3513 H         1 2BB170      0.0000 
@<TRIPOS>BOND
     1    4    1 1    
     2   33    1 1    
     3   34    1 1    
     4   35    1 1    
     5    9    2 1    
     6   15    2 am   
     7   25    2 1    
     8   14    3 1    
     9   54    3 1    
    10    7    4 1    
    11   10    4 1    
    12   26    4 1    
    13   16    5 am   
    14   17    5 1    
    15   27    5 1    
    16   15    6 2    
    17   36    7 1    
    18   37    7 1    
    19   38    7 1    
    20   18    8 am   
    21   19    8 1    
    22   20    8 1    
    23   55    9 1    
    24   12   10 1    
    25   28   10 1    
    26   29   10 1    
    27   16   11 2    
    28   14   12 1    
    29   16   12 1    
    30   30   12 1    
    31   18   13 2    
    32   15   14 1    
    33   31   14 1    
    34   18   17 1    
    35   21   17 1    
    36   32   17 1    
    37   39   19 1    
    38   40   19 1    
    39   41   19 1    
    40   42   20 1    
    41   43   20 1    
    42   44   20 1    
    43   22   21 1    
    44   23   21 1    
    45   24   21 1    
    46   45   22 1    
    47   46   22 1    
    48   47   22 1    
    49   48   23 1    
    50   49   23 1    
    51   50   23 1    
    52   51   24 1    
    53   52   24 1    
    54   53   24 1    
@<TRIPOS>SUBSTRUCTURE
     1 2BB170      1 GROUP   
@<TRIPOS>SET

