#    Name: 1qw6_H4B_1_ligand
#    Modification time : Mon Mar 24 23:59:53 2014

@<TRIPOS>MOLECULE
1qw6_H4B_1_ligand
   32    33     1     0     0
SMALL
NO_CHARGES


@<TRIPOS>ATOM
      1 N1          2.1910    3.1600   48.5810 N.2       1 H4B901      0.0000 
      2 C2          2.1650    2.7440   49.8750 C.2       1 H4B901      0.0000 
      3 N2          1.0510    2.3610   50.4700 N.pl3     1 H4B901      0.0000 
      4 N3          3.3530    2.7360   50.5510 N.am      1 H4B901      0.0000 
      5 C4          4.6160    3.1320   50.0100 C.2       1 H4B901      0.0000 
      6 O4          5.6350    3.0810   50.7270 O.2       1 H4B901      0.0000 
      7 C4A         4.5530    3.5490   48.6620 C.2       1 H4B901      0.0000 
      8 C8A         3.3590    3.5680   47.9460 C.2       1 H4B901      0.0000 
      9 N5          5.7980    3.9700   48.0160 N.pl3     1 H4B901      0.0000 
     10 N8          3.2960    3.9600   46.6600 N.pl3     1 H4B901      0.0000 
     11 C6          5.5610    4.9430   46.8710 C.3       1 H4B901      0.0000 
     12 C7          4.5040    4.3920   45.9370 C.3       1 H4B901      0.0000 
     13 C9          6.9580    5.2420   46.2690 C.3       1 H4B901      0.0000 
     14 O9          7.6340    4.0500   45.8720 O.3       1 H4B901      0.0000 
     15 C10         6.8890    6.2030   45.0360 C.3       1 H4B901      0.0000 
     16 C11         8.2230    6.5200   44.4580 C.3       1 H4B901      0.0000 
     17 O10         6.2020    7.3750   45.4840 O.3       1 H4B901      0.0000 
     18 H           0.2179    2.4125   49.9193 H         1 H4B901      0.0000 
     19 H           1.1413    2.0541   51.4174 H         1 H4B901      0.0000 
     20 H           3.3648    2.4125   51.5650 H         1 H4B901      0.0000 
     21 H           6.6604    3.6876   48.2597 H         1 H4B901      0.0000 
     22 H           2.4149    3.9777   46.1245 H         1 H4B901      0.0000 
     23 H           5.1975    5.8718   47.3290 H         1 H4B901      0.0000 
     24 H           4.2485    5.1695   45.1990 H         1 H4B901      0.0000 
     25 H           4.9363    3.5463   45.3783 H         1 H4B901      0.0000 
     26 H           7.5414    5.7696   47.0350 H         1 H4B901      0.0000 
     27 H           6.2774    5.6853   44.2896 H         1 H4B901      0.0000 
     28 H           8.8209    6.9639   45.1254 H         1 H4B901      0.0000 
     29 H           8.6959    5.6974   44.1422 H         1 H4B901      0.0000 
     30 H           8.1510    7.1360   43.6736 H         1 H4B901      0.0000 
     31 H           8.1951    3.7962   46.6599 H         1 H4B901      0.0000 
     32 H           6.5848    8.1226   44.9413 H         1 H4B901      0.0000 
@<TRIPOS>BOND
     1    2    1 2    
     2    8    1 1    
     3    3    2 1    
     4    4    2 1    
     5   18    3 1    
     6   19    3 1    
     7    5    4 am   
     8   20    4 1    
     9    6    5 2    
    10    7    5 1    
    11    8    7 2    
    12    9    7 1    
    13   10    8 1    
    14   11    9 1    
    15   21    9 1    
    16   12   10 1    
    17   22   10 1    
    18   12   11 1    
    19   13   11 1    
    20   23   11 1    
    21   24   12 1    
    22   25   12 1    
    23   14   13 1    
    24   15   13 1    
    25   26   13 1    
    26   31   14 1    
    27   16   15 1    
    28   17   15 1    
    29   27   15 1    
    30   28   16 1    
    31   29   16 1    
    32   30   16 1    
    33   32   17 1    
@<TRIPOS>SUBSTRUCTURE
     1 H4B901      1 GROUP   
@<TRIPOS>SET

