#    Name: 1y0x_T44_1_INTS_M
#    Modification time : Tue Mar 25 10:47:00 2014

@<TRIPOS>MOLECULE
1y0x_T44_1_INTS_M
   91     0     9     0     0
SMALL
NO_CHARGES


@<TRIPOS>ATOM
      1 CA         28.4320   40.2965   90.1610 C.3       3 GLC5        0.0000 
      2 CA         28.7500   39.3010   91.9840 C.3       9 GLL5        0.0000 
      3 CA         28.1140   41.2920   88.3380 C.3       6 GLP5        0.0000 
      4 CA         28.7795   38.8455   96.2740 C.3       3 GLC5        0.0000 
      5 CA         28.2040   40.0940   94.6350 C.3       9 GLL5        0.0000 
      6 CA         29.3550   37.5970   97.9130 C.3       6 GLP5        0.0000 
      7 CA         27.3735   41.9815   94.3215 C.3       3 GLC5        0.0000 
      8 CA         26.5430   43.8690   94.0080 C.3       6 GLP5        0.0000 
      9 CA         26.1375   40.6525   93.5235 C.3       3 GLC5        0.0000 
     10 CA         27.4940   39.0850   94.0110 C.3       9 GLL5        0.0000 
     11 CA         24.7810   42.2200   93.0360 C.3       6 GLP5        0.0000 
     12 CA         28.5630   36.8145   91.6665 C.3       3 GLC5        0.0000 
     13 CA         26.8310   37.5580   92.1120 C.3       9 GLL5        0.0000 
     14 CA         30.2950   36.0710   91.2210 C.3       6 GLP5        0.0000 
     15 CA         28.0870   36.8105   90.2445 C.3       3 GLC5        0.0000 
     16 CA         26.1690   37.7340   90.7230 C.3       9 GLL5        0.0000 
     17 CA         30.0050   35.8870   89.7660 C.3       6 GLP5        0.0000 
     18 CA         26.3155   36.9510   88.9460 C.3       3 GLC5        0.0000 
     19 CA         26.4620   36.1680   87.1690 C.3       6 GLP5        0.0000 
     20 CA         30.0390   42.9955   97.5315 C.3       3 GLC5        0.0000 
     21 CA         31.4830   42.2130   96.1320 C.3       9 GLL5        0.0000 
     22 CA         28.5950   43.7780   98.9310 C.3       6 GLP5        0.0000 
     23 CA         31.0425   43.9315   94.9785 C.3       3 GLC5        0.0000 
     24 CA         30.6020   45.6500   93.8250 C.3       6 GLP5        0.0000 
     25 CA         31.7865   37.9230   94.6815 C.3       3 GLC5        0.0000 
     26 CA         31.6840   40.0560   95.2310 C.3       9 GLL5        0.0000 
     27 CA         31.8890   35.7900   94.1320 C.3       6 GLP5        0.0000 
     28 N          35.2375   40.0625   97.0310 N.am      1 SEC2        0.0000 
     29 N          34.1340   40.7580   98.0320 N.am      7 SEL2        0.0000 
     30 N          36.3410   39.3670   96.0300 N.am      4 SEP2        0.0000 
     31 NZ         24.2265   34.6020   90.6570 N.4       2 LYC4        0.0000 
     32 NZ         25.3840   35.4320   90.7890 N.4       8 LYL4        0.0000 
     33 NZ         22.6750   33.6250   91.8140 N.4       5 LYP4        0.0000 
     34 N          24.2265   34.6020   90.6570 N.am      1 SEC2        0.0000 
     35 N          25.3840   35.4320   90.7890 N.am      7 SEL2        0.0000 
     36 N          23.0690   33.7720   90.5250 N.am      4 SEP2        0.0000 
     37 N          23.6065   35.4010   90.2010 N.am      1 SEC2        0.0000 
     38 N          24.1440   37.0300   89.8770 N.am      7 SEL2        0.0000 
     39 CA         32.6565   40.5945   91.8005 C.3       3 GLC5        0.0000 
     40 CA         31.0050   41.2660   91.4000 C.3       9 GLL5        0.0000 
     41 CA         34.3080   39.9230   92.2010 C.3       6 GLP5        0.0000 
     42 CA         31.3450   39.9660   89.6485 C.3       3 GLC5        0.0000 
     43 CA         31.6850   38.6660   87.8970 C.3       6 GLP5        0.0000 
     44 CA         29.5595   41.2790   89.8690 C.3       3 GLC5        0.0000 
     45 CA         32.2295   42.5830   92.3435 C.3       3 GLC5        0.0000 
     46 CA         33.4540   43.9000   93.2870 C.3       6 GLP5        0.0000 
     47 CA         32.2140   41.9260   90.4105 C.3       3 GLC5        0.0000 
     48 CA         33.4230   42.5860   89.4210 C.3       6 GLP5        0.0000 
     49 CA         33.1460   44.0535  100.3140 C.3       3 GLC5        0.0000 
     50 CA         33.0810   43.3760   98.3360 C.3       9 GLL5        0.0000 
     51 CA         33.2110   44.7310  102.2920 C.3       6 GLP5        0.0000 
     52 CA         31.2795   44.6365   98.2810 C.3       3 GLC5        0.0000 
     53 CA         29.4780   45.8970   98.2260 C.3       6 GLP5        0.0000 
     54 CA         34.2805   45.1990   98.5510 C.3       3 GLC5        0.0000 
     55 CA         35.4800   47.0220   98.7660 C.3       6 GLP5        0.0000 
     56 CA         34.1315   43.3720   96.6605 C.3       3 GLC5        0.0000 
     57 CA         35.1820   43.3680   94.9850 C.3       6 GLP5        0.0000 
     58 CA         34.9215   43.1425   99.3540 C.3       3 GLC5        0.0000 
     59 CA         36.7620   42.9090  100.3720 C.3       6 GLP5        0.0000 
     60 CA         28.1625   42.2105   97.7630 C.3       3 GLC5        0.0000 
     61 CA         27.7300   40.6430   96.5950 C.3       9 GLL5        0.0000 
     62 CA         25.9905   40.6500   97.2385 C.3       3 GLC5        0.0000 
     63 CA         24.2510   40.6570   97.8820 C.3       6 GLP5        0.0000 
     64 CA         28.5425   39.1200   97.2540 C.3       3 GLC5        0.0000 
     65 CA         27.1365   42.2560   95.3015 C.3       3 GLC5        0.0000 
     66 CA         32.0765   37.6900   96.9930 C.3       3 GLC5        0.0000 
     67 CA         33.5010   37.8300   95.8510 C.3       9 GLL5        0.0000 
     68 CA         30.6520   37.5500   98.1350 C.3       6 GLP5        0.0000 
     69 CA         33.8220   37.9900   93.9585 C.3       3 GLC5        0.0000 
     70 CA         34.1430   38.1500   92.0660 C.3       6 GLP5        0.0000 
     71 CA         32.6950   36.8100   94.9915 C.3       3 GLC5        0.0000 
     72 CA         35.2755   38.9980   95.4950 C.3       3 GLC5        0.0000 
     73 CA         37.0500   40.1660   95.1390 C.3       6 GLP5        0.0000 
     74 CA         33.8780   37.8070   97.8065 C.3       3 GLC5        0.0000 
     75 CA         34.2550   37.7840   99.7620 C.3       6 GLP5        0.0000 
     76 CA         34.3425   36.2730   95.9295 C.3       3 GLC5        0.0000 
     77 CA         35.1840   34.7160   96.0080 C.3       6 GLP5        0.0000 
     78 CA         29.5960   37.8570   91.8269 C.3       3 GLC5        0.0000 
     79 CA         29.5620   40.2880   92.5300 C.3       9 GLL5        0.0000 
     80 CA         27.9995   41.6384   92.3582 C.3       3 GLC5        0.0000 
     81 CA         26.7770   43.0070   91.6490 C.3       6 GLP5        0.0000 
     82 CA         26.7428   36.9075   93.8682 C.3       3 GLC5        0.0000 
     83 CA         26.2680   35.5910   95.0060 C.3       6 GLP5        0.0000 
     84 CA         32.3630   42.8272   94.4850 C.3       3 GLC5        0.0000 
     85 CA         31.0610   41.2960   95.2340 C.3       9 GLL5        0.0000 
     86 CA         34.0247   42.3545   96.0132 C.3       3 GLC5        0.0000 
     87 CA         32.5130   41.9480   97.0040 C.3       9 GLL5        0.0000 
     88 CA         35.0152   40.2040   95.8670 C.3       3 GLC5        0.0000 
     89 CA         32.7390   39.7500   96.1110 C.3       9 GLL5        0.0000 
     90 CA         33.2597   39.9130   93.9360 C.3       3 GLC5        0.0000 
     91 CA         31.4921   38.8495   97.0240 C.3       3 GLC5        0.0000 
@<TRIPOS>BOND
@<TRIPOS>SUBSTRUCTURE
     1 SEC2       28 GROUP        1 X    SEC  0     ROOT SEC X 2
     2 LYC4       31 GROUP        1 X    LYC  0     **** LYC X 4
     3 GLC5        1 GROUP        1 X    GLC  0     **** GLC X 6
     4 SEP2       30 GROUP        1 Y    SEP  0     ROOT SEP Y 9
     5 LYP4       33 GROUP        1 Y    LYP  0     **** LYP Y 11
     6 GLP5        3 GROUP        1 Y    GLP  0     **** GLP Y 13
     7 SEL2       29 GROUP        1 Z    SEL  0     ROOT SEL Z 16
     8 LYL4       32 GROUP        1 Z    LYL  0     **** LYL Z 18
     9 GLL5        2 GROUP        1 Z    GLL  0     **** GLL Z 20
@<TRIPOS>SET

