#    Name: 1y0x_T44_1_ligand
#    Modification time : Tue Mar 25 10:47:00 2014

@<TRIPOS>MOLECULE
1y0x_T44_1_ligand
   35    36     1     0     0
SMALL
NO_CHARGES


@<TRIPOS>ATOM
      1 C1         27.7140   38.6950   92.6870 C.ar      1 T44500      0.0000 
      2 C2         28.7500   39.3010   91.9840 C.ar      1 T44500      0.0000 
      3 C3         29.5620   40.2880   92.5300 C.ar      1 T44500      0.0000 
      4 C4         29.2880   40.7450   93.8780 C.ar      1 T44500      0.0000 
      5 C5         28.2040   40.0940   94.6350 C.ar      1 T44500      0.0000 
      6 C6         27.4940   39.0850   94.0110 C.ar      1 T44500      0.0000 
      7 C7         26.8310   37.5580   92.1120 C.3       1 T44500      0.0000 
      8 C8         26.1690   37.7340   90.7230 C.3       1 T44500      0.0000 
      9 C9         25.1590   36.6510   90.4880 C.2       1 T44500      0.0000 
     10 C1'        31.0610   41.2960   95.2340 C.ar      1 T44500      0.0000 
     11 C2'        31.4830   42.2130   96.1320 C.ar      1 T44500      0.0000 
     12 C3'        32.5130   41.9480   97.0040 C.ar      1 T44500      0.0000 
     13 C4'        33.2220   40.7340   97.0790 C.ar      1 T44500      0.0000 
     14 C5'        32.7390   39.7500   96.1110 C.ar      1 T44500      0.0000 
     15 C6'        31.6840   40.0560   95.2310 C.ar      1 T44500      0.0000 
     16 N8         25.5750   39.0350   90.4710 N.4       1 T44500      0.0000 
     17 O4         30.0460   41.7120   94.4220 O.3       1 T44500      0.0000 
     18 O4'        34.1340   40.7580   98.0320 O.3       1 T44500      0.0000 
     19 O9         25.3840   35.4320   90.7890 O.co2     1 T44500      0.0000 
     20 O10        24.1440   37.0300   89.8770 O.co2     1 T44500      0.0000 
     21 I3         31.0050   41.2660   91.4000 I         1 T44500      0.0000 
     22 I3'        33.0810   43.3760   98.3360 I         1 T44500      0.0000 
     23 I5         27.7300   40.6430   96.5950 I         1 T44500      0.0000 
     24 I5'        33.5010   37.8300   95.8510 I         1 T44500      0.0000 
     25 H          28.9266   38.9982   90.9941 H         1 T44500      0.0000 
     26 H          26.7480   38.5808   94.5559 H         1 T44500      0.0000 
     27 H          26.0211   37.3360   92.8583 H         1 T44500      0.0000 
     28 H          27.4466   36.6185   92.0880 H         1 T44500      0.0000 
     29 H          26.9843   37.5609   89.9717 H         1 T44500      0.0000 
     30 H          31.0205   43.1533   96.1735 H         1 T44500      0.0000 
     31 H          31.3681   39.3254   94.5618 H         1 T44500      0.0000 
     32 H          26.2293   39.6682   90.0574 H         1 T44500      0.0000 
     33 H          24.7943   38.9727   89.8493 H         1 T44500      0.0000 
     34 H          25.2458   39.4623   91.3130 H         1 T44500      0.0000 
     35 H          34.5073   41.2690   98.8064 H         1 T44500      0.0000 
@<TRIPOS>BOND
     1    2    1 ar   
     2    6    1 ar   
     3    7    1 1    
     4    3    2 ar   
     5   25    2 1    
     6    4    3 ar   
     7   21    3 1    
     8    5    4 ar   
     9   17    4 1    
    10    6    5 ar   
    11   23    5 1    
    12   26    6 1    
    13    8    7 1    
    14   27    7 1    
    15   28    7 1    
    16    9    8 1    
    17   16    8 1    
    18   29    8 1    
    19   19    9 ar   
    20   20    9 ar   
    21   11   10 ar   
    22   15   10 ar   
    23   17   10 1    
    24   12   11 ar   
    25   30   11 1    
    26   13   12 ar   
    27   22   12 1    
    28   14   13 ar   
    29   18   13 1    
    30   15   14 ar   
    31   24   14 1    
    32   31   15 1    
    33   32   16 1    
    34   33   16 1    
    35   34   16 1    
    36   35   18 1    
@<TRIPOS>SUBSTRUCTURE
     1 T44500      1 GROUP   
@<TRIPOS>SET

